# generated using pymatgen
data_Co6H14C68(N4O5)5
_symmetry_space_group_name_H-M   'P 1'
_cell_length_a   20.31080000
_cell_length_b   21.63241000
_cell_length_c   31.65846000
_cell_angle_alpha   61.08923000
_cell_angle_beta   118.62937000
_cell_angle_gamma   133.33629000
_symmetry_Int_Tables_number   1
_chemical_formula_structural   Co6H14C68(N4O5)5
_chemical_formula_sum   'Co12 H28 C136 N40 O50'
_cell_volume   8615.80991737
_cell_formula_units_Z   2
loop_
 _symmetry_equiv_pos_site_id
 _symmetry_equiv_pos_as_xyz
  1  'x, y, z'
loop_
 _atom_site_type_symbol
 _atom_site_label
 _atom_site_symmetry_multiplicity
 _atom_site_fract_x
 _atom_site_fract_y
 _atom_site_fract_z
 _atom_site_occupancy
  Co  Co1  1  0.03287000  0.87043000  0.63813000  1
  Co  Co2  1  0.04941000  0.02184000  0.04971000  1
  Co  Co3  1  0.00263000  0.09009000  0.09995000  1
  Co  Co4  1  0.00216000  0.86176000  0.13359000  1
  Co  Co5  1  0.05967000  0.01942000  0.54918000  1
  Co  Co6  1  0.09469000  0.90075000  0.05448000  1
  Co  Co7  1  0.99376000  0.07513000  0.59652000  1
  Co  Co8  1  0.10401000  0.89710000  0.55342000  1
  Co  Co9  1  0.92711000  0.91816000  0.17492000  1
  Co  Co10  1  0.90722000  0.05733000  0.17318000  1
  Co  Co11  1  0.96618000  0.92431000  0.68458000  1
  Co  Co12  1  0.89559000  0.02683000  0.67686000  1
  H  H1  1  0.13524000  0.07825000  0.91705000  1
  H  H2  1  0.08731000  0.07336000  0.31997000  1
  H  H3  1  0.13253000  0.41011000  0.70479000  1
  H  H4  1  0.15546000  0.61640000  0.70434000  1
  H  H5  1  0.09427000  0.39215000  0.20697000  1
  H  H6  1  0.23290000  0.71904000  0.12580000  1
  H  H7  1  0.19746000  0.76339000  0.25195000  1
  H  H8  1  0.86194000  0.86741000  0.81337000  1
  H  H9  1  0.84896000  0.80189000  0.41395000  1
  H  H10  1  0.12846000  0.35850000  0.56641000  1
  H  H11  1  0.64841000  0.79820000  0.60810000  1
  H  H12  1  0.52327000  0.65641000  0.75637000  1
  H  H13  1  0.37234000  0.94113000  0.65659000  1
  H  H14  1  0.24461000  0.37013000  0.13362000  1
  H  H15  1  0.53059000  0.82926000  0.21881000  1
  H  H16  1  0.66427000  0.71174000  0.21030000  1
  H  H17  1  0.62244000  0.11532000  0.55361000  1
  H  H18  1  0.92883000  0.24012000  0.53915000  1
  H  H19  1  0.80966000  0.42394000  0.65382000  1
  H  H20  1  0.90509000  0.69014000  0.51491000  1
  H  H21  1  0.35398000  0.26315000  0.51365000  1
  H  H22  1  0.48663000  0.12076000  0.53556000  1
  H  H23  1  0.69590000  0.05687000  0.04643000  1
  H  H24  1  0.87585000  0.38115000  0.99582000  1
  H  H25  1  0.93426000  0.58700000  0.14525000  1
  H  H26  1  0.73115000  0.55647000  0.97620000  1
  H  H27  1  0.53238000  0.19531000  0.09330000  1
  H  H28  1  0.28604000  0.21089000  0.95120000  1
  C  C1  1  0.01051000  0.99025000  0.77136000  1
  C  C2  1  0.00884000  0.97209000  0.82355000  1
  C  C3  1  0.05015000  0.21100000  0.63715000  1
  C  C4  1  0.03714000  0.01314000  0.34120000  1
  C  C5  1  0.03323000  0.01475000  0.38433000  1
  C  C6  1  0.07878000  0.24980000  0.72366000  1
  C  C7  1  0.07507000  0.03268000  0.89436000  1
  C  C8  1  0.99335000  0.23438000  0.19377000  1
  C  C9  1  0.22671000  0.09440000  0.03432000  1
  C  C10  1  0.09645000  0.21121000  0.16780000  1
  C  C11  1  0.17077000  0.86230000  0.15939000  1
  C  C12  1  0.22739000  0.08833000  0.52462000  1
  C  C13  1  0.20502000  0.88233000  0.65659000  1
  C  C14  1  0.08567000  0.03314000  0.85292000  1
  C  C15  1  0.13072000  0.39873000  0.67428000  1
  C  C16  1  0.10439000  0.31711000  0.67866000  1
  C  C17  1  0.10475000  0.30201000  0.63989000  1
  C  C18  1  0.13300000  0.37043000  0.59761000  1
  C  C19  1  0.20063000  0.68718000  0.69185000  1
  C  C20  1  0.18477000  0.73850000  0.69534000  1
  C  C21  1  0.24264000  0.83079000  0.67845000  1
  C  C22  1  0.11418000  0.69660000  0.71980000  1
  C  C23  1  0.13008000  0.29904000  0.16576000  1
  C  C24  1  0.12676000  0.38767000  0.19059000  1
  C  C25  1  0.08417000  0.30735000  0.18331000  1
  C  C26  1  0.22516000  0.72869000  0.15332000  1
  C  C27  1  0.20332000  0.78603000  0.13865000  1
  C  C28  1  0.19183000  0.79885000  0.17430000  1
  C  C29  1  0.20550000  0.75436000  0.22432000  1
  C  C30  1  0.19619000  0.83317000  0.08711000  1
  C  C31  1  0.71627000  0.30357000  0.01856000  1
  C  C32  1  0.73989000  0.42007000  0.02837000  1
  C  C33  1  0.58846000  0.29612000  0.00873000  1
  C  C34  1  0.73662000  0.29090000  0.53988000  1
  C  C35  1  0.61510000  0.29259000  0.53021000  1
  C  C36  1  0.76766000  0.39430000  0.56784000  1
  C  C37  1  0.28148000  0.64016000  0.21721000  1
  C  C38  1  0.41573000  0.65226000  0.23286000  1
  C  C39  1  0.26882000  0.53670000  0.20042000  1
  C  C40  1  0.29301000  0.67253000  0.67025000  1
  C  C41  1  0.24048000  0.55692000  0.64385000  1
  C  C42  1  0.40005000  0.66029000  0.67090000  1
  C  C43  1  0.92841000  0.72525000  0.08883000  1
  C  C44  1  0.88158000  0.14444000  0.06667000  1
  C  C45  1  0.74346000  0.88295000  0.16096000  1
  C  C46  1  0.98773000  0.94962000  0.96093000  1
  C  C47  1  0.94994000  0.94775000  0.26810000  1
  C  C48  1  0.95575000  0.72310000  0.60110000  1
  C  C49  1  0.81725000  0.05958000  0.57098000  1
  C  C50  1  0.77904000  0.83362000  0.69304000  1
  C  C51  1  0.97823000  0.92803000  0.46512000  1
  C  C52  1  0.98901000  0.97095000  0.90805000  1
  C  C53  1  0.91166000  0.91173000  0.87781000  1
  C  C54  1  0.92249000  0.91145000  0.83676000  1
  C  C55  1  0.97156000  0.93706000  0.32285000  1
  C  C56  1  0.90411000  0.86041000  0.35017000  1
  C  C57  1  0.90019000  0.86187000  0.39321000  1
  C  C58  1  0.96481000  0.93814000  0.41128000  1
  C  C59  1  0.16714000  0.46901000  0.63434000  1
  C  C60  1  0.16219000  0.45296000  0.59424000  1
  C  C61  1  0.18840000  0.52156000  0.54972000  1
  C  C62  1  0.67908000  0.76637000  0.68795000  1
  C  C63  1  0.62057000  0.76580000  0.64047000  1
  C  C64  1  0.52860000  0.73026000  0.63450000  1
  C  C65  1  0.49573000  0.69691000  0.67646000  1
  C  C66  1  0.55116000  0.68877000  0.72404000  1
  C  C67  1  0.64148000  0.72007000  0.72982000  1
  C  C68  1  0.69384000  0.70114000  0.77836000  1
  C  C69  1  0.46845000  0.72826000  0.58534000  1
  C  C70  1  0.27562000  0.72725000  0.67308000  1
  C  C71  1  0.32460000  0.87018000  0.66686000  1
  C  C72  1  0.33791000  0.82002000  0.66039000  1
  C  C73  1  0.41065000  0.86466000  0.63656000  1
  C  C74  1  0.21156000  0.37462000  0.14957000  1
  C  C75  1  0.25210000  0.45581000  0.15522000  1
  C  C76  1  0.21318000  0.46081000  0.17956000  1
  C  C77  1  0.33203000  0.53381000  0.13489000  1
  C  C78  1  0.51576000  0.71311000  0.23199000  1
  C  C79  1  0.55913000  0.80335000  0.21662000  1
  C  C80  1  0.63502000  0.86006000  0.19503000  1
  C  C81  1  0.66903000  0.82590000  0.18865000  1
  C  C82  1  0.63397000  0.73741000  0.21085000  1
  C  C83  1  0.56034000  0.68196000  0.23432000  1
  C  C84  1  0.53331000  0.59447000  0.26225000  1
  C  C85  1  0.67747000  0.95273000  0.18040000  1
  C  C86  1  0.24335000  0.68825000  0.20316000  1
  C  C87  1  0.23298000  0.70053000  0.23904000  1
  C  C88  1  0.24974000  0.65803000  0.29077000  1
  C  C89  1  0.75984000  0.23424000  0.54493000  1
  C  C90  1  0.68940000  0.14350000  0.55007000  1
  C  C91  1  0.70321000  0.08901000  0.54902000  1
  C  C92  1  0.79185000  0.12166000  0.54937000  1
  C  C93  1  0.86160000  0.21312000  0.54161000  1
  C  C94  1  0.84549000  0.26966000  0.53859000  1
  C  C95  1  0.91499000  0.36318000  0.52669000  1
  C  C96  1  0.62494000  0.99989000  0.54608000  1
  C  C97  1  0.83233000  0.48044000  0.58001000  1
  C  C98  1  0.83443000  0.48315000  0.62427000  1
  C  C99  1  0.85945000  0.55917000  0.62873000  1
  C  C100  1  0.88875000  0.63577000  0.58994000  1
  C  C101  1  0.88362000  0.63192000  0.54526000  1
  C  C102  1  0.86038000  0.55687000  0.54106000  1
  C  C103  1  0.86176000  0.55767000  0.49559000  1
  C  C104  1  0.84950000  0.55620000  0.67197000  1
  C  C105  1  0.32727000  0.14081000  0.52670000  1
  C  C106  1  0.38321000  0.23199000  0.51902000  1
  C  C107  1  0.47538000  0.28357000  0.51568000  1
  C  C108  1  0.51410000  0.24298000  0.52331000  1
  C  C109  1  0.45768000  0.15228000  0.53003000  1
  C  C110  1  0.36487000  0.10127000  0.53075000  1
  C  C111  1  0.30864000  0.00867000  0.53442000  1
  C  C112  1  0.52771000  0.37787000  0.50166000  1
  C  C113  1  0.82641000  0.17850000  0.03099000  1
  C  C114  1  0.73491000  0.12768000  0.03492000  1
  C  C115  1  0.70073000  0.16681000  0.03440000  1
  C  C116  1  0.75274000  0.25977000  0.02131000  1
  C  C117  1  0.83740000  0.31048000  0.00836000  1
  C  C118  1  0.87392000  0.27027000  0.01278000  1
  C  C119  1  0.96419000  0.32429000  0.00283000  1
  C  C120  1  0.61754000  0.11112000  0.05225000  1
  C  C121  1  0.86310000  0.63692000  0.07966000  1
  C  C122  1  0.88690000  0.57811000  0.10906000  1
  C  C123  1  0.85668000  0.51288000  0.09045000  1
  C  C124  1  0.80007000  0.50444000  0.04209000  1
  C  C125  1  0.77636000  0.56341000  0.01300000  1
  C  C126  1  0.80185000  0.62462000  0.03292000  1
  C  C127  1  0.76254000  0.67282000  0.00579000  1
  C  C128  1  0.88456000  0.45533000  0.12126000  1
  C  C129  1  0.49335000  0.24005000  0.01411000  1
  C  C130  1  0.47779000  0.19711000  0.06212000  1
  C  C131  1  0.39459000  0.16099000  0.07045000  1
  C  C132  1  0.32328000  0.16229000  0.03006000  1
  C  C133  1  0.34047000  0.20882000  0.98236000  1
  C  C134  1  0.42457000  0.24674000  0.97411000  1
  C  C135  1  0.43950000  0.29172000  0.92440000  1
  C  C136  1  0.38263000  0.12225000  0.12061000  1
  N  N1  1  0.03663000  0.36756000  0.99494000  1
  N  N2  1  0.05848000  0.19686000  0.76002000  1
  N  N3  1  0.05806000  0.66314000  0.73976000  1
  N  N4  1  0.17487000  0.09607000  0.84093000  1
  N  N5  1  0.09762000  0.09511000  0.39954000  1
  N  N6  1  0.19101000  0.87054000  0.04576000  1
  N  N7  1  0.77569000  0.38375000  0.02940000  1
  N  N8  1  0.64687000  0.37659000  0.01691000  1
  N  N9  1  0.62278000  0.26123000  0.00744000  1
  N  N10  1  0.64676000  0.26327000  0.52057000  1
  N  N11  1  0.67558000  0.35641000  0.55487000  1
  N  N12  1  0.79885000  0.35943000  0.56235000  1
  N  N13  1  0.37514000  0.68167000  0.23411000  1
  N  N14  1  0.36118000  0.57657000  0.21928000  1
  N  N15  1  0.22843000  0.56778000  0.19989000  1
  N  N16  1  0.22134000  0.59846000  0.65283000  1
  N  N17  1  0.32962000  0.58950000  0.65194000  1
  N  N18  1  0.38193000  0.70028000  0.68156000  1
  N  N19  1  0.82111000  0.85329000  0.88759000  1
  N  N20  1  0.83665000  0.78130000  0.33333333  1
  N  N21  1  0.20902000  0.57635000  0.51393000  1
  N  N22  1  0.73565000  0.68550000  0.81720000  1
  N  N23  1  0.42035000  0.72663000  0.54595000  1
  N  N24  1  0.46892000  0.90063000  0.61746000  1
  N  N25  1  0.92073000  0.17627000  0.20238000  1
  N  N26  1  0.39610000  0.59630000  0.11866000  1
  N  N27  1  0.51167000  0.52437000  0.28461000  1
  N  N28  1  0.71089000  0.02679000  0.16873000  1
  N  N29  1  0.26320000  0.62394000  0.33225000  1
  N  N30  1  0.97024000  0.43828000  0.51697000  1
  N  N31  1  0.56195000  0.92859000  0.54345000  1
  N  N32  1  0.86281000  0.55827000  0.45916000  1
  N  N33  1  0.84104000  0.55359000  0.70657000  1
  N  N34  1  0.26420000  0.93475000  0.53709000  1
  N  N35  1  0.56966000  0.45339000  0.49044000  1
  N  N36  1  0.55095000  0.06633000  0.06663000  1
  N  N37  1  0.73073000  0.71119000  0.98441000  1
  N  N38  1  0.90699000  0.40928000  0.14594000  1
  N  N39  1  0.45153000  0.32777000  0.88459000  1
  N  N40  1  0.37325000  0.09140000  0.16083000  1
  O  O1  1  0.01574000  0.76933000  0.09010000  1
  O  O2  1  0.00530000  0.05382000  0.73786000  1
  O  O3  1  0.01034000  0.93902000  0.75849000  1
  O  O4  1  0.01466000  0.98141000  0.12157000  1
  O  O5  1  0.04074000  0.77041000  0.59707000  1
  O  O6  1  0.04407000  0.92983000  0.08083000  1
  O  O7  1  0.04136000  0.98945000  0.62432000  1
  O  O8  1  0.04656000  0.11924000  0.04236000  1
  O  O9  1  0.04650000  0.14334000  0.20021000  1
  O  O10  1  0.04105000  0.10801000  0.53906000  1
  O  O11  1  0.06232000  0.93170000  0.58227000  1
  O  O12  1  0.98771000  0.88194000  0.99237000  1
  O  O13  1  0.10337000  0.20023000  0.13195000  1
  O  O14  1  0.19424000  0.92520000  0.11944000  1
  O  O15  1  0.10772000  0.84106000  0.17716000  1
  O  O16  1  0.17641000  0.02772000  0.01561000  1
  O  O17  1  0.19122000  0.10027000  0.05654000  1
  O  O18  1  0.98499000  0.86481000  0.49833000  1
  O  O19  1  0.96343000  0.15827000  0.64055000  1
  O  O20  1  0.08009000  0.19055000  0.61989000  1
  O  O21  1  0.21641000  0.93475000  0.61236000  1
  O  O22  1  0.14846000  0.86512000  0.67726000  1
  O  O23  1  0.16845000  0.01961000  0.50678000  1
  O  O24  1  0.19877000  0.10373000  0.54566000  1
  O  O25  1  0.22391000  0.17747000  0.84124000  1
  O  O26  1  0.20951000  0.07104000  0.83268000  1
  O  O27  1  0.18603000  0.14042000  0.40324000  1
  O  O28  1  0.06687000  0.12911000  0.40247000  1
  O  O29  1  0.91924000  0.15743000  0.11079000  1
  O  O30  1  0.95260000  0.01987000  0.14936000  1
  O  O31  1  0.93666000  0.82335000  0.18410000  1
  O  O32  1  0.89308000  0.10144000  0.05540000  1
  O  O33  1  0.98911000  0.99949000  0.97607000  1
  O  O34  1  0.77603000  0.96574000  0.14102000  1
  O  O35  1  0.78238000  0.85231000  0.16052000  1
  O  O36  1  0.88811000  0.96264000  0.23933000  1
  O  O37  1  0.98221000  0.93137000  0.24952000  1
  O  O38  1  0.90233000  0.75575000  0.10072000  1
  O  O39  1  0.79443000  0.00112000  0.61251000  1
  O  O40  1  0.96180000  0.01110000  0.65217000  1
  O  O41  1  0.99004000  0.83911000  0.69660000  1
  O  O42  1  0.87318000  0.07109000  0.55297000  1
  O  O43  1  0.98265000  0.98118000  0.47913000  1
  O  O44  1  0.82052000  0.89576000  0.71383000  1
  O  O45  1  0.82394000  0.83873000  0.67107000  1
  O  O46  1  0.93111000  0.75484000  0.61313000  1
  O  O47  1  0.79124000  0.88237000  0.89632000  1
  O  O48  1  0.76555000  0.77301000  0.88356000  1
  O  O49  1  0.86298000  0.75330000  0.32074000  1
  O  O50  1  0.74946000  0.73510000  0.33271000  1
