# generated using pymatgen
data_Ni2H25C46IN4O7
_symmetry_space_group_name_H-M   'P 1'
_cell_length_a   27.17056000
_cell_length_b   29.99307000
_cell_length_c   21.93101000
_cell_angle_alpha   89.99736000
_cell_angle_beta   90.00364000
_cell_angle_gamma   92.16952000
_symmetry_Int_Tables_number   1
_chemical_formula_structural   Ni2H25C46IN4O7
_chemical_formula_sum   'Ni8 H100 C184 I4 N16 O28'
_cell_volume   17859.39434487
_cell_formula_units_Z   4
loop_
 _symmetry_equiv_pos_site_id
 _symmetry_equiv_pos_as_xyz
  1  'x, y, z'
loop_
 _atom_site_type_symbol
 _atom_site_label
 _atom_site_symmetry_multiplicity
 _atom_site_fract_x
 _atom_site_fract_y
 _atom_site_fract_z
 _atom_site_occupancy
  Ni  Ni1  1  0.52789000  0.44432000  0.99021000  1
  Ni  Ni2  1  0.52572000  0.54772000  0.01278000  1
  Ni  Ni3  1  0.42598000  0.49064000  0.03436000  1
  Ni  Ni4  1  0.63050000  0.50011000  0.97067000  1
  Ni  Ni5  1  0.48164000  0.45206000  0.51393000  1
  Ni  Ni6  1  0.47800000  0.55531000  0.53033000  1
  Ni  Ni7  1  0.37718000  0.50022000  0.55643000  1
  Ni  Ni8  1  0.58396000  0.50657000  0.49654000  1
  H  H1  1  0.89927000  0.07150000  0.08173000  1
  H  H2  1  0.83155000  0.12168000  0.05968000  1
  H  H3  1  0.88039000  0.20793000  0.20650000  1
  H  H4  1  0.94911000  0.15881000  0.22682000  1
  H  H5  1  0.84570000  0.84802000  0.10947000  1
  H  H6  1  0.91471000  0.90364000  0.11165000  1
  H  H7  1  0.90604000  0.78264000  0.26627000  1
  H  H8  1  0.97685000  0.83612000  0.26505000  1
  H  H9  1  0.11610000  0.90404000  0.04675000  1
  H  H10  1  0.18321000  0.85705000  0.01191000  1
  H  H11  1  0.14754000  0.86996000  0.23311000  1
  H  H12  1  0.21217000  0.82023000  0.19829000  1
  H  H13  1  0.13936000  0.14512000  0.17778000  1
  H  H14  1  0.19973000  0.19519000  0.12515000  1
  H  H15  1  0.07707000  0.10545000  0.00460000  1
  H  H16  1  0.13803000  0.15488000  0.95172000  1
  H  H17  1  0.91664000  0.95379000  0.22185000  1
  H  H18  1  0.90904000  0.03394000  0.20716000  1
  H  H19  1  0.01411000  0.15029000  0.12075000  1
  H  H20  1  0.14924000  0.05225000  0.12819000  1
  H  H21  1  0.15695000  0.97265000  0.14522000  1
  H  H22  1  0.04159000  0.84955000  0.17508000  1
  H  H23  1  0.85157000  0.10990000  0.27953000  1
  H  H24  1  0.78261000  0.15803000  0.30520000  1
  H  H25  1  0.83962000  0.17385000  0.48774000  1
  H  H26  1  0.90913000  0.12677000  0.46146000  1
  H  H27  1  0.78462000  0.86221000  0.27463000  1
  H  H28  1  0.86249000  0.90671000  0.28194000  1
  H  H29  1  0.82239000  0.79074000  0.43737000  1
  H  H30  1  0.89896000  0.83705000  0.44696000  1
  H  H31  1  0.06191000  0.84346000  0.29139000  1
  H  H32  1  0.12947000  0.79480000  0.31920000  1
  H  H33  1  0.08568000  0.91880000  0.45666000  1
  H  H34  1  0.15368000  0.87028000  0.48444000  1
  H  H35  1  0.09147000  0.09247000  0.40947000  1
  H  H36  1  0.15877000  0.14924000  0.42032000  1
  H  H37  1  0.04421000  0.15644000  0.24473000  1
  H  H38  1  0.11082000  0.21389000  0.25649000  1
  H  H39  1  0.85511000  0.95446000  0.39626000  1
  H  H40  1  0.85258000  0.03477000  0.38238000  1
  H  H41  1  0.97278000  0.15078000  0.33566000  1
  H  H42  1  0.09250000  0.04009000  0.29791000  1
  H  H43  1  0.09574000  0.95998000  0.31752000  1
  H  H44  1  0.97812000  0.84628000  0.37961000  1
  H  H45  1  0.47246000  0.50221000  0.93681000  1
  H  H46  1  0.58037000  0.48921000  0.06531000  1
  H  H47  1  0.42502000  0.50838000  0.46043000  1
  H  H48  1  0.53217000  0.49915000  0.59042000  1
  H  H49  1  0.50249000  0.45000000  0.67675000  1
  H  H50  1  0.50774000  0.55812000  0.84834000  1
  H  H51  1  0.58249000  0.52602000  0.31713000  1
  H  H52  1  0.42647000  0.48089000  0.21250000  1
  H  H53  1  0.14154000  0.77508000  0.50439000  1
  H  H54  1  0.23132000  0.80870000  0.34800000  1
  H  H55  1  0.29017000  0.75235000  0.38023000  1
  H  H56  1  0.40570000  0.68556000  0.50436000  1
  H  H57  1  0.34841000  0.74336000  0.47367000  1
  H  H58  1  0.28206000  0.59257000  0.52615000  1
  H  H59  1  0.70955000  0.84833000  0.39496000  1
  H  H60  1  0.78256000  0.74035000  0.30868000  1
  H  H61  1  0.71079000  0.69047000  0.33185000  1
  H  H62  1  0.57860000  0.60927000  0.38802000  1
  H  H63  1  0.62010000  0.66999000  0.32910000  1
  H  H64  1  0.60110000  0.68625000  0.55190000  1
  H  H65  1  0.79192000  0.25056000  0.34836000  1
  H  H66  1  0.73314000  0.15789000  0.48207000  1
  H  H67  1  0.67335000  0.21378000  0.51327000  1
  H  H68  1  0.54629000  0.31945000  0.48976000  1
  H  H69  1  0.60002000  0.25714000  0.46539000  1
  H  H70  1  0.67487000  0.40772000  0.49942000  1
  H  H71  1  0.13025000  0.24518000  0.43173000  1
  H  H72  1  0.22079000  0.21349000  0.27780000  1
  H  H73  1  0.28063000  0.27341000  0.30912000  1
  H  H74  1  0.39813000  0.32662000  0.45404000  1
  H  H75  1  0.33698000  0.27683000  0.40281000  1
  H  H76  1  0.28515000  0.42116000  0.48443000  1
  H  H77  1  0.29715000  0.82525000  0.13755000  1
  H  H78  1  0.18502000  0.76895000  0.01849000  1
  H  H79  1  0.24238000  0.71140000  0.98696000  1
  H  H80  1  0.33121000  0.58426000  0.02715000  1
  H  H81  1  0.27501000  0.64607000  0.04072000  1
  H  H82  1  0.45352000  0.67982000  0.01968000  1
  H  H83  1  0.77171000  0.81928000  0.17564000  1
  H  H84  1  0.88375000  0.72188000  0.18913000  1
  H  H85  1  0.82137000  0.66289000  0.16416000  1
  H  H86  1  0.72478000  0.59811000  0.00925000  1
  H  H87  1  0.78391000  0.64882000  0.06194000  1
  H  H88  1  0.60803000  0.65055000  0.11806000  1
  H  H89  1  0.75203000  0.16437000  0.12310000  1
  H  H90  1  0.87846000  0.25166000  0.08875000  1
  H  H91  1  0.82303000  0.30928000  0.05197000  1
  H  H92  1  0.70694000  0.37793000  0.93148000  1
  H  H93  1  0.76395000  0.31998000  0.96310000  1
  H  H94  1  0.61782000  0.34732000  0.08972000  1
  H  H95  1  0.43731000  0.31036000  0.97998000  1
  H  H96  1  0.34247000  0.41243000  0.91708000  1
  H  H97  1  0.27482000  0.35551000  0.90668000  1
  H  H98  1  0.16947000  0.26869000  0.03882000  1
  H  H99  1  0.23177000  0.32258000  0.99803000  1
  H  H100  1  0.25009000  0.16165000  0.96151000  1
  C  C1  1  0.94731000  0.97288000  0.20240000  1
  C  C2  1  0.94305000  0.01881000  0.19420000  1
  C  C3  1  0.99120000  0.95203000  0.18661000  1
  C  C4  1  0.03301000  0.97874000  0.17003000  1
  C  C5  1  0.02872000  0.02519000  0.16158000  1
  C  C6  1  0.98273000  0.04496000  0.17054000  1
  C  C7  1  0.07885000  0.95897000  0.16020000  1
  C  C8  1  0.12078000  0.98648000  0.14787000  1
  C  C9  1  0.07006000  0.05153000  0.14234000  1
  C  C10  1  0.97762000  0.09060000  0.15559000  1
  C  C11  1  0.01842000  0.11577000  0.13389000  1
  C  C12  1  0.06413000  0.09662000  0.12635000  1
  C  C13  1  0.99419000  0.90490000  0.18689000  1
  C  C14  1  0.03960000  0.88560000  0.17607000  1
  C  C15  1  0.08169000  0.91198000  0.16220000  1
  C  C16  1  0.92905000  0.11161000  0.15587000  1
  C  C17  1  0.89454000  0.10060000  0.11008000  1
  C  C18  1  0.85626000  0.12919000  0.09738000  1
  C  C19  1  0.85214000  0.16894000  0.13047000  1
  C  C20  1  0.88391000  0.17783000  0.17978000  1
  C  C21  1  0.92238000  0.14951000  0.19212000  1
  C  C22  1  0.10356000  0.12264000  0.09482000  1
  C  C23  1  0.13873000  0.14750000  0.12856000  1
  C  C24  1  0.17314000  0.17551000  0.09871000  1
  C  C25  1  0.10404000  0.12477000  0.03093000  1
  C  C26  1  0.13853000  0.15269000  0.00103000  1
  C  C27  1  0.17264000  0.17873000  0.03487000  1
  C  C28  1  0.94940000  0.87518000  0.19061000  1
  C  C29  1  0.94715000  0.84016000  0.23308000  1
  C  C30  1  0.90770000  0.80901000  0.23250000  1
  C  C31  1  0.87092000  0.81142000  0.18783000  1
  C  C32  1  0.87326000  0.84629000  0.14500000  1
  C  C33  1  0.91239000  0.87785000  0.14622000  1
  C  C34  1  0.12661000  0.88953000  0.14229000  1
  C  C35  1  0.13762000  0.88646000  0.07996000  1
  C  C36  1  0.17539000  0.85953000  0.06020000  1
  C  C37  1  0.20175000  0.83456000  0.10250000  1
  C  C38  1  0.19203000  0.83913000  0.16511000  1
  C  C39  1  0.15498000  0.86690000  0.18487000  1
  C  C40  1  0.11639000  0.03212000  0.13847000  1
  C  C41  1  0.88797000  0.97249000  0.38052000  1
  C  C42  1  0.88684000  0.01861000  0.37383000  1
  C  C43  1  0.93141000  0.94992000  0.36846000  1
  C  C44  1  0.97520000  0.97466000  0.35484000  1
  C  C45  1  0.97403000  0.02136000  0.34701000  1
  C  C46  1  0.92964000  0.04361000  0.35704000  1
  C  C47  1  0.02017000  0.95271000  0.34895000  1
  C  C48  1  0.06215000  0.97683000  0.32768000  1
  C  C49  1  0.01736000  0.04578000  0.33014000  1
  C  C50  1  0.92932000  0.09061000  0.35162000  1
  C  C51  1  0.97271000  0.11460000  0.33650000  1
  C  C52  1  0.01695000  0.09293000  0.32743000  1
  C  C53  1  0.93208000  0.90291000  0.37072000  1
  C  C54  1  0.97735000  0.88203000  0.37243000  1
  C  C55  1  0.02157000  0.90658000  0.36261000  1
  C  C56  1  0.88543000  0.11566000  0.36848000  1
  C  C57  1  0.84921000  0.12409000  0.32480000  1
  C  C58  1  0.80996000  0.15105000  0.33951000  1
  C  C59  1  0.80638000  0.16930000  0.39827000  1
  C  C60  1  0.84196000  0.15983000  0.44234000  1
  C  C61  1  0.88135000  0.13322000  0.42746000  1
  C  C62  1  0.06332000  0.12030000  0.32605000  1
  C  C63  1  0.09649000  0.11807000  0.37493000  1
  C  C64  1  0.13432000  0.15044000  0.38138000  1
  C  C65  1  0.06994000  0.15403000  0.28210000  1
  C  C66  1  0.10741000  0.18680000  0.28909000  1
  C  C67  1  0.13869000  0.18588000  0.33982000  1
  C  C68  1  0.88598000  0.87527000  0.36534000  1
  C  C69  1  0.87448000  0.84224000  0.40884000  1
  C  C70  1  0.83111000  0.81611000  0.40348000  1
  C  C71  1  0.79855000  0.82326000  0.35514000  1
  C  C72  1  0.80980000  0.85631000  0.31179000  1
  C  C73  1  0.85365000  0.88181000  0.31633000  1
  C  C74  1  0.06877000  0.88432000  0.37225000  1
  C  C75  1  0.08216000  0.84979000  0.33311000  1
  C  C76  1  0.12041000  0.82209000  0.34903000  1
  C  C77  1  0.14566000  0.82861000  0.40433000  1
  C  C78  1  0.13398000  0.86455000  0.44204000  1
  C  C79  1  0.09571000  0.89229000  0.42605000  1
  C  C80  1  0.06042000  0.02270000  0.31698000  1
  C  C81  1  0.49684000  0.50785000  0.13389000  1
  C  C82  1  0.42886000  0.40005000  0.97516000  1
  C  C83  1  0.43094000  0.59029000  0.02413000  1
  C  C84  1  0.55845000  0.48503000  0.87195000  1
  C  C85  1  0.62555000  0.59106000  0.02704000  1
  C  C86  1  0.62319000  0.40153000  0.99059000  1
  C  C87  1  0.44996000  0.52202000  0.65388000  1
  C  C88  1  0.38236000  0.40826000  0.50248000  1
  C  C89  1  0.38240000  0.59840000  0.53060000  1
  C  C90  1  0.51344000  0.49553000  0.39562000  1
  C  C91  1  0.57166000  0.60440000  0.51066000  1
  C  C92  1  0.57520000  0.40735000  0.49986000  1
  C  C93  1  0.53291000  0.49526000  0.81486000  1
  C  C94  1  0.53190000  0.46496000  0.76574000  1
  C  C95  1  0.50364000  0.47365000  0.71414000  1
  C  C96  1  0.47787000  0.51319000  0.70975000  1
  C  C97  1  0.47939000  0.54380000  0.75851000  1
  C  C98  1  0.50719000  0.53484000  0.81052000  1
  C  C99  1  0.50126000  0.50620000  0.20090000  1
  C  C100  1  0.54552000  0.51902000  0.23095000  1
  C  C101  1  0.54828000  0.51632000  0.29447000  1
  C  C102  1  0.50805000  0.49954000  0.32878000  1
  C  C103  1  0.46395000  0.48614000  0.29852000  1
  C  C104  1  0.46072000  0.49033000  0.23523000  1
  C  C105  1  0.24884000  0.73333000  0.46125000  1
  C  C106  1  0.17429000  0.77080000  0.47721000  1
  C  C107  1  0.18234000  0.79637000  0.42427000  1
  C  C108  1  0.22452000  0.78965000  0.38933000  1
  C  C109  1  0.25785000  0.75800000  0.40768000  1
  C  C110  1  0.34821000  0.63442000  0.51691000  1
  C  C111  1  0.36655000  0.67743000  0.50225000  1
  C  C112  1  0.33422000  0.71009000  0.48467000  1
  C  C113  1  0.28355000  0.69954000  0.48142000  1
  C  C114  1  0.29711000  0.62551000  0.51502000  1
  C  C115  1  0.67072000  0.74182000  0.37787000  1
  C  C116  1  0.70975000  0.81397000  0.37985000  1
  C  C117  1  0.75170000  0.79755000  0.35195000  1
  C  C118  1  0.75068000  0.75353000  0.33113000  1
  C  C119  1  0.71005000  0.72545000  0.34395000  1
  C  C120  1  0.58808000  0.64302000  0.47447000  1
  C  C121  1  0.59222000  0.63917000  0.41116000  1
  C  C122  1  0.61581000  0.67328000  0.37800000  1
  C  C123  1  0.63616000  0.71055000  0.40889000  1
  C  C124  1  0.60489000  0.68239000  0.50305000  1
  C  C125  1  0.69944000  0.26298000  0.44736000  1
  C  C126  1  0.76568000  0.24185000  0.38398000  1
  C  C127  1  0.76694000  0.20020000  0.41284000  1
  C  C128  1  0.73279000  0.18982000  0.45901000  1
  C  C129  1  0.69891000  0.22128000  0.47644000  1
  C  C130  1  0.60666000  0.36837000  0.49611000  1
  C  C131  1  0.58585000  0.32531000  0.48791000  1
  C  C132  1  0.61618000  0.29011000  0.47401000  1
  C  C133  1  0.66723000  0.29828000  0.46866000  1
  C  C134  1  0.65799000  0.37479000  0.49269000  1
  C  C135  1  0.23935000  0.29077000  0.38972000  1
  C  C136  1  0.16319000  0.25097000  0.40462000  1
  C  C137  1  0.17184000  0.22438000  0.35349000  1
  C  C138  1  0.21384000  0.23321000  0.31808000  1
  C  C139  1  0.24769000  0.26675000  0.33596000  1
  C  C140  1  0.34600000  0.37752000  0.47347000  1
  C  C141  1  0.36051000  0.33685000  0.44927000  1
  C  C142  1  0.32613000  0.30894000  0.41974000  1
  C  C143  1  0.27732000  0.32200000  0.41413000  1
  C  C144  1  0.29693000  0.38953000  0.46694000  1
  C  C145  1  0.30044000  0.73472000  0.04817000  1
  C  C146  1  0.28446000  0.80012000  0.10513000  1
  C  C147  1  0.23664000  0.80111000  0.08102000  1
  C  C148  1  0.22168000  0.76891000  0.03790000  1
  C  C149  1  0.25383000  0.73603000  0.02072000  1
  C  C150  1  0.39666000  0.62738000  0.02268000  1
  C  C151  1  0.34587000  0.61836000  0.02736000  1
  C  C152  1  0.31403000  0.65332000  0.03438000  1
  C  C153  1  0.33308000  0.69748000  0.03558000  1
  C  C154  1  0.41438000  0.67200000  0.02288000  1
  C  C155  1  0.76322000  0.70922000  0.14998000  1
  C  C156  1  0.78323000  0.78520000  0.17250000  1
  C  C157  1  0.83267000  0.77525000  0.18231000  1
  C  C158  1  0.84599000  0.73060000  0.18100000  1
  C  C159  1  0.81097000  0.69738000  0.16596000  1
  C  C160  1  0.66167000  0.62089000  0.05900000  1
  C  C161  1  0.71183000  0.62012000  0.04445000  1
  C  C162  1  0.74544000  0.64823000  0.07498000  1
  C  C163  1  0.72892000  0.67647000  0.12107000  1
  C  C164  1  0.64648000  0.64965000  0.10540000  1
  C  C165  1  0.75675000  0.26798000  0.06523000  1
  C  C166  1  0.76805000  0.19587000  0.10718000  1
  C  C167  1  0.81923000  0.20374000  0.10865000  1
  C  C168  1  0.83901000  0.24483000  0.08813000  1
  C  C169  1  0.80778000  0.27716000  0.06667000  1
  C  C170  1  0.65813000  0.36716000  0.00849000  1
  C  C171  1  0.69984000  0.35928000  0.97306000  1
  C  C172  1  0.73216000  0.32662000  0.99100000  1
  C  C173  1  0.72283000  0.30233000  0.04481000  1
  C  C174  1  0.64970000  0.34171000  0.06150000  1
  C  C175  1  0.31781000  0.30223000  0.94299000  1
  C  C176  1  0.40196000  0.32061000  0.96331000  1
  C  C177  1  0.39430000  0.36571000  0.95136000  1
  C  C178  1  0.34889000  0.37789000  0.92793000  1
  C  C179  1  0.31061000  0.34589000  0.92270000  1
  C  C180  1  0.20583000  0.21126000  0.00392000  1
  C  C181  1  0.20000000  0.25692000  0.01227000  1
  C  C182  1  0.23482000  0.28736000  0.98852000  1
  C  C183  1  0.27537000  0.27182000  0.95612000  1
  C  C184  1  0.24538000  0.19692000  0.96898000  1
  I  I1  1  0.57587000  0.40780000  0.76566000  1
  I  I2  1  0.43693000  0.60188000  0.75735000  1
  I  I3  1  0.61034000  0.53909000  0.18272000  1
  I  I4  1  0.40096000  0.45959000  0.34532000  1
  N  N1  1  0.20725000  0.73999000  0.49427000  1
  N  N2  1  0.26616000  0.65797000  0.49767000  1
  N  N3  1  0.67060000  0.78594000  0.39260000  1
  N  N4  1  0.62848000  0.71508000  0.46998000  1
  N  N5  1  0.73255000  0.27217000  0.40194000  1
  N  N6  1  0.68683000  0.34010000  0.47871000  1
  N  N7  1  0.19683000  0.28330000  0.42156000  1
  N  N8  1  0.26385000  0.36167000  0.43802000  1
  N  N9  1  0.31500000  0.76721000  0.08851000  1
  N  N10  1  0.38256000  0.70574000  0.02965000  1
  N  N11  1  0.74991000  0.75233000  0.15620000  1
  N  N12  1  0.68007000  0.67667000  0.13493000  1
  N  N13  1  0.73813000  0.22792000  0.08604000  1
  N  N14  1  0.68175000  0.31008000  0.07820000  1
  N  N15  1  0.36379000  0.29007000  0.95932000  1
  N  N16  1  0.27924000  0.22719000  0.94637000  1
  O  O1  1  0.48278000  0.49702000  0.97941000  1
  O  O2  1  0.47564000  0.39797000  0.96080000  1
  O  O3  1  0.41580000  0.42210000  0.02386000  1
  O  O4  1  0.54838000  0.44727000  0.90019000  1
  O  O5  1  0.63740000  0.43366000  0.95239000  1
  O  O6  1  0.47023000  0.47656000  0.10645000  1
  O  O7  1  0.47598000  0.59654000  0.00269000  1
  O  O8  1  0.57124000  0.49513000  0.02255000  1
  O  O9  1  0.57615000  0.39498000  0.00352000  1
  O  O10  1  0.57830000  0.59536000  0.03746000  1
  O  O11  1  0.63982000  0.56887000  0.97893000  1
  O  O12  1  0.59342000  0.51235000  0.89214000  1
  O  O13  1  0.50914000  0.54494000  0.10476000  1
  O  O14  1  0.42034000  0.55581000  0.05990000  1
  O  O15  1  0.43511000  0.50363000  0.50308000  1
  O  O16  1  0.42916000  0.40496000  0.48856000  1
  O  O17  1  0.36946000  0.43099000  0.55093000  1
  O  O18  1  0.50004000  0.45755000  0.42254000  1
  O  O19  1  0.58651000  0.44249000  0.46603000  1
  O  O20  1  0.41694000  0.49217000  0.63462000  1
  O  O21  1  0.42864000  0.60316000  0.51284000  1
  O  O22  1  0.52390000  0.50331000  0.54696000  1
  O  O23  1  0.53114000  0.40296000  0.52445000  1
  O  O24  1  0.53041000  0.60539000  0.54131000  1
  O  O25  1  0.60196000  0.57215000  0.51999000  1
  O  O26  1  0.54252000  0.52483000  0.42416000  1
  O  O27  1  0.46071000  0.55800000  0.62150000  1
  O  O28  1  0.36933000  0.56712000  0.57070000  1
