# generated using pymatgen
data_Ni4H9C34(Br3O7)2
_symmetry_space_group_name_H-M   'P 1'
_cell_length_a   16.13250000
_cell_length_b   16.16124000
_cell_length_c   36.57688000
_cell_angle_alpha   90.91688000
_cell_angle_beta   91.01513000
_cell_angle_gamma   112.94384000
_symmetry_Int_Tables_number   1
_chemical_formula_structural   Ni4H9C34(Br3O7)2
_chemical_formula_sum   'Ni16 H36 C136 Br24 O56'
_cell_volume   8777.82487643
_cell_formula_units_Z   4
loop_
 _symmetry_equiv_pos_site_id
 _symmetry_equiv_pos_as_xyz
  1  'x, y, z'
loop_
 _atom_site_type_symbol
 _atom_site_label
 _atom_site_symmetry_multiplicity
 _atom_site_fract_x
 _atom_site_fract_y
 _atom_site_fract_z
 _atom_site_occupancy
  Ni  Ni1  1  0.82130000  0.38133000  0.90811000  1
  Ni  Ni2  1  0.61417000  0.31326000  0.91976000  1
  Ni  Ni3  1  0.67419000  0.16710000  0.88358000  1
  Ni  Ni4  1  0.74603000  0.53633000  0.93053000  1
  Ni  Ni5  1  0.64764000  0.20931000  0.64665000  1
  Ni  Ni6  1  0.68896000  0.41269000  0.63152000  1
  Ni  Ni7  1  0.83974000  0.37961000  0.68014000  1
  Ni  Ni8  1  0.48314000  0.25186000  0.61007000  1
  Ni  Ni9  1  0.25830000  0.66891000  0.41502000  1
  Ni  Ni10  1  0.31947000  0.86828000  0.39043000  1
  Ni  Ni11  1  0.48245000  0.80542000  0.41522000  1
  Ni  Ni12  1  0.10123000  0.71628000  0.38015000  1
  Ni  Ni13  1  0.35454000  0.73639000  0.13483000  1
  Ni  Ni14  1  0.16391000  0.71316000  0.16224000  1
  Ni  Ni15  1  0.18064000  0.53718000  0.12463000  1
  Ni  Ni16  1  0.35199000  0.89911000  0.18629000  1
  H  H1  1  0.69122000  0.31619000  0.86097000  1
  H  H2  1  0.74397000  0.40511000  0.96377000  1
  H  H3  1  0.67859000  0.34056000  0.69235000  1
  H  H4  1  0.63264000  0.27669000  0.58670000  1
  H  H5  1  0.05400000  0.00272000  0.71404000  1
  H  H6  1  0.05064000  0.93435000  0.84371000  1
  H  H7  1  0.35690000  0.81370000  0.44978000  1
  H  H8  1  0.24244000  0.72217000  0.35269000  1
  H  H9  1  0.20423000  0.68422000  0.09822000  1
  H  H10  1  0.30752000  0.73896000  0.19935000  1
  H  H11  1  0.95059000  0.15465000  0.21382000  1
  H  H12  1  0.84993000  0.08484000  0.33859000  1
  H  H13  1  0.98971000  0.50050000  0.22198000  1
  H  H14  1  0.12650000  0.29561000  0.26917000  1
  H  H15  1  0.81147000  0.92382000  0.20789000  1
  H  H16  1  0.59425000  0.05375000  0.16794000  1
  H  H17  1  0.18402000  0.04764000  0.18273000  1
  H  H18  1  0.94410000  0.90863000  0.27166000  1
  H  H19  1  0.56604000  0.78454000  0.30585000  1
  H  H20  1  0.66776000  0.11429000  0.29224000  1
  H  H21  1  0.91386000  0.43345000  0.37565000  1
  H  H22  1  0.08537000  0.25635000  0.33229000  1
  H  H23  1  0.98552000  0.86645000  0.38128000  1
  H  H24  1  0.13053000  0.14368000  0.31079000  1
  H  H25  1  0.07022000  0.16148000  0.71935000  1
  H  H26  1  0.74514000  0.08667000  0.73628000  1
  H  H27  1  0.23252000  0.93990000  0.72022000  1
  H  H28  1  0.39656000  0.27130000  0.73074000  1
  H  H29  1  0.08098000  0.76769000  0.73859000  1
  H  H30  1  0.80067000  0.70720000  0.66514000  1
  H  H31  1  0.07190000  0.19664000  0.80960000  1
  H  H32  1  0.85418000  0.05889000  0.90682000  1
  H  H33  1  0.42053000  0.99952000  0.83764000  1
  H  H34  1  0.19755000  0.14076000  0.84392000  1
  H  H35  1  0.74607000  0.60713000  0.81075000  1
  H  H36  1  0.07690000  0.77127000  0.82606000  1
  C  C1  1  0.60528000  0.15365000  0.96064000  1
  C  C2  1  0.87292000  0.22941000  0.89250000  1
  C  C3  1  0.48882000  0.16236000  0.87150000  1
  C  C4  1  0.81855000  0.52859000  0.85891000  1
  C  C5  1  0.55564000  0.44610000  0.95486000  1
  C  C6  1  0.92867000  0.54433000  0.94853000  1
  C  C7  1  0.87092000  0.45230000  0.60318000  1
  C  C8  1  0.80695000  0.18719000  0.67735000  1
  C  C9  1  0.83312000  0.55749000  0.67744000  1
  C  C10  1  0.47724000  0.19487000  0.68534000  1
  C  C11  1  0.55362000  0.44031000  0.58348000  1
  C  C12  1  0.50783000  0.08092000  0.60055000  1
  C  C13  1  0.05172000  0.98745000  0.74359000  1
  C  C14  1  0.04926000  0.95019000  0.81435000  1
  C  C15  1  0.00107000  0.03097000  0.76768000  1
  C  C16  1  0.00476000  0.88736000  0.75206000  1
  C  C17  1  0.14515000  0.01697000  0.76244000  1
  C  C18  1  0.00253000  0.01441000  0.80461000  1
  C  C19  1  0.00151000  0.86789000  0.78859000  1
  C  C20  1  0.14372000  0.99583000  0.79853000  1
  C  C21  1  0.45725000  0.85044000  0.34017000  1
  C  C22  1  0.40205000  0.62598000  0.45021000  1
  C  C23  1  0.48912000  0.99027000  0.42228000  1
  C  C24  1  0.10639000  0.66773000  0.45940000  1
  C  C25  1  0.16444000  0.91469000  0.37732000  1
  C  C26  1  0.09372000  0.52830000  0.37816000  1
  C  C27  1  0.16351000  0.55219000  0.20363000  1
  C  C28  1  0.35591000  0.59108000  0.08505000  1
  C  C29  1  0.01403000  0.57113000  0.12704000  1
  C  C30  1  0.39877000  0.91813000  0.10612000  1
  C  C31  1  0.16225000  0.87786000  0.19772000  1
  C  C32  1  0.51997000  0.87348000  0.17266000  1
  C  C33  1  0.93025000  0.13766000  0.24239000  1
  C  C34  1  0.87451000  0.09841000  0.31037000  1
  C  C35  1  0.97699000  0.08493000  0.26357000  1
  C  C36  1  0.94360000  0.21960000  0.26775000  1
  C  C37  1  0.83030000  0.07890000  0.24519000  1
  C  C38  1  0.94944000  0.06689000  0.29926000  1
  C  C39  1  0.91601000  0.19909000  0.30292000  1
  C  C40  1  0.80127000  0.05696000  0.28005000  1
  C  C41  1  0.01958000  0.45470000  0.23122000  1
  C  C42  1  0.11155000  0.47503000  0.22617000  1
  C  C43  1  0.15100000  0.41901000  0.24131000  1
  C  C44  1  0.09620000  0.33813000  0.25704000  1
  C  C45  1  0.00254000  0.31250000  0.25748000  1
  C  C46  1  0.96590000  0.37559000  0.24816000  1
  C  C47  1  0.76124000  0.95041000  0.20102000  1
  C  C48  1  0.77375000  0.03768000  0.21234000  1
  C  C49  1  0.71949000  0.07788000  0.19641000  1
  C  C50  1  0.64000000  0.02421000  0.17786000  1
  C  C51  1  0.61558000  0.93116000  0.17500000  1
  C  C52  1  0.68008000  0.89523000  0.18360000  1
  C  C53  1  0.13408000  0.01840000  0.20329000  1
  C  C54  1  0.11561000  0.93089000  0.21491000  1
  C  C55  1  0.05062000  0.89415000  0.24187000  1
  C  C56  1  0.99817000  0.94057000  0.25316000  1
  C  C57  1  0.02122000  0.03097000  0.24401000  1
  C  C58  1  0.09054000  0.06987000  0.21861000  1
  C  C59  1  0.58836000  0.85674000  0.30358000  1
  C  C60  1  0.53329000  0.90013000  0.31584000  1
  C  C61  1  0.56120000  0.99384000  0.31025000  1
  C  C62  1  0.64672000  0.04285000  0.29639000  1
  C  C63  1  0.70565000  0.00067000  0.28847000  1
  C  C64  1  0.67456000  0.90618000  0.29071000  1
  C  C65  1  0.95166000  0.39581000  0.36532000  1
  C  C66  1  0.04619000  0.43340000  0.36734000  1
  C  C67  1  0.09434000  0.38078000  0.35704000  1
  C  C68  1  0.04805000  0.29512000  0.34159000  1
  C  C69  1  0.95554000  0.26493000  0.33351000  1
  C  C70  1  0.90610000  0.31039000  0.34928000  1
  C  C71  1  0.01758000  0.92715000  0.36601000  1
  C  C72  1  0.11152000  0.96494000  0.36311000  1
  C  C73  1  0.15242000  0.04818000  0.34576000  1
  C  C74  1  0.09868000  0.08418000  0.32676000  1
  C  C75  1  0.00414000  0.04185000  0.32707000  1
  C  C76  1  0.96426000  0.96719000  0.34974000  1
  C  C77  1  0.50664000  0.05900000  0.56267000  1
  C  C78  1  0.50610000  0.04397000  0.53045000  1
  C  C79  1  0.50414000  0.02783000  0.49265000  1
  C  C80  1  0.49958000  0.01261000  0.46034000  1
  C  C81  1  0.06340000  0.62605000  0.49246000  1
  C  C82  1  0.02349000  0.58800000  0.51900000  1
  C  C83  1  0.97311000  0.54119000  0.54908000  1
  C  C84  1  0.92772000  0.50056000  0.57403000  1
  C  C85  1  0.43968000  0.58677000  0.47726000  1
  C  C86  1  0.46771000  0.55339000  0.50110000  1
  C  C87  1  0.49783000  0.51406000  0.52976000  1
  C  C88  1  0.52290000  0.48037000  0.55442000  1
  C  C89  1  0.99934000  0.14514000  0.72330000  1
  C  C90  1  0.95464000  0.08592000  0.75090000  1
  C  C91  1  0.86128000  0.06487000  0.75530000  1
  C  C92  1  0.81555000  0.10081000  0.73181000  1
  C  C93  1  0.85853000  0.15185000  0.70202000  1
  C  C94  1  0.95113000  0.17224000  0.69731000  1
  C  C95  1  0.26846000  0.01212000  0.72278000  1
  C  C96  1  0.23092000  0.06351000  0.74255000  1
  C  C97  1  0.27814000  0.15779000  0.74532000  1
  C  C98  1  0.36187000  0.19881000  0.72893000  1
  C  C99  1  0.39933000  0.14771000  0.70896000  1
  C  C100  1  0.35312000  0.05309000  0.70686000  1
  C  C101  1  0.01953000  0.75423000  0.72271000  1
  C  C102  1  0.97941000  0.81700000  0.72280000  1
  C  C103  1  0.90634000  0.80392000  0.69843000  1
  C  C104  1  0.86176000  0.72003000  0.68117000  1
  C  C105  1  0.89289000  0.65122000  0.68642000  1
  C  C106  1  0.97715000  0.67163000  0.70427000  1
  C  C107  1  0.94505000  0.55532000  0.98696000  1
  C  C108  1  0.95688000  0.56088000  0.01947000  1
  C  C109  1  0.97151000  0.56460000  0.05738000  1
  C  C110  1  0.98772000  0.56710000  0.08955000  1
  C  C111  1  0.56295000  0.10325000  0.99219000  1
  C  C112  1  0.52581000  0.06125000  0.01845000  1
  C  C113  1  0.48125000  0.01196000  0.04909000  1
  C  C114  1  0.44323000  0.96956000  0.07512000  1
  C  C115  1  0.39318000  0.55515000  0.05663000  1
  C  C116  1  0.42770000  0.52916000  0.03253000  1
  C  C117  1  0.47087000  0.50128000  0.00456000  1
  C  C118  1  0.50921000  0.47729000  0.98131000  1
  C  C119  1  0.02350000  0.16623000  0.83033000  1
  C  C120  1  0.98563000  0.07239000  0.83334000  1
  C  C121  1  0.92919000  0.03444000  0.86299000  1
  C  C122  1  0.90148000  0.08920000  0.88547000  1
  C  C123  1  0.92843000  0.18123000  0.87858000  1
  C  C124  1  0.99779000  0.22104000  0.85354000  1
  C  C125  1  0.37309000  0.03197000  0.83811000  1
  C  C126  1  0.39744000  0.11701000  0.85515000  1
  C  C127  1  0.33364000  0.15697000  0.85674000  1
  C  C128  1  0.24673000  0.11061000  0.84216000  1
  C  C129  1  0.22561000  0.02991000  0.82230000  1
  C  C130  1  0.28804000  0.98882000  0.82144000  1
  C  C131  1  0.81847000  0.64220000  0.81380000  1
  C  C132  1  0.86789000  0.60515000  0.83501000  1
  C  C133  1  0.96276000  0.65060000  0.83783000  1
  C  C134  1  0.00495000  0.73546000  0.82240000  1
  C  C135  1  0.95475000  0.77470000  0.80281000  1
  C  C136  1  0.86053000  0.72664000  0.79824000  1
  Br  Br1  1  0.84890000  0.36304000  0.26370000  1
  Br  Br2  1  0.27932000  0.45477000  0.24355000  1
  Br  Br3  1  0.65606000  0.77072000  0.17427000  1
  Br  Br4  1  0.75835000  0.20526000  0.19540000  1
  Br  Br5  1  0.13085000  0.19262000  0.20474000  1
  Br  Br6  1  0.04278000  0.78977000  0.26853000  1
  Br  Br7  1  0.74804000  0.84229000  0.27723000  1
  Br  Br8  1  0.48439000  0.05692000  0.31995000  1
  Br  Br9  1  0.77741000  0.25490000  0.35098000  1
  Br  Br10  1  0.22360000  0.42801000  0.36008000  1
  Br  Br11  1  0.83986000  0.92299000  0.36231000  1
  Br  Br12  1  0.27918000  0.11961000  0.35131000  1
  Br  Br13  1  0.01044000  0.22348000  0.65305000  1
  Br  Br14  1  0.79181000  0.98515000  0.79149000  1
  Br  Br15  1  0.40436000  0.97787000  0.68327000  1
  Br  Br16  1  0.22831000  0.23319000  0.76925000  1
  Br  Br17  1  0.03768000  0.59029000  0.70209000  1
  Br  Br18  1  0.86434000  0.89773000  0.68913000  1
  Br  Br19  1  0.06830000  0.34827000  0.85433000  1
  Br  Br20  1  0.87822000  0.90692000  0.87041000  1
  Br  Br21  1  0.25833000  0.87351000  0.79790000  1
  Br  Br22  1  0.36630000  0.27874000  0.87421000  1
  Br  Br23  1  0.78585000  0.77621000  0.77362000  1
  Br  Br24  1  0.03704000  0.59846000  0.86173000  1
  O  O1  1  0.70099000  0.29599000  0.88549000  1
  O  O2  1  0.89389000  0.31467000  0.88540000  1
  O  O3  1  0.79663000  0.18385000  0.90864000  1
  O  O4  1  0.84577000  0.46207000  0.86275000  1
  O  O5  1  0.88355000  0.58732000  0.93264000  1
  O  O6  1  0.60276000  0.11066000  0.92956000  1
  O  O7  1  0.49887000  0.20610000  0.90332000  1
  O  O8  1  0.73293000  0.41246000  0.93754000  1
  O  O9  1  0.93473000  0.47401000  0.93198000  1
  O  O10  1  0.54070000  0.36014000  0.95309000  1
  O  O11  1  0.60714000  0.50204000  0.93086000  1
  O  O12  1  0.74584000  0.52622000  0.87522000  1
  O  O13  1  0.63414000  0.24132000  0.96208000  1
  O  O14  1  0.55624000  0.14672000  0.85679000  1
  O  O15  1  0.70976000  0.33525000  0.66991000  1
  O  O16  1  0.71834000  0.15228000  0.67737000  1
  O  O17  1  0.84854000  0.26279000  0.66062000  1
  O  O18  1  0.54805000  0.17279000  0.68573000  1
  O  O19  1  0.45205000  0.11693000  0.61206000  1
  O  O20  1  0.90746000  0.44815000  0.63518000  1
  O  O21  1  0.77299000  0.54011000  0.65008000  1
  O  O22  1  0.61328000  0.28561000  0.61147000  1
  O  O23  1  0.57898000  0.08918000  0.62075000  1
  O  O24  1  0.64033000  0.46954000  0.59122000  1
  O  O25  1  0.49474000  0.38413000  0.60521000  1
  O  O26  1  0.47628000  0.26074000  0.66514000  1
  O  O27  1  0.78471000  0.40855000  0.59653000  1
  O  O28  1  0.83283000  0.49390000  0.69956000  1
  O  O29  1  0.35926000  0.79318000  0.42432000  1
  O  O30  1  0.31562000  0.60945000  0.45081000  1
  O  O31  1  0.45128000  0.66899000  0.42279000  1
  O  O32  1  0.19431000  0.70028000  0.45767000  1
  O  O33  1  0.07333000  0.58964000  0.36066000  1
  O  O34  1  0.46170000  0.78555000  0.36018000  1
  O  O35  1  0.41656000  0.98979000  0.40513000  1
  O  O36  1  0.22969000  0.74131000  0.37706000  1
  O  O37  1  0.14957000  0.54903000  0.40707000  1
  O  O38  1  0.24514000  0.92985000  0.36516000  1
  O  O39  1  0.12567000  0.84614000  0.39871000  1
  O  O40  1  0.05597000  0.66355000  0.43027000  1
  O  O41  1  0.38698000  0.87235000  0.34242000  1
  O  O42  1  0.53121000  0.94136000  0.40899000  1
  O  O43  1  0.22070000  0.66756000  0.12240000  1
  O  O44  1  0.38941000  0.67861000  0.09076000  1
  O  O45  1  0.30508000  0.53682000  0.10970000  1
  O  O46  1  0.34685000  0.83310000  0.10128000  1
  O  O47  1  0.46711000  0.88240000  0.19823000  1
  O  O48  1  0.21648000  0.54258000  0.17858000  1
  O  O49  1  0.03372000  0.64751000  0.14513000  1
  O  O50  1  0.29659000  0.76916000  0.17755000  1
  O  O51  1  0.48877000  0.81320000  0.14554000  1
  O  O52  1  0.12465000  0.78974000  0.19757000  1
  O  O53  1  0.23323000  0.91849000  0.17771000  1
  O  O54  1  0.40361000  0.95956000  0.13787000  1
  O  O55  1  0.14112000  0.62232000  0.20363000  1
  O  O56  1  0.05150000  0.51597000  0.13775000  1
