# generated using pymatgen
data_Co6H26C80(N4O7)3
_symmetry_space_group_name_H-M   'P 1'
_cell_length_a   20.18684000
_cell_length_b   21.23622000
_cell_length_c   38.75553000
_cell_angle_alpha   60.66738000
_cell_angle_beta   119.03818000
_cell_angle_gamma   133.33647000
_symmetry_Int_Tables_number   1
_chemical_formula_structural   Co6H26C80(N4O7)3
_chemical_formula_sum   'Co12 H52 C160 N24 O42'
_cell_volume   10239.02746764
_cell_formula_units_Z   2
loop_
 _symmetry_equiv_pos_site_id
 _symmetry_equiv_pos_as_xyz
  1  'x, y, z'
loop_
 _atom_site_type_symbol
 _atom_site_label
 _atom_site_symmetry_multiplicity
 _atom_site_fract_x
 _atom_site_fract_y
 _atom_site_fract_z
 _atom_site_occupancy
  Co  Co1  1  0.03959000  0.11303000  0.07463000  1
  Co  Co2  1  0.09256000  0.03519000  0.04230000  1
  Co  Co3  1  0.11332000  0.88702000  0.05135000  1
  Co  Co4  1  0.00865000  0.07725000  0.58749000  1
  Co  Co5  1  0.04376000  0.00295000  0.54477000  1
  Co  Co6  1  0.02122000  0.84481000  0.53419000  1
  Co  Co7  1  0.02699000  0.87111000  0.10883000  1
  Co  Co8  1  0.95429000  0.93863000  0.13431000  1
  Co  Co9  1  0.93217000  0.08264000  0.12804000  1
  Co  Co10  1  0.93278000  0.82040000  0.59396000  1
  Co  Co11  1  0.90624000  0.89523000  0.63964000  1
  Co  Co12  1  0.93346000  0.04778000  0.65603000  1
  H  H1  1  0.19678000  0.55785000  0.16080000  1
  H  H2  1  0.11454000  0.49041000  0.64498000  1
  H  H3  1  0.15426000  0.06991000  0.93860000  1
  H  H4  1  0.16664000  0.04964000  0.88524000  1
  H  H5  1  0.13373000  0.07261000  0.81481000  1
  H  H6  1  0.12718000  0.05088000  0.75623000  1
  H  H7  1  0.10308000  0.14443000  0.28938000  1
  H  H8  1  0.10416000  0.12392000  0.23258000  1
  H  H9  1  0.14761000  0.13011000  0.42258000  1
  H  H10  1  0.15357000  0.12326000  0.36272000  1
  H  H11  1  0.25046000  0.38474000  0.71833000  1
  H  H12  1  0.22790000  0.27210000  0.20257000  1
  H  H13  1  0.10521000  0.67973000  0.18106000  1
  H  H14  1  0.12700000  0.31226000  0.58671000  1
  H  H15  1  0.29949000  0.78103000  0.64717000  1
  H  H16  1  0.22298000  0.52461000  0.09476000  1
  H  H17  1  0.33025000  0.24803000  0.98042000  1
  H  H18  1  0.97267000  0.57009000  0.66250000  1
  H  H19  1  0.37038000  0.13759000  0.58974000  1
  H  H20  1  0.87553000  0.43497000  0.02352000  1
  H  H21  1  0.63370000  0.41645000  0.00184000  1
  H  H22  1  0.60323000  0.23947000  0.96240000  1
  H  H23  1  0.56379000  0.15369000  0.51003000  1
  H  H24  1  0.54905000  0.36003000  0.49174000  1
  H  H25  1  0.81340000  0.42390000  0.50648000  1
  H  H26  1  0.43105000  0.57314000  0.17442000  1
  H  H27  1  0.47807000  0.75526000  0.21649000  1
  H  H28  1  0.37973000  0.56313000  0.65545000  1
  H  H29  1  0.37292000  0.71497000  0.69460000  1
  H  H30  1  0.86653000  0.85336000  0.85720000  1
  H  H31  1  0.85768000  0.86186000  0.91594000  1
  H  H32  1  0.90651000  0.77175000  0.78794000  1
  H  H33  1  0.92417000  0.78920000  0.85102000  1
  H  H34  1  0.91886000  0.83868000  0.27526000  1
  H  H35  1  0.92669000  0.85835000  0.33523000  1
  H  H36  1  0.85628000  0.91439000  0.34162000  1
  H  H37  1  0.85323000  0.91493000  0.40442000  1
  H  H38  1  0.44635000  0.80120000  0.61396000  1
  H  H39  1  0.69523000  0.75691000  0.70691000  1
  H  H40  1  0.62504000  0.69293000  0.22327000  1
  H  H41  1  0.61249000  0.89487000  0.08565000  1
  H  H42  1  0.42876000  0.84204000  0.17331000  1
  H  H43  1  0.80016000  0.31987000  0.46772000  1
  H  H44  1  0.79195000  0.10791000  0.60377000  1
  H  H45  1  0.82236000  0.57242000  0.58583000  1
  H  H46  1  0.67349000  0.53636000  0.44424000  1
  H  H47  1  0.38820000  0.10711000  0.47565000  1
  H  H48  1  0.66203000  0.15503000  0.01043000  1
  H  H49  1  0.97743000  0.33834000  0.98702000  1
  H  H50  1  0.83028000  0.43927000  0.08993000  1
  H  H51  1  0.84550000  0.71222000  0.99968000  1
  H  H52  1  0.52985000  0.14880000  0.02794000  1
  C  C1  1  0.25978000  0.08290000  0.02988000  1
  C  C2  1  0.12961000  0.23586000  0.12915000  1
  C  C3  1  0.19118000  0.85622000  0.14018000  1
  C  C4  1  0.20545000  0.00472000  0.55651000  1
  C  C5  1  0.12974000  0.18160000  0.65307000  1
  C  C6  1  0.03161000  0.74145000  0.62060000  1
  C  C7  1  0.09832000  0.01099000  0.89049000  1
  C  C8  1  0.09144000  0.02175000  0.92126000  1
  C  C9  1  0.02521000  0.93326000  0.83610000  1
  C  C10  1  0.08661000  0.00594000  0.81032000  1
  C  C11  1  0.08255000  0.99368000  0.77677000  1
  C  C12  1  0.01213000  0.00292000  0.31581000  1
  C  C13  1  0.06523000  0.07741000  0.28739000  1
  C  C14  1  0.06598000  0.06575000  0.25503000  1
  C  C15  1  0.00906000  0.98005000  0.24898000  1
  C  C16  1  0.08336000  0.08414000  0.40454000  1
  C  C17  1  0.08698000  0.07971000  0.37064000  1
  C  C18  1  0.17531000  0.27447000  0.65185000  1
  C  C19  1  0.22123000  0.36769000  0.68966000  1
  C  C20  1  0.21485000  0.29862000  0.68869000  1
  C  C21  1  0.25381000  0.25596000  0.72525000  1
  C  C22  1  0.18582000  0.76643000  0.64995000  1
  C  C23  1  0.08962000  0.70852000  0.64832000  1
  C  C24  1  0.04580000  0.61588000  0.66139000  1
  C  C25  1  0.09551000  0.58217000  0.67191000  1
  C  C26  1  0.05723000  0.48999000  0.69390000  1
  C  C27  1  0.19231000  0.32417000  0.13789000  1
  C  C28  1  0.22475000  0.32617000  0.17887000  1
  C  C29  1  0.24268000  0.39136000  0.18962000  1
  C  C30  1  0.26231000  0.38401000  0.23207000  1
  C  C31  1  0.23459000  0.80859000  0.16838000  1
  C  C32  1  0.17713000  0.71478000  0.18116000  1
  C  C33  1  0.21132000  0.66597000  0.19235000  1
  C  C34  1  0.15861000  0.57227000  0.21267000  1
  C  C35  1  0.33250000  0.66161000  0.18962000  1
  C  C36  1  0.27064000  0.58626000  0.17298000  1
  C  C37  1  0.30674000  0.55073000  0.17060000  1
  C  C38  1  0.23688000  0.60799000  0.66875000  1
  C  C39  1  0.19006000  0.53196000  0.65533000  1
  C  C40  1  0.24284000  0.51205000  0.65420000  1
  C  C41  1  0.15561000  0.32898000  0.61539000  1
  C  C42  1  0.16646000  0.40131000  0.61609000  1
  C  C43  1  0.20046000  0.42163000  0.65346000  1
  C  C44  1  0.18577000  0.64105000  0.66407000  1
  C  C45  1  0.23018000  0.73395000  0.65301000  1
  C  C46  1  0.24054000  0.85792000  0.65088000  1
  C  C47  1  0.24520000  0.46523000  0.15943000  1
  C  C48  1  0.21840000  0.46672000  0.11823000  1
  C  C49  1  0.19297000  0.39717000  0.10735000  1
  C  C50  1  0.17266000  0.40370000  0.06501000  1
  C  C51  1  0.30030000  0.71103000  0.18657000  1
  C  C52  1  0.32960000  0.85281000  0.17211000  1
  C  C53  1  0.29476000  0.06333000  0.54487000  1
  C  C54  1  0.30187000  0.05129000  0.51421000  1
  C  C55  1  0.22724000  0.97314000  0.49805000  1
  C  C56  1  0.35263000  0.14635000  0.02075000  1
  C  C57  1  0.01141000  0.98826000  0.46342000  1
  C  C58  1  0.00620000  0.01529000  0.34884000  1
  C  C59  1  0.00117000  0.01985000  0.41903000  1
  C  C60  1  0.14159000  0.45367000  0.57843000  1
  C  C61  1  0.01784000  0.94785000  0.86791000  1
  C  C62  1  0.33982000  0.57427000  0.66002000  1
  C  C63  1  0.33548000  0.66082000  0.68121000  1
  C  C64  1  0.01051000  0.91177000  0.76590000  1
  C  C65  1  0.00780000  0.94403000  0.97504000  1
  C  C66  1  0.00592000  0.96436000  0.93243000  1
  C  C67  1  0.35979000  0.80533000  0.17733000  1
  C  C68  1  0.37832000  0.02760000  0.05734000  1
  C  C69  1  0.37502000  0.22735000  0.99148000  1
  C  C70  1  0.39582000  0.94781000  0.16894000  1
  C  C71  1  0.97315000  0.97139000  0.20695000  1
  C  C72  1  0.96385000  0.91448000  0.72244000  1
  C  C73  1  0.74490000  0.33360000  0.99181000  1
  C  C74  1  0.80188000  0.40638000  0.00964000  1
  C  C75  1  0.76149000  0.43978000  0.01041000  1
  C  C76  1  0.66485000  0.39573000  0.99741000  1
  C  C77  1  0.60731000  0.31886000  0.98377000  1
  C  C78  1  0.64805000  0.29449000  0.97645000  1
  C  C79  1  0.69383000  0.28616000  0.50668000  1
  C  C80  1  0.59736000  0.22384000  0.50513000  1
  C  C81  1  0.54837000  0.24957000  0.50403000  1
  C  C82  1  0.58930000  0.33995000  0.49510000  1
  C  C83  1  0.68581000  0.40235000  0.49850000  1
  C  C84  1  0.73809000  0.37627000  0.50286000  1
  C  C85  1  0.40328000  0.59598000  0.17979000  1
  C  C86  1  0.46377000  0.67674000  0.19030000  1
  C  C87  1  0.42917000  0.70001000  0.20222000  1
  C  C88  1  0.38603000  0.64938000  0.67273000  1
  C  C89  1  0.94210000  0.72185000  0.07759000  1
  C  C90  1  0.76875000  0.90477000  0.11518000  1
  C  C91  1  0.91618000  0.17198000  0.03995000  1
  C  C92  1  0.82087000  0.71189000  0.52995000  1
  C  C93  1  0.74382000  0.88411000  0.63848000  1
  C  C94  1  0.91602000  0.15763000  0.57138000  1
  C  C95  1  0.93010000  0.89881000  0.87560000  1
  C  C96  1  0.92450000  0.90586000  0.90812000  1
  C  C97  1  0.95933000  0.83669000  0.79475000  1
  C  C98  1  0.96694000  0.84723000  0.82987000  1
  C  C99  1  0.96441000  0.91665000  0.31259000  1
  C  C100  1  0.96221000  0.90536000  0.27913000  1
  C  C101  1  0.92036000  0.96096000  0.35941000  1
  C  C102  1  0.91799000  0.96323000  0.39440000  1
  C  C103  1  0.48379000  0.72284000  0.67000000  1
  C  C104  1  0.50130000  0.79252000  0.63452000  1
  C  C105  1  0.58526000  0.84466000  0.62335000  1
  C  C106  1  0.65451000  0.82983000  0.64902000  1
  C  C107  1  0.64037000  0.76573000  0.68635000  1
  C  C108  1  0.55563000  0.71260000  0.69707000  1
  C  C109  1  0.54169000  0.64596000  0.73537000  1
  C  C110  1  0.59686000  0.90856000  0.58421000  1
  C  C111  1  0.54957000  0.74660000  0.17504000  1
  C  C112  1  0.62354000  0.73852000  0.19357000  1
  C  C113  1  0.69073000  0.78270000  0.17256000  1
  C  C114  1  0.68743000  0.84032000  0.13339000  1
  C  C115  1  0.61483000  0.85006000  0.11545000  1
  C  C116  1  0.54661000  0.80435000  0.13594000  1
  C  C117  1  0.47014000  0.81263000  0.11547000  1
  C  C118  1  0.76057000  0.76597000  0.19087000  1
  C  C119  1  0.75075000  0.25300000  0.52245000  1
  C  C120  1  0.79990000  0.27475000  0.49771000  1
  C  C121  1  0.84972000  0.23914000  0.51189000  1
  C  C122  1  0.84702000  0.17835000  0.55049000  1
  C  C123  1  0.79350000  0.15359000  0.57392000  1
  C  C124  1  0.75046000  0.19416000  0.56132000  1
  C  C125  1  0.70964000  0.17813000  0.58930000  1
  C  C126  1  0.90518000  0.26730000  0.48723000  1
  C  C127  1  0.76779000  0.62332000  0.52408000  1
  C  C128  1  0.78884000  0.56396000  0.55499000  1
  C  C129  1  0.77609000  0.49992000  0.54561000  1
  C  C130  1  0.73254000  0.48839000  0.50554000  1
  C  C131  1  0.70860000  0.54591000  0.47491000  1
  C  C132  1  0.72278000  0.61077000  0.48425000  1
  C  C133  1  0.69237000  0.66558000  0.45256000  1
  C  C134  1  0.80959000  0.44748000  0.57712000  1
  C  C135  1  0.37412000  0.13107000  0.56477000  1
  C  C136  1  0.45917000  0.18815000  0.55371000  1
  C  C137  1  0.46301000  0.18260000  0.51983000  1
  C  C138  1  0.38447000  0.11341000  0.50070000  1
  C  C139  1  0.54280000  0.24893000  0.57845000  1
  C  C140  1  0.78317000  0.29014000  0.99401000  1
  C  C141  1  0.73043000  0.19603000  0.00461000  1
  C  C142  1  0.76604000  0.15464000  0.00779000  1
  C  C143  1  0.86040000  0.20554000  0.00770000  1
  C  C144  1  0.90799000  0.29850000  0.99142000  1
  C  C145  1  0.86940000  0.34103000  0.98400000  1
  C  C146  1  0.91629000  0.43520000  0.96440000  1
  C  C147  1  0.70534000  0.06013000  0.01080000  1
  C  C148  1  0.81784000  0.51665000  0.02791000  1
  C  C149  1  0.83770000  0.50079000  0.07025000  1
  C  C150  1  0.86167000  0.56128000  0.08716000  1
  C  C151  1  0.87017000  0.64102000  0.06185000  1
  C  C152  1  0.84272000  0.65294000  0.01950000  1
  C  C153  1  0.82287000  0.59484000  0.00257000  1
  C  C154  1  0.80692000  0.61551000  0.95900000  1
  C  C155  1  0.88165000  0.54305000  0.13082000  1
  C  C156  1  0.50991000  0.25226000  0.98883000  1
  C  C157  1  0.48554000  0.16997000  0.01695000  1
  C  C158  1  0.40682000  0.11630000  0.03227000  1
  C  C159  1  0.45043000  0.27807000  0.97406000  1
  C  C160  1  0.46510000  0.35515000  0.94041000  1
  N  N1  1  0.02647000  0.41609000  0.71156000  1
  N  N2  1  0.27799000  0.37812000  0.26606000  1
  N  N3  1  0.11631000  0.49717000  0.22898000  1
  N  N4  1  0.16811000  0.91053000  0.48507000  1
  N  N5  1  0.28479000  0.93117000  0.65194000  1
  N  N6  1  0.15698000  0.40925000  0.03108000  1
  N  N7  1  0.35616000  0.95646000  0.07696000  1
  N  N8  1  0.12154000  0.49557000  0.54823000  1
  N  N9  1  0.28560000  0.22235000  0.75458000  1
  N  N10  1  0.94967000  0.28993000  0.46747000  1
  N  N11  1  0.44884000  0.02392000  0.16638000  1
  N  N12  1  0.53043000  0.59251000  0.76604000  1
  N  N13  1  0.60588000  0.95952000  0.55281000  1
  N  N14  1  0.40889000  0.81921000  0.09894000  1
  N  N15  1  0.81618000  0.75212000  0.20559000  1
  N  N16  1  0.67695000  0.16532000  0.61168000  1
  N  N17  1  0.66809000  0.70953000  0.42718000  1
  N  N18  1  0.83657000  0.40560000  0.60235000  1
  N  N19  1  0.60944000  0.29733000  0.59847000  1
  N  N20  1  0.95389000  0.51070000  0.94868000  1
  N  N21  1  0.65658000  0.98443000  0.01282000  1
  N  N22  1  0.79418000  0.63212000  0.92410000  1
  N  N23  1  0.89770000  0.52846000  0.16581000  1
  N  N24  1  0.47693000  0.41695000  0.91346000  1
  O  O1  1  0.09399000  0.14026000  0.03235000  1
  O  O2  1  0.21473000  0.90757000  0.10490000  1
  O  O3  1  0.12560000  0.84239000  0.14952000  1
  O  O4  1  0.07046000  0.16800000  0.15259000  1
  O  O5  1  0.13769000  0.22491000  0.10030000  1
  O  O6  1  0.08063000  0.93781000  0.07030000  1
  O  O7  1  0.19978000  0.01033000  0.01702000  1
  O  O8  1  0.23229000  0.10637000  0.04343000  1
  O  O9  1  0.06852000  0.11300000  0.54544000  1
  O  O10  1  0.02894000  0.79024000  0.63091000  1
  O  O11  1  0.07548000  0.11629000  0.67854000  1
  O  O12  1  0.12984000  0.16461000  0.62424000  1
  O  O13  1  0.15875000  0.91793000  0.56426000  1
  O  O14  1  0.17977000  0.03883000  0.56442000  1
  O  O15  1  0.05686000  0.00252000  0.09877000  1
  O  O16  1  0.05715000  0.95295000  0.48439000  1
  O  O17  1  0.02928000  0.75779000  0.08268000  1
  O  O18  1  0.00554000  0.95218000  0.19382000  1
  O  O19  1  0.01027000  0.99542000  0.98684000  1
  O  O20  1  0.00513000  0.87310000  0.00077000  1
  O  O21  1  0.99524000  0.01355000  0.48192000  1
  O  O22  1  0.99403000  0.73323000  0.58313000  1
  O  O23  1  0.99201000  0.89224000  0.55729000  1
  O  O24  1  0.98516000  0.90350000  0.69943000  1
  O  O25  1  0.91006000  0.98581000  0.18232000  1
  O  O26  1  0.90865000  0.93915000  0.70565000  1
  O  O27  1  0.98302000  0.04355000  0.11235000  1
  O  O28  1  0.95797000  0.83642000  0.14628000  1
  O  O29  1  0.79986000  0.98924000  0.10099000  1
  O  O30  1  0.81027000  0.87805000  0.11353000  1
  O  O31  1  0.94805000  0.18502000  0.07587000  1
  O  O32  1  0.93163000  0.12735000  0.03370000  1
  O  O33  1  0.92108000  0.76602000  0.08014000  1
  O  O34  1  0.94687000  0.00325000  0.62374000  1
  O  O35  1  0.87874000  0.78508000  0.63796000  1
  O  O36  1  0.94404000  0.94331000  0.58107000  1
  O  O37  1  0.79308000  0.97183000  0.62933000  1
  O  O38  1  0.77115000  0.84324000  0.63727000  1
  O  O39  1  0.95812000  0.16151000  0.60938000  1
  O  O40  1  0.92688000  0.12536000  0.55426000  1
  O  O41  1  0.88139000  0.78045000  0.50747000  1
  O  O42  1  0.82135000  0.71891000  0.56257000  1
