# generated using pymatgen
data_Zn7H54C92I12(NO10)2
_symmetry_space_group_name_H-M   'P 1'
_cell_length_a   24.70751000
_cell_length_b   22.30773000
_cell_length_c   31.78092000
_cell_angle_alpha   104.03488000
_cell_angle_beta   115.93962000
_cell_angle_gamma   111.52022000
_symmetry_Int_Tables_number   1
_chemical_formula_structural   Zn7H54C92I12(NO10)2
_chemical_formula_sum   'Zn14 H108 C184 I24 N4 O40'
_cell_volume   12841.70646612
_cell_formula_units_Z   2
loop_
 _symmetry_equiv_pos_site_id
 _symmetry_equiv_pos_as_xyz
  1  'x, y, z'
loop_
 _atom_site_type_symbol
 _atom_site_label
 _atom_site_symmetry_multiplicity
 _atom_site_fract_x
 _atom_site_fract_y
 _atom_site_fract_z
 _atom_site_occupancy
  Zn  Zn1  1  0.00698000  0.07480000  0.87064000  1
  Zn  Zn2  1  0.93873000  0.01146000  0.00314000  1
  Zn  Zn3  1  0.07656000  0.10296000  0.39417000  1
  Zn  Zn4  1  0.01205000  0.07172000  0.53417000  1
  Zn  Zn5  1  0.03509000  0.01864000  0.44649000  1
  Zn  Zn6  1  0.97841000  0.98276000  0.92237000  1
  Zn  Zn7  1  0.12450000  0.14227000  0.98533000  1
  Zn  Zn8  1  0.19136000  0.17099000  0.51305000  1
  Zn  Zn9  1  0.83242000  0.83308000  0.87215000  1
  Zn  Zn10  1  0.95567000  0.89102000  0.97599000  1
  Zn  Zn11  1  0.00121000  0.92578000  0.83680000  1
  Zn  Zn12  1  0.88157000  0.88824000  0.40242000  1
  Zn  Zn13  1  0.00752000  0.93583000  0.50358000  1
  Zn  Zn14  1  0.03604000  0.94064000  0.35205000  1
  H  H1  1  0.04969000  0.02505000  0.02062000  1
  H  H2  1  0.11154000  0.06213000  0.54445000  1
  H  H3  1  0.93368000  0.00718000  0.61464000  1
  H  H4  1  0.87745000  0.95478000  0.69793000  1
  H  H5  1  0.11480000  0.01839000  0.17425000  1
  H  H6  1  0.17893000  0.08507000  0.31652000  1
  H  H7  1  0.29675000  0.06629000  0.33107000  1
  H  H8  1  0.25446000  0.03788000  0.36314000  1
  H  H9  1  0.20434000  0.09224000  0.27282000  1
  H  H10  1  0.72728000  0.08003000  0.36043000  1
  H  H11  1  0.64584000  0.01195000  0.85473000  1
  H  H12  1  0.22302000  0.06054000  0.88145000  1
  H  H13  1  0.84804000  0.94519000  0.63354000  1
  H  H14  1  0.85822000  0.01637000  0.05213000  1
  H  H15  1  0.85246000  0.00000000  0.14428000  1
  H  H16  1  0.78185000  0.94185000  0.07453000  1
  H  H17  1  0.92919000  0.07698000  0.12299000  1
  H  H18  1  0.84483000  0.07034000  0.09414000  1
  H  H19  1  0.78321000  0.54685000  0.01098000  1
  H  H20  1  0.73717000  0.44760000  0.03133000  1
  H  H21  1  0.61859000  0.28766000  0.86651000  1
  H  H22  1  0.67002000  0.38575000  0.84767000  1
  H  H23  1  0.51008000  0.20590000  0.01560000  1
  H  H24  1  0.62260000  0.24979000  0.02274000  1
  H  H25  1  0.53355000  0.29096000  0.89042000  1
  H  H26  1  0.42316000  0.25100000  0.88554000  1
  H  H27  1  0.80655000  0.22178000  0.99286000  1
  H  H28  1  0.77122000  0.30300000  0.02421000  1
  H  H29  1  0.56801000  0.17654000  0.87015000  1
  H  H30  1  0.60773000  0.10267000  0.83626000  1
  H  H31  1  0.87406000  0.57201000  0.53323000  1
  H  H32  1  0.84038000  0.46607000  0.54966000  1
  H  H33  1  0.62184000  0.35912000  0.41445000  1
  H  H34  1  0.65489000  0.46684000  0.39991000  1
  H  H35  1  0.47504000  0.15817000  0.40522000  1
  H  H36  1  0.58460000  0.21452000  0.40907000  1
  H  H37  1  0.69038000  0.39623000  0.56298000  1
  H  H38  1  0.57878000  0.34226000  0.55703000  1
  H  H39  1  0.81622000  0.20816000  0.50465000  1
  H  H40  1  0.76958000  0.27487000  0.53603000  1
  H  H41  1  0.68445000  0.29337000  0.39240000  1
  H  H42  1  0.73496000  0.23066000  0.36270000  1
  H  H43  1  0.21065000  0.51234000  0.89397000  1
  H  H44  1  0.37237000  0.55854000  0.04877000  1
  H  H45  1  0.38436000  0.59778000  0.57731000  1
  H  H46  1  0.34101000  0.53123000  0.42126000  1
  H  H47  1  0.89149000  0.07734000  0.66560000  1
  H  H48  1  0.92954000  0.09444000  0.73340000  1
  H  H49  1  0.76917000  0.99317000  0.63946000  1
  H  H50  1  0.81278000  0.08331000  0.69299000  1
  H  H51  1  0.80681000  0.00856000  0.70729000  1
  H  H52  1  0.32576000  0.33021000  0.48219000  1
  H  H53  1  0.22041000  0.48201000  0.46355000  1
  H  H54  1  0.19125000  0.48592000  0.99398000  1
  H  H55  1  0.20009000  0.27691000  0.90492000  1
  H  H56  1  0.99277000  0.23816000  0.47731000  1
  H  H57  1  0.28954000  0.19240000  0.41822000  1
  H  H58  1  0.49578000  0.18311000  0.53774000  1
  H  H59  1  0.89887000  0.15503000  0.91722000  1
  H  H60  1  0.86355000  0.54936000  0.95494000  1
  H  H61  1  0.44358000  0.30943000  0.01460000  1
  H  H62  1  0.21307000  0.99158000  0.93221000  1
  H  H63  1  0.26388000  0.97493000  0.32363000  1
  H  H64  1  0.17846000  0.96671000  0.24126000  1
  H  H65  1  0.28523000  0.63915000  0.91436000  1
  H  H66  1  0.44697000  0.68622000  0.06967000  1
  H  H67  1  0.47999000  0.71655000  0.89406000  1
  H  H68  1  0.39010000  0.68247000  0.91345000  1
  H  H69  1  0.54848000  0.86340000  0.07393000  1
  H  H70  1  0.63837000  0.89763000  0.05431000  1
  H  H71  1  0.35105000  0.89464000  0.08105000  1
  H  H72  1  0.41319000  0.82857000  0.08702000  1
  H  H73  1  0.33266000  0.75743000  0.92176000  1
  H  H74  1  0.26322000  0.81518000  0.91388000  1
  H  H75  1  0.45217000  0.72816000  0.60078000  1
  H  H76  1  0.40956000  0.66141000  0.44487000  1
  H  H77  1  0.54943000  0.84089000  0.43673000  1
  H  H78  1  0.45627000  0.79796000  0.45226000  1
  H  H79  1  0.60496000  0.81235000  0.59815000  1
  H  H80  1  0.69713000  0.85190000  0.58100000  1
  H  H81  1  0.42814000  0.96182000  0.58371000  1
  H  H82  1  0.50459000  0.91107000  0.60125000  1
  H  H83  1  0.33902000  0.71853000  0.44674000  1
  H  H84  1  0.26207000  0.76785000  0.43043000  1
  H  H85  1  0.90572000  0.94365000  0.82578000  1
  H  H86  1  0.95927000  0.98511000  0.35078000  1
  H  H87  1  0.12673000  0.04199000  0.78160000  1
  H  H88  1  0.15444000  0.95657000  0.73925000  1
  H  H89  1  0.21078000  0.97584000  0.71680000  1
  H  H90  1  0.16679000  0.04797000  0.68058000  1
  H  H91  1  0.10354000  0.90636000  0.62209000  1
  H  H92  1  0.10215000  0.85049000  0.65446000  1
  H  H93  1  0.04536000  0.88595000  0.64379000  1
  H  H94  1  0.20669000  0.08393000  0.74986000  1
  H  H95  1  0.92372000  0.96501000  0.20299000  1
  H  H96  1  0.13855000  0.94693000  0.27583000  1
  H  H97  1  0.86223000  0.90820000  0.06067000  1
  H  H98  1  0.83854000  0.87745000  0.09980000  1
  H  H99  1  0.73553000  0.98866000  0.54905000  1
  H  H100  1  0.73543000  0.80493000  0.42402000  1
  H  H101  1  0.26405000  0.86931000  0.54630000  1
  H  H102  1  0.22047000  0.96381000  0.41629000  1
  H  H103  1  0.63816000  0.74360000  0.98191000  1
  H  H104  1  0.71529000  0.93637000  0.93168000  1
  H  H105  1  0.21124000  0.84194000  0.02513000  1
  H  H106  1  0.83293000  0.64958000  0.38043000  1
  H  H107  1  0.79631000  0.65771000  0.52294000  1
  H  H108  1  0.70915000  0.62857000  0.85667000  1
  C  C1  1  0.85468000  0.02391000  0.91653000  1
  C  C2  1  0.93873000  0.09501000  0.45121000  1
  C  C3  1  0.96301000  0.00560000  0.68877000  1
  C  C4  1  0.97508000  0.01302000  0.65060000  1
  C  C5  1  0.89017000  0.98453000  0.67688000  1
  C  C6  1  0.09020000  0.02187000  0.23182000  1
  C  C7  1  0.07318000  0.00700000  0.18058000  1
  C  C8  1  0.16662000  0.05283000  0.27732000  1
  C  C9  1  0.90040000  0.12690000  0.42592000  1
  C  C10  1  0.82547000  0.08323000  0.38786000  1
  C  C11  1  0.78526000  0.11457000  0.38594000  1
  C  C12  1  0.81009000  0.04922000  0.88940000  1
  C  C13  1  0.73595000  0.00745000  0.86454000  1
  C  C14  1  0.70095000  0.04335000  0.86815000  1
  C  C15  1  0.00880000  0.00881000  0.77822000  1
  C  C16  1  0.01879000  0.01727000  0.73701000  1
  C  C17  1  0.87044000  0.03885000  0.09261000  1
  C  C18  1  0.27142000  0.11451000  0.91104000  1
  C  C19  1  0.04617000  0.02674000  0.61416000  1
  C  C20  1  0.03558000  0.00687000  0.23977000  1
  C  C21  1  0.84105000  0.97659000  0.10413000  1
  C  C22  1  0.05013000  0.01940000  0.29217000  1
  C  C23  1  0.26946000  0.13741000  0.47981000  1
  C  C24  1  0.99004000  0.97514000  0.08701000  1
  C  C25  1  0.00342000  0.97976000  0.13790000  1
  C  C26  1  0.33179000  0.13429000  0.91074000  1
  C  C27  1  0.20739000  0.14340000  0.94633000  1
  C  C28  1  0.33217000  0.16182000  0.47865000  1
  C  C29  1  0.39096000  0.15988000  0.51292000  1
  C  C30  1  0.27290000  0.16428000  0.94897000  1
  C  C31  1  0.72985000  0.47286000  0.92798000  1
  C  C32  1  0.74818000  0.49010000  0.97967000  1
  C  C33  1  0.72169000  0.43405000  0.99110000  1
  C  C34  1  0.67624000  0.36048000  0.95095000  1
  C  C35  1  0.65637000  0.34358000  0.89867000  1
  C  C36  1  0.68451000  0.39941000  0.88772000  1
  C  C37  1  0.45930000  0.22580000  0.95025000  1
  C  C38  1  0.51543000  0.22489000  0.98850000  1
  C  C39  1  0.57899000  0.24953000  0.99245000  1
  C  C40  1  0.58699000  0.27486000  0.95797000  1
  C  C41  1  0.52961000  0.27385000  0.91851000  1
  C  C42  1  0.46651000  0.25031000  0.91527000  1
  C  C43  1  0.71174000  0.16023000  0.91141000  1
  C  C44  1  0.75539000  0.21334000  0.96547000  1
  C  C45  1  0.73498000  0.25847000  0.98351000  1
  C  C46  1  0.66919000  0.24824000  0.94852000  1
  C  C47  1  0.62088000  0.18781000  0.89657000  1
  C  C48  1  0.64309000  0.14554000  0.87751000  1
  C  C49  1  0.76693000  0.52605000  0.46503000  1
  C  C50  1  0.81886000  0.52588000  0.50759000  1
  C  C51  1  0.79982000  0.46616000  0.51704000  1
  C  C52  1  0.72898000  0.40557000  0.48363000  1
  C  C53  1  0.67658000  0.40603000  0.44114000  1
  C  C54  1  0.69546000  0.46660000  0.43245000  1
  C  C55  1  0.51943000  0.24675000  0.48067000  1
  C  C56  1  0.52191000  0.21025000  0.43955000  1
  C  C57  1  0.58439000  0.24175000  0.44212000  1
  C  C58  1  0.64600000  0.30892000  0.48708000  1
  C  C59  1  0.64338000  0.34454000  0.52838000  1
  C  C60  1  0.58034000  0.31389000  0.52507000  1
  C  C61  1  0.78085000  0.21730000  0.43249000  1
  C  C62  1  0.78752000  0.22684000  0.48015000  1
  C  C63  1  0.76102000  0.26439000  0.49786000  1
  C  C64  1  0.72713000  0.29216000  0.46795000  1
  C  C65  1  0.71442000  0.27632000  0.41756000  1
  C  C66  1  0.74193000  0.23964000  0.40026000  1
  C  C67  1  0.28629000  0.52686000  0.97005000  1
  C  C68  1  0.26232000  0.55005000  0.93223000  1
  C  C69  1  0.35341000  0.57603000  0.01936000  1
  C  C70  1  0.35801000  0.55568000  0.49768000  1
  C  C71  1  0.38998000  0.61156000  0.54842000  1
  C  C72  1  0.36565000  0.57407000  0.46057000  1
  C  C73  1  0.11539000  0.23957000  0.93773000  1
  C  C74  1  0.19504000  0.26420000  0.46148000  1
  C  C75  1  0.88557000  0.05254000  0.69096000  1
  C  C76  1  0.81404000  0.03288000  0.68206000  1
  C  C77  1  0.31387000  0.47799000  0.48273000  1
  C  C78  1  0.34320000  0.43436000  0.48712000  1
  C  C79  1  0.30258000  0.36311000  0.47774000  1
  C  C80  1  0.23304000  0.33504000  0.46435000  1
  C  C81  1  0.20289000  0.37769000  0.45829000  1
  C  C82  1  0.24330000  0.44878000  0.46732000  1
  C  C83  1  0.15309000  0.31118000  0.94118000  1
  C  C84  1  0.15027000  0.37040000  0.96603000  1
  C  C85  1  0.19340000  0.44042000  0.97471000  1
  C  C86  1  0.23967000  0.45207000  0.95899000  1
  C  C87  1  0.24150000  0.39252000  0.93324000  1
  C  C88  1  0.19761000  0.32232000  0.92389000  1
  C  C89  1  0.81994000  0.18985000  0.41913000  1
  C  C90  1  0.89475000  0.23536000  0.44778000  1
  C  C91  1  0.93479000  0.20362000  0.45110000  1
  C  C92  1  0.78727000  0.58981000  0.45595000  1
  C  C93  1  0.79698000  0.58737000  0.41519000  1
  C  C94  1  0.45340000  0.21438000  0.47771000  1
  C  C95  1  0.39491000  0.21711000  0.44393000  1
  C  C96  1  0.33441000  0.19005000  0.44414000  1
  C  C97  1  0.45067000  0.18492000  0.51156000  1
  C  C98  1  0.73815000  0.12018000  0.89073000  1
  C  C99  1  0.80640000  0.15872000  0.90153000  1
  C  C100  1  0.84321000  0.12356000  0.90261000  1
  C  C101  1  0.75822000  0.53180000  0.91608000  1
  C  C102  1  0.33504000  0.23561000  0.98587000  1
  C  C103  1  0.39567000  0.25484000  0.98598000  1
  C  C104  1  0.39445000  0.20459000  0.94868000  1
  C  C105  1  0.83035000  0.56797000  0.93478000  1
  C  C106  1  0.03824000  0.02373000  0.65688000  1
  C  C107  1  0.94882000  0.96472000  0.14601000  1
  C  C108  1  0.96569000  0.97832000  0.19694000  1
  C  C109  1  0.87101000  0.92767000  0.09987000  1
  C  C110  1  0.71389000  0.55257000  0.88644000  1
  C  C111  1  0.25356000  0.01969000  0.32694000  1
  C  C112  1  0.18051000  0.99114000  0.27728000  1
  C  C113  1  0.30462000  0.62224000  0.94392000  1
  C  C114  1  0.37140000  0.67226000  0.99394000  1
  C  C115  1  0.39577000  0.64828000  0.03114000  1
  C  C116  1  0.56526000  0.80968000  0.97279000  1
  C  C117  1  0.49492000  0.74900000  0.93321000  1
  C  C118  1  0.44407000  0.72911000  0.94443000  1
  C  C119  1  0.46337000  0.76981000  0.99562000  1
  C  C120  1  0.53326000  0.83146000  0.03459000  1
  C  C121  1  0.58405000  0.85108000  0.02338000  1
  C  C122  1  0.30319000  0.86007000  0.99716000  1
  C  C123  1  0.34587000  0.86366000  0.04597000  1
  C  C124  1  0.38129000  0.82648000  0.04943000  1
  C  C125  1  0.37596000  0.78694000  0.00462000  1
  C  C126  1  0.33546000  0.78569000  0.95624000  1
  C  C127  1  0.29719000  0.81974000  0.95207000  1
  C  C128  1  0.42846000  0.68536000  0.56176000  1
  C  C129  1  0.43525000  0.70411000  0.52455000  1
  C  C130  1  0.40467000  0.64791000  0.47402000  1
  C  C131  1  0.62970000  0.84969000  0.50796000  1
  C  C132  1  0.56171000  0.83488000  0.47204000  1
  C  C133  1  0.50904000  0.81117000  0.48114000  1
  C  C134  1  0.52446000  0.80338000  0.52704000  1
  C  C135  1  0.59262000  0.81838000  0.56286000  1
  C  C136  1  0.64492000  0.84116000  0.55330000  1
  C  C137  1  0.33983000  0.86810000  0.50599000  1
  C  C138  1  0.40847000  0.90844000  0.55403000  1
  C  C139  1  0.45184000  0.87983000  0.56389000  1
  C  C140  1  0.42698000  0.81062000  0.52594000  1
  C  C141  1  0.35831000  0.77070000  0.47734000  1
  C  C142  1  0.31492000  0.79916000  0.46775000  1
  C  C143  1  0.84950000  0.72704000  0.90771000  1
  C  C144  1  0.78182000  0.86359000  0.93435000  1
  C  C145  1  0.09507000  0.93453000  0.93115000  1
  C  C146  1  0.88172000  0.78601000  0.44821000  1
  C  C147  1  0.84309000  0.94306000  0.46680000  1
  C  C148  1  0.12762000  0.94083000  0.44231000  1
  C  C149  1  0.09253000  0.03162000  0.70372000  1
  C  C150  1  0.08370000  0.03228000  0.74452000  1
  C  C151  1  0.15892000  0.03647000  0.71021000  1
  C  C152  1  0.15882000  0.96676000  0.70800000  1
  C  C153  1  0.09854000  0.89840000  0.65361000  1
  C  C154  1  0.78681000  0.92029000  0.47569000  1
  C  C155  1  0.78696000  0.97226000  0.51140000  1
  C  C156  1  0.73592000  0.94855000  0.52215000  1
  C  C157  1  0.68474000  0.87338000  0.49773000  1
  C  C158  1  0.68504000  0.82145000  0.46246000  1
  C  C159  1  0.73506000  0.84517000  0.45087000  1
  C  C160  1  0.18908000  0.93295000  0.46510000  1
  C  C161  1  0.20309000  0.90840000  0.50322000  1
  C  C162  1  0.25500000  0.89054000  0.51830000  1
  C  C163  1  0.29339000  0.89741000  0.49586000  1
  C  C164  1  0.28253000  0.92647000  0.46036000  1
  C  C165  1  0.22999000  0.94328000  0.44472000  1
  C  C166  1  0.72793000  0.85098000  0.94571000  1
  C  C167  1  0.70762000  0.79807000  0.96186000  1
  C  C168  1  0.65388000  0.78460000  0.96984000  1
  C  C169  1  0.62115000  0.82453000  0.96328000  1
  C  C170  1  0.64339000  0.87952000  0.94930000  1
  C  C171  1  0.69701000  0.89281000  0.94102000  1
  C  C172  1  0.26154000  0.89505000  0.99241000  1
  C  C173  1  0.26607000  0.94336000  0.97071000  1
  C  C174  1  0.21308000  0.95949000  0.95287000  1
  C  C175  1  0.15966000  0.93358000  0.96119000  1
  C  C176  1  0.16367000  0.89746000  0.99201000  1
  C  C177  1  0.21224000  0.87515000  0.00528000  1
  C  C178  1  0.82462000  0.65129000  0.41137000  1
  C  C179  1  0.84488000  0.71813000  0.44891000  1
  C  C180  1  0.83395000  0.72018000  0.48904000  1
  C  C181  1  0.80407000  0.65586000  0.49172000  1
  C  C182  1  0.74301000  0.61144000  0.87820000  1
  C  C183  1  0.81695000  0.65320000  0.90254000  1
  C  C184  1  0.85962000  0.62775000  0.92727000  1
  I  I1  1  0.86056000  0.08685000  0.54716000  1
  I  I2  1  0.39228000  0.12170000  0.56828000  1
  I  I3  1  0.32681000  0.05702000  0.85245000  1
  I  I4  1  0.44941000  0.47541000  0.50966000  1
  I  I5  1  0.09732000  0.33697000  0.43722000  1
  I  I6  1  0.07987000  0.35528000  0.98940000  1
  I  I7  1  0.31206000  0.40743000  0.91005000  1
  I  I8  1  0.94857000  0.35159000  0.48938000  1
  I  I9  1  0.77490000  0.48929000  0.36112000  1
  I  I10  1  0.39771000  0.26529000  0.39426000  1
  I  I11  1  0.85330000  0.26831000  0.91437000  1
  I  I12  1  0.60465000  0.50120000  0.85838000  1
  I  I13  1  0.33731000  0.31803000  0.03844000  1
  I  I14  1  0.35623000  0.99906000  0.97029000  1
  I  I15  1  0.10336000  0.88393000  0.02397000  1
  I  I16  1  0.34675000  0.94849000  0.43156000  1
  I  I17  1  0.77292000  0.97352000  0.32917000  1
  I  I18  1  0.61321000  0.70674000  0.42839000  1
  I  I19  1  0.14449000  0.89456000  0.53674000  1
  I  I20  1  0.75978000  0.74098000  0.97808000  1
  I  I21  1  0.59705000  0.94311000  0.94021000  1
  I  I22  1  0.86415000  0.81978000  0.54729000  1
  I  I23  1  0.67471000  0.89271000  0.81344000  1
  I  I24  1  0.96364000  0.67002000  0.94537000  1
  N  N1  1  0.65463000  0.30311000  0.96469000  1
  N  N2  1  0.71187000  0.34192000  0.49145000  1
  N  N3  1  0.41291000  0.74899000  0.00907000  1
  N  N4  1  0.47152000  0.78071000  0.53809000  1
  O  O1  1  0.98428000  0.04387000  0.79615000  1
  O  O2  1  0.14680000  0.11611000  0.90069000  1
  O  O3  1  0.02726000  0.08532000  0.94274000  1
  O  O4  1  0.86991000  0.98461000  0.89096000  1
  O  O5  1  0.98260000  0.02547000  0.07516000  1
  O  O6  1  0.87769000  0.03945000  0.96595000  1
  O  O7  1  0.99842000  0.99287000  0.99015000  1
  O  O8  1  0.04099000  0.06742000  0.31664000  1
  O  O9  1  0.20533000  0.09070000  0.43484000  1
  O  O10  1  0.09502000  0.11875000  0.46636000  1
  O  O11  1  0.93986000  0.04249000  0.42246000  1
  O  O12  1  0.05268000  0.08296000  0.60551000  1
  O  O13  1  0.96743000  0.11585000  0.50198000  1
  O  O14  1  0.05952000  0.03500000  0.51618000  1
  O  O15  1  0.20906000  0.15284000  0.98939000  1
  O  O16  1  0.27598000  0.17455000  0.52251000  1
  O  O17  1  0.06186000  0.18139000  0.89022000  1
  O  O18  1  0.13765000  0.23441000  0.98192000  1
  O  O19  1  0.15112000  0.20344000  0.41478000  1
  O  O20  1  0.21152000  0.26196000  0.50626000  1
  O  O21  1  0.03582000  0.97658000  0.80267000  1
  O  O22  1  0.05066000  0.89205000  0.87928000  1
  O  O23  1  0.95779000  0.97129000  0.85403000  1
  O  O24  1  0.08816000  0.98579000  0.95466000  1
  O  O25  1  0.90582000  0.78387000  0.95522000  1
  O  O26  1  0.81513000  0.73646000  0.86708000  1
  O  O27  1  0.76111000  0.83218000  0.88489000  1
  O  O28  1  0.84910000  0.89489000  0.97363000  1
  O  O29  1  0.92798000  0.88060000  0.90218000  1
  O  O30  1  0.98459000  0.92005000  0.05379000  1
  O  O31  1  0.06997000  0.98082000  0.31326000  1
  O  O32  1  0.07589000  0.89848000  0.39124000  1
  O  O33  1  0.01015000  0.00318000  0.37650000  1
  O  O34  1  0.13180000  0.99911000  0.46998000  1
  O  O35  1  0.95122000  0.83242000  0.48502000  1
  O  O36  1  0.84679000  0.79470000  0.40721000  1
  O  O37  1  0.82394000  0.91710000  0.41758000  1
  O  O38  1  0.90860000  0.96702000  0.50579000  1
  O  O39  1  0.97393000  0.91890000  0.42757000  1
  O  O40  1  0.03836000  0.96925000  0.58149000  1
