# generated using pymatgen
data_Co2H37C69N3(Cl3O5)2
_symmetry_space_group_name_H-M   'P 1'
_cell_length_a   32.21484000
_cell_length_b   28.91203000
_cell_length_c   28.17447000
_cell_angle_alpha   92.67126000
_cell_angle_beta   85.32520000
_cell_angle_gamma   124.33880000
_symmetry_Int_Tables_number   1
_chemical_formula_structural   Co2H37C69N3(Cl3O5)2
_chemical_formula_sum   'Co4 H74 C138 N6 Cl12 O20'
_cell_volume   21596.03322818
_cell_formula_units_Z   2
loop_
 _symmetry_equiv_pos_site_id
 _symmetry_equiv_pos_as_xyz
  1  'x, y, z'
loop_
 _atom_site_type_symbol
 _atom_site_label
 _atom_site_symmetry_multiplicity
 _atom_site_fract_x
 _atom_site_fract_y
 _atom_site_fract_z
 _atom_site_occupancy
  Co  Co1  1  0.70079000  0.30767000  0.99784000  1
  Co  Co2  1  0.60109000  0.31040000  0.03503000  1
  Co  Co3  1  0.70830000  0.31654000  0.49571000  1
  Co  Co4  1  0.60462000  0.31093000  0.53224000  1
  H  H1  1  0.90673000  0.81866000  0.89617000  1
  H  H2  1  0.96231000  0.92024000  0.87989000  1
  H  H3  1  0.98667000  0.95233000  0.02944000  1
  H  H4  1  0.93101000  0.85085000  0.04565000  1
  H  H5  1  0.89627000  0.04127000  0.00608000  1
  H  H6  1  0.94186000  0.99631000  0.01000000  1
  H  H7  1  0.02641000  0.07624000  0.87825000  1
  H  H8  1  0.98152000  0.12251000  0.87506000  1
  H  H9  1  0.17371000  0.05051000  0.94187000  1
  H  H10  1  0.08996000  0.00080000  0.90944000  1
  H  H11  1  0.04024000  0.06782000  0.02269000  1
  H  H12  1  0.12471000  0.11991000  0.05351000  1
  H  H13  1  0.78791000  0.07387000  0.92472000  1
  H  H14  1  0.83666000  0.03176000  0.92423000  1
  H  H15  1  0.97107000  0.19445000  0.94926000  1
  H  H16  1  0.92223000  0.23651000  0.94980000  1
  H  H17  1  0.76382000  0.66653000  0.02497000  1
  H  H18  1  0.81979000  0.76895000  0.01258000  1
  H  H19  1  0.93769000  0.75170000  0.95218000  1
  H  H20  1  0.88190000  0.64942000  0.96492000  1
  H  H21  1  0.26523000  0.13220000  0.11706000  1
  H  H22  1  0.17981000  0.08535000  0.08868000  1
  H  H23  1  0.24419000  0.16314000  0.95123000  1
  H  H24  1  0.32949000  0.20782000  0.97896000  1
  H  H25  1  0.96613000  0.82981000  0.42845000  1
  H  H26  1  0.02108000  0.93185000  0.41476000  1
  H  H27  1  0.94376000  0.95744000  0.53429000  1
  H  H28  1  0.89000000  0.85571000  0.54901000  1
  H  H29  1  0.95889000  0.11561000  0.52634000  1
  H  H30  1  0.00058000  0.06687000  0.53461000  1
  H  H31  1  0.97979000  0.01687000  0.38720000  1
  H  H32  1  0.93746000  0.06525000  0.37912000  1
  H  H33  1  0.19121000  0.13414000  0.46494000  1
  H  H34  1  0.11090000  0.08666000  0.42619000  1
  H  H35  1  0.03039000  0.00534000  0.55885000  1
  H  H36  1  0.11053000  0.05258000  0.59744000  1
  H  H37  1  0.80274000  0.09161000  0.43285000  1
  H  H38  1  0.84781000  0.04544000  0.43461000  1
  H  H39  1  0.98549000  0.20524000  0.45929000  1
  H  H40  1  0.94028000  0.25132000  0.45766000  1
  H  H41  1  0.76803000  0.66594000  0.50250000  1
  H  H42  1  0.82226000  0.76883000  0.49400000  1
  H  H43  1  0.95375000  0.76624000  0.50448000  1
  H  H44  1  0.89955000  0.66316000  0.51109000  1
  H  H45  1  0.27718000  0.08025000  0.59395000  1
  H  H46  1  0.19022000  0.04066000  0.57322000  1
  H  H47  1  0.23061000  0.20664000  0.54330000  1
  H  H48  1  0.31787000  0.24598000  0.56305000  1
  H  H49  1  0.75710000  0.41278000  0.97235000  1
  H  H50  1  0.74027000  0.40755000  0.44932000  1
  H  H51  1  0.58812000  0.33803000  0.87448000  1
  H  H52  1  0.67728000  0.27236000  0.89206000  1
  H  H53  1  0.69090000  0.27111000  0.80463000  1
  H  H54  1  0.75458000  0.36008000  0.65447000  1
  H  H55  1  0.73869000  0.35250000  0.74176000  1
  H  H56  1  0.59501000  0.27427000  0.64065000  1
  H  H57  1  0.60910000  0.31553000  0.14826000  1
  H  H58  1  0.69632000  0.24477000  0.14597000  1
  H  H59  1  0.67977000  0.23186000  0.23312000  1
  H  H60  1  0.70268000  0.30701000  0.38790000  1
  H  H61  1  0.70976000  0.29716000  0.30077000  1
  H  H62  1  0.54930000  0.25504000  0.37919000  1
  H  H63  1  0.72905000  0.48378000  0.43443000  1
  H  H64  1  0.80648000  0.59019000  0.58148000  1
  H  H65  1  0.84435000  0.21312000  0.37452000  1
  H  H66  1  0.77794000  0.23304000  0.53404000  1
  H  H67  1  0.45215000  0.20015000  0.50336000  1
  H  H68  1  0.36531000  0.21630000  0.65076000  1
  H  H69  1  0.74327000  0.48743000  0.08450000  1
  H  H70  1  0.76818000  0.57491000  0.92787000  1
  H  H71  1  0.74876000  0.20040000  0.02547000  1
  H  H72  1  0.83661000  0.20861000  0.86948000  1
  H  H73  1  0.46959000  0.31845000  0.07142000  1
  H  H74  1  0.33941000  0.11335000  0.07270000  1
  C  C1  1  0.91509000  0.82790000  0.97200000  1
  C  C2  1  0.92410000  0.84776000  0.92530000  1
  C  C3  1  0.95555000  0.90522000  0.91606000  1
  C  C4  1  0.97835000  0.94337000  0.95334000  1
  C  C5  1  0.96941000  0.92339000  0.00026000  1
  C  C6  1  0.93774000  0.86589000  0.00948000  1
  C  C7  1  0.93540000  0.08446000  0.94002000  1
  C  C8  1  0.92452000  0.04883000  0.97806000  1
  C  C9  1  0.95004000  0.02282000  0.98002000  1
  C  C10  1  0.98659000  0.03197000  0.94357000  1
  C  C11  1  0.99819000  0.06871000  0.90626000  1
  C  C12  1  0.97272000  0.09482000  0.90444000  1
  C  C13  1  0.15522000  0.08922000  0.99958000  1
  C  C14  1  0.14488000  0.05500000  0.95919000  1
  C  C15  1  0.09739000  0.02664000  0.94092000  1
  C  C16  1  0.05949000  0.03160000  0.96299000  1
  C  C17  1  0.06943000  0.06483000  0.00428000  1
  C  C18  1  0.11720000  0.09380000  0.02219000  1
  C  C19  1  0.85172000  0.15798000  0.93754000  1
  C  C20  1  0.82794000  0.10033000  0.92966000  1
  C  C21  1  0.85549000  0.07648000  0.92956000  1
  C  C22  1  0.90709000  0.11016000  0.93713000  1
  C  C23  1  0.93121000  0.16811000  0.94354000  1
  C  C24  1  0.90360000  0.19194000  0.94375000  1
  C  C25  1  0.81910000  0.65106000  0.99582000  1
  C  C26  1  0.80181000  0.68504000  0.00932000  1
  C  C27  1  0.83350000  0.74300000  0.00234000  1
  C  C28  1  0.88253000  0.76725000  0.98150000  1
  C  C29  1  0.89988000  0.73328000  0.96827000  1
  C  C30  1  0.86829000  0.67540000  0.97544000  1
  C  C31  1  0.30325000  0.17332000  0.05000000  1
  C  C32  1  0.26074000  0.13925000  0.08096000  1
  C  C33  1  0.21234000  0.11283000  0.06491000  1
  C  C34  1  0.20606000  0.12062000  0.01784000  1
  C  C35  1  0.24859000  0.15628000  0.98743000  1
  C  C36  1  0.29692000  0.18199000  0.00326000  1
  C  C37  1  0.92448000  0.83571000  0.48987000  1
  C  C38  1  0.96150000  0.85758000  0.45191000  1
  C  C39  1  0.99246000  0.91531000  0.44399000  1
  C  C40  1  0.98659000  0.95179000  0.47358000  1
  C  C41  1  0.94894000  0.92985000  0.51124000  1
  C  C42  1  0.91835000  0.87213000  0.51953000  1
  C  C43  1  0.94562000  0.09404000  0.45209000  1
  C  C44  1  0.96373000  0.09445000  0.49583000  1
  C  C45  1  0.98760000  0.06701000  0.50046000  1
  C  C46  1  0.99370000  0.03894000  0.46115000  1
  C  C47  1  0.97530000  0.03841000  0.41758000  1
  C  C48  1  0.95140000  0.06583000  0.41302000  1
  C  C49  1  0.15642000  0.09637000  0.53380000  1
  C  C50  1  0.15611000  0.10639000  0.48561000  1
  C  C51  1  0.11069000  0.07935000  0.46359000  1
  C  C52  1  0.06511000  0.04167000  0.48925000  1
  C  C53  1  0.06526000  0.03277000  0.53801000  1
  C  C54  1  0.11074000  0.06009000  0.56008000  1
  C  C55  1  0.86841000  0.17452000  0.44540000  1
  C  C56  1  0.84271000  0.11656000  0.43809000  1
  C  C57  1  0.86821000  0.09042000  0.43919000  1
  C  C58  1  0.91961000  0.12212000  0.44753000  1
  C  C59  1  0.94569000  0.18038000  0.45325000  1
  C  C60  1  0.92017000  0.20650000  0.45210000  1
  C  C61  1  0.83019000  0.65753000  0.50660000  1
  C  C62  1  0.80853000  0.68775000  0.50297000  1
  C  C63  1  0.83923000  0.74603000  0.49835000  1
  C  C64  1  0.89181000  0.77464000  0.49817000  1
  C  C65  1  0.91327000  0.74451000  0.50386000  1
  C  C66  1  0.88258000  0.68618000  0.50785000  1
  C  C67  1  0.30367000  0.16564000  0.57880000  1
  C  C68  1  0.26687000  0.10802000  0.58382000  1
  C  C69  1  0.21763000  0.08560000  0.57202000  1
  C  C70  1  0.20476000  0.12079000  0.55562000  1
  C  C71  1  0.24047000  0.17900000  0.55491000  1
  C  C72  1  0.28979000  0.20133000  0.56640000  1
  C  C73  1  0.70193000  0.41134000  0.01414000  1
  C  C74  1  0.50921000  0.25685000  0.07092000  1
  C  C75  1  0.66934000  0.29668000  0.09031000  1
  C  C76  1  0.73367000  0.25126000  0.95772000  1
  C  C77  1  0.62644000  0.31062000  0.94202000  1
  C  C78  1  0.70571000  0.41630000  0.50907000  1
  C  C79  1  0.51485000  0.25416000  0.57354000  1
  C  C80  1  0.68482000  0.32151000  0.58861000  1
  C  C81  1  0.74743000  0.26384000  0.46290000  1
  C  C82  1  0.62335000  0.29568000  0.44056000  1
  C  C83  1  0.64787000  0.30518000  0.79141000  1
  C  C84  1  0.61066000  0.32315000  0.85971000  1
  C  C85  1  0.63196000  0.30571000  0.88987000  1
  C  C86  1  0.66072000  0.28642000  0.86968000  1
  C  C87  1  0.66862000  0.28596000  0.82032000  1
  C  C88  1  0.67580000  0.31682000  0.64091000  1
  C  C89  1  0.71628000  0.33907000  0.66997000  1
  C  C90  1  0.70733000  0.33456000  0.71927000  1
  C  C91  1  0.65781000  0.30782000  0.73937000  1
  C  C92  1  0.62681000  0.29108000  0.66233000  1
  C  C93  1  0.63792000  0.27012000  0.23923000  1
  C  C94  1  0.62478000  0.29713000  0.16647000  1
  C  C95  1  0.65466000  0.28216000  0.14092000  1
  C  C96  1  0.67401000  0.25781000  0.16514000  1
  C  C97  1  0.66511000  0.25104000  0.21437000  1
  C  C98  1  0.62551000  0.28188000  0.38993000  1
  C  C99  1  0.67027000  0.29208000  0.36756000  1
  C  C100  1  0.67418000  0.28629000  0.31832000  1
  C  C101  1  0.63271000  0.26935000  0.29175000  1
  C  C102  1  0.58448000  0.26371000  0.36247000  1
  C  C103  1  0.79820000  0.59576000  0.50710000  1
  C  C104  1  0.77672000  0.56542000  0.46534000  1
  C  C105  1  0.74639000  0.50689000  0.46641000  1
  C  C106  1  0.73828000  0.47805000  0.50853000  1
  C  C107  1  0.76008000  0.50836000  0.55021000  1
  C  C108  1  0.78978000  0.56698000  0.54934000  1
  C  C109  1  0.78114000  0.24452000  0.45829000  1
  C  C110  1  0.80057000  0.23951000  0.41318000  1
  C  C111  1  0.83005000  0.21773000  0.40932000  1
  C  C112  1  0.84024000  0.20081000  0.45017000  1
  C  C113  1  0.82165000  0.20687000  0.49531000  1
  C  C114  1  0.79233000  0.22870000  0.49919000  1
  C  C115  1  0.35739000  0.18687000  0.57808000  1
  C  C116  1  0.38211000  0.18216000  0.53650000  1
  C  C117  1  0.43324000  0.20326000  0.53574000  1
  C  C118  1  0.46042000  0.22965000  0.57610000  1
  C  C119  1  0.43569000  0.23416000  0.61784000  1
  C  C120  1  0.38429000  0.21276000  0.61865000  1
  C  C121  1  0.78528000  0.58976000  0.00174000  1
  C  C122  1  0.77744000  0.56485000  0.04625000  1
  C  C123  1  0.74828000  0.50643000  0.05040000  1
  C  C124  1  0.72721000  0.47249000  0.01033000  1
  C  C125  1  0.73372000  0.49746000  0.96615000  1
  C  C126  1  0.76267000  0.55585000  0.96207000  1
  C  C127  1  0.82164000  0.18203000  0.94281000  1
  C  C128  1  0.79659000  0.17967000  0.98689000  1
  C  C129  1  0.76760000  0.20193000  0.99131000  1
  C  C130  1  0.76347000  0.22695000  0.95207000  1
  C  C131  1  0.78854000  0.22934000  0.90794000  1
  C  C132  1  0.81753000  0.20695000  0.90352000  1
  C  C133  1  0.35424000  0.19542000  0.06487000  1
  C  C134  1  0.39084000  0.25357000  0.06692000  1
  C  C135  1  0.44125000  0.27370000  0.07211000  1
  C  C136  1  0.45542000  0.23618000  0.07592000  1
  C  C137  1  0.41791000  0.17822000  0.07881000  1
  C  C138  1  0.36772000  0.15812000  0.07271000  1
  N  N1  1  0.01095000  0.00253000  0.94289000  1
  N  N2  1  0.01913000  0.01126000  0.46471000  1
  N  N3  1  0.61880000  0.32228000  0.81162000  1
  N  N4  1  0.61895000  0.28738000  0.71064000  1
  N  N5  1  0.61724000  0.29108000  0.21467000  1
  N  N6  1  0.58893000  0.25803000  0.31444000  1
  Cl  Cl1  1  0.78854000  0.60022000  0.41115000  1
  Cl  Cl2  1  0.75139000  0.47343000  0.60347000  1
  Cl  Cl3  1  0.78650000  0.25807000  0.36107000  1
  Cl  Cl4  1  0.83409000  0.18627000  0.54727000  1
  Cl  Cl5  1  0.34959000  0.15094000  0.48464000  1
  Cl  Cl6  1  0.46830000  0.26526000  0.66963000  1
  Cl  Cl7  1  0.80531000  0.60633000  0.09675000  1
  Cl  Cl8  1  0.70567000  0.45613000  0.91566000  1
  Cl  Cl9  1  0.80168000  0.14940000  0.03705000  1
  Cl  Cl10  1  0.78263000  0.25860000  0.85755000  1
  Cl  Cl11  1  0.37403000  0.30157000  0.06308000  1
  Cl  Cl12  1  0.43319000  0.13036000  0.09056000  1
  O  O1  1  0.75424000  0.30428000  0.95316000  1
  O  O2  1  0.63402000  0.28345000  0.97145000  1
  O  O3  1  0.66405000  0.38405000  0.04661000  1
  O  O4  1  0.69372000  0.22974000  0.98624000  1
  O  O5  1  0.59911000  0.32698000  0.96216000  1
  O  O6  1  0.54473000  0.30811000  0.07994000  1
  O  O7  1  0.52580000  0.23549000  0.04019000  1
  O  O8  1  0.71350000  0.31195000  0.07179000  1
  O  O9  1  0.63648000  0.27644000  0.05843000  1
  O  O10  1  0.72492000  0.38840000  0.99309000  1
  O  O11  1  0.76243000  0.31395000  0.45147000  1
  O  O12  1  0.63750000  0.27840000  0.47330000  1
  O  O13  1  0.66152000  0.39167000  0.53405000  1
  O  O14  1  0.71016000  0.24360000  0.49459000  1
  O  O15  1  0.59402000  0.31046000  0.45810000  1
  O  O16  1  0.54731000  0.30762000  0.57616000  1
  O  O17  1  0.53389000  0.23207000  0.54703000  1
  O  O18  1  0.72868000  0.33891000  0.56775000  1
  O  O19  1  0.64911000  0.29113000  0.56023000  1
  O  O20  1  0.71752000  0.38807000  0.47890000  1
