# generated using pymatgen
data_Ni4H15C20NO14
_symmetry_space_group_name_H-M   'P 1'
_cell_length_a   19.63620000
_cell_length_b   17.77312000
_cell_length_c   35.53929000
_cell_angle_alpha   90.26752000
_cell_angle_beta   91.00844000
_cell_angle_gamma   111.01794000
_symmetry_Int_Tables_number   1
_chemical_formula_structural   Ni4H15C20NO14
_chemical_formula_sum   'Ni24 H90 C120 N6 O84'
_cell_volume   11575.29443735
_cell_formula_units_Z   6
loop_
 _symmetry_equiv_pos_site_id
 _symmetry_equiv_pos_as_xyz
  1  'x, y, z'
loop_
 _atom_site_type_symbol
 _atom_site_label
 _atom_site_symmetry_multiplicity
 _atom_site_fract_x
 _atom_site_fract_y
 _atom_site_fract_z
 _atom_site_occupancy
  Ni  Ni1  1  0.73253000  0.36660000  0.87572000  1
  Ni  Ni2  1  0.56375000  0.31411000  0.87840000  1
  Ni  Ni3  1  0.62423000  0.19216000  0.83716000  1
  Ni  Ni4  1  0.67865000  0.46173000  0.93766000  1
  Ni  Ni5  1  0.51872000  0.36991000  0.53512000  1
  Ni  Ni6  1  0.67885000  0.37776000  0.55111000  1
  Ni  Ni7  1  0.66649000  0.51631000  0.49647000  1
  Ni  Ni8  1  0.53607000  0.21454000  0.57322000  1
  Ni  Ni9  1  0.97072000  0.04593000  0.67852000  1
  Ni  Ni10  1  0.01242000  0.96889000  0.74994000  1
  Ni  Ni11  1  0.12727000  0.13640000  0.72410000  1
  Ni  Ni12  1  0.83865000  0.89795000  0.71380000  1
  Ni  Ni13  1  0.15449000  0.75678000  0.38444000  1
  Ni  Ni14  1  0.31632000  0.78168000  0.36267000  1
  Ni  Ni15  1  0.24895000  0.90548000  0.32360000  1
  Ni  Ni16  1  0.22171000  0.63786000  0.42720000  1
  Ni  Ni17  1  0.29653000  0.79569000  0.05581000  1
  Ni  Ni18  1  0.24523000  0.60691000  0.05543000  1
  Ni  Ni19  1  0.13245000  0.68176000  0.08858000  1
  Ni  Ni20  1  0.39024000  0.72411000  0.00284000  1
  Ni  Ni21  1  0.88899000  0.02709000  0.19035000  1
  Ni  Ni22  1  0.85562000  0.09421000  0.26647000  1
  Ni  Ni23  1  0.72903000  0.94136000  0.23066000  1
  Ni  Ni24  1  0.02510000  0.16428000  0.23150000  1
  H  H1  1  0.63899000  0.33145000  0.82038000  1
  H  H2  1  0.65511000  0.31721000  0.93193000  1
  H  H3  1  0.61642000  0.36844000  0.48818000  1
  H  H4  1  0.57375000  0.35403000  0.59785000  1
  H  H5  1  0.08284000  0.00366000  0.68927000  1
  H  H6  1  0.90951000  0.03064000  0.74204000  1
  H  H7  1  0.21025000  0.75999000  0.32003000  1
  H  H8  1  0.26154000  0.78399000  0.42715000  1
  H  H9  1  0.25581000  0.69752000  0.11157000  1
  H  H10  1  0.25923000  0.70230000  0.99978000  1
  H  H11  1  0.78542000  0.08048000  0.20454000  1
  H  H12  1  0.95240000  0.02669000  0.25393000  1
  H  H13  1  0.02242000  0.35787000  0.19129000  1
  H  H14  1  0.13488000  0.44351000  0.15737000  1
  H  H15  1  0.92012000  0.26963000  0.12582000  1
  H  H16  1  0.99354000  0.41899000  0.11205000  1
  H  H17  1  0.61682000  0.82576000  0.15360000  1
  H  H18  1  0.48948000  0.79118000  0.13534000  1
  H  H19  1  0.71718000  0.92234000  0.09148000  1
  H  H20  1  0.58888000  0.85600000  0.06784000  1
  H  H21  1  0.14495000  0.96856000  0.09226000  1
  H  H22  1  0.11702000  0.08968000  0.11980000  1
  H  H23  1  0.20723000  0.90780000  0.16061000  1
  H  H24  1  0.10152000  0.95558000  0.17685000  1
  H  H25  1  0.49908000  0.00696000  0.32524000  1
  H  H26  1  0.63434000  0.08599000  0.32653000  1
  H  H27  1  0.45438000  0.92178000  0.24830000  1
  H  H28  1  0.58005000  0.01512000  0.24813000  1
  H  H29  1  0.06066000  0.38049000  0.28884000  1
  H  H30  1  0.09743000  0.52950000  0.30321000  1
  H  H31  1  0.97249000  0.28927000  0.35579000  1
  H  H32  1  0.05356000  0.42707000  0.37445000  1
  H  H33  1  0.94317000  0.98130000  0.33758000  1
  H  H34  1  0.06684000  0.98531000  0.35256000  1
  H  H35  1  0.85740000  0.81581000  0.30191000  1
  H  H36  1  0.96011000  0.81104000  0.34162000  1
  H  H37  1  0.49679000  0.01808000  0.40652000  1
  H  H38  1  0.35422000  0.15088000  0.47740000  1
  H  H39  1  0.56004000  0.13247000  0.44913000  1
  H  H40  1  0.24495000  0.97007000  0.42380000  1
  H  H41  1  0.24438000  0.05464000  0.45124000  1
  H  H42  1  0.03208000  0.50080000  0.46675000  1
  H  H43  1  0.87265000  0.64583000  0.50953000  1
  H  H44  1  0.90733000  0.42417000  0.48758000  1
  H  H45  1  0.06257000  0.77335000  0.49168000  1
  H  H46  1  0.97392000  0.77042000  0.50485000  1
  H  H47  1  0.46028000  0.73011000  0.45192000  1
  H  H48  1  0.44490000  0.44928000  0.42666000  1
  H  H49  1  0.52139000  0.66524000  0.49500000  1
  H  H50  1  0.36645000  0.53870000  0.35285000  1
  H  H51  1  0.38044000  0.44985000  0.36901000  1
  H  H52  1  0.79573000  0.14350000  0.67408000  1
  H  H53  1  0.77457000  0.25767000  0.64474000  1
  H  H54  1  0.71135000  0.98872000  0.62931000  1
  H  H55  1  0.65874000  0.09640000  0.61877000  1
  H  H56  1  0.27282000  0.27314000  0.57145000  1
  H  H57  1  0.13705000  0.19489000  0.58693000  1
  H  H58  1  0.34874000  0.20582000  0.63180000  1
  H  H59  1  0.23936000  0.23233000  0.65653000  1
  H  H60  1  0.83933000  0.71450000  0.66021000  1
  H  H61  1  0.75595000  0.58614000  0.63570000  1
  H  H62  1  0.92936000  0.82050000  0.59739000  1
  H  H63  1  0.84188000  0.69161000  0.57164000  1
  H  H64  1  0.00020000  0.47311000  0.03471000  1
  H  H65  1  0.94012000  0.58662000  0.91663000  1
  H  H66  1  0.87820000  0.41187000  0.00508000  1
  H  H67  1  0.12771000  0.68637000  0.95267000  1
  H  H68  1  0.06078000  0.68565000  0.91761000  1
  H  H69  1  0.58174000  0.01776000  0.91286000  1
  H  H70  1  0.41753000  0.04622000  0.01230000  1
  H  H71  1  0.50238000  0.89810000  0.94555000  1
  H  H72  1  0.55047000  0.23539000  0.97786000  1
  H  H73  1  0.47508000  0.18982000  0.00823000  1
  H  H74  1  0.37618000  0.41288000  0.02925000  1
  H  H75  1  0.47029000  0.54490000  0.90812000  1
  H  H76  1  0.45170000  0.36070000  0.98966000  1
  H  H77  1  0.34090000  0.61801000  0.95547000  1
  H  H78  1  0.40128000  0.63060000  0.91679000  1
  H  H79  1  0.86329000  0.18375000  0.84075000  1
  H  H80  1  0.96406000  0.13468000  0.83518000  1
  H  H81  1  0.86187000  0.29471000  0.77493000  1
  H  H82  1  0.94399000  0.21873000  0.76268000  1
  H  H83  1  0.37049000  0.05167000  0.81964000  1
  H  H84  1  0.23421000  0.97440000  0.80914000  1
  H  H85  1  0.40639000  0.20690000  0.77378000  1
  H  H86  1  0.29790000  0.10063000  0.74818000  1
  H  H87  1  0.78752000  0.55087000  0.79302000  1
  H  H88  1  0.90621000  0.74250000  0.82203000  1
  H  H89  1  0.77204000  0.66666667  0.85403000  1
  H  H90  1  0.79368000  0.68394000  0.75704000  1
  C  C1  1  0.56974000  0.16472000  0.91465000  1
  C  C2  1  0.78616000  0.27381000  0.82247000  1
  C  C3  1  0.47417000  0.19860000  0.82253000  1
  C  C4  1  0.74275000  0.53645000  0.86443000  1
  C  C5  1  0.51945000  0.42557000  0.92561000  1
  C  C6  1  0.82875000  0.45789000  0.94097000  1
  C  C7  1  0.73121000  0.54926000  0.57596000  1
  C  C8  1  0.51372000  0.50999000  0.49236000  1
  C  C9  1  0.80340000  0.48532000  0.50466000  1
  C  C10  1  0.49873000  0.21430000  0.49331000  1
  C  C11  1  0.68947000  0.25174000  0.60212000  1
  C  C12  1  0.40285000  0.25824000  0.57922000  1
  C  C13  1  0.01896000  0.12556000  0.78258000  1
  C  C14  1  0.09652000  0.17183000  0.64515000  1
  C  C15  1  0.16589000  0.02091000  0.77261000  1
  C  C16  1  0.92735000  0.86861000  0.65489000  1
  C  C17  1  0.89280000  0.82524000  0.77854000  1
  C  C18  1  0.81800000  0.00986000  0.65764000  1
  C  C19  1  0.35319000  0.95294000  0.39031000  1
  C  C20  1  0.10323000  0.88144000  0.35546000  1
  C  C21  1  0.38437000  0.88733000  0.29792000  1
  C  C22  1  0.12025000  0.58382000  0.36068000  1
  C  C23  1  0.36571000  0.65816000  0.39544000  1
  C  C24  1  0.08767000  0.66016000  0.45311000  1
  C  C25  1  0.10934000  0.60678000  0.01385000  1
  C  C26  1  0.20702000  0.85941000  0.10319000  1
  C  C27  1  0.13289000  0.51690000  0.10773000  1
  C  C28  1  0.44408000  0.79580000  0.07843000  1
  C  C29  1  0.35403000  0.55291000  0.01955000  1
  C  C30  1  0.39638000  0.89016000  0.99481000  1
  C  C31  1  0.83390000  0.92490000  0.28764000  1
  C  C32  1  0.75676000  0.91880000  0.15014000  1
  C  C33  1  0.70351000  0.05149000  0.28683000  1
  C  C34  1  0.93188000  0.20752000  0.17806000  1
  C  C35  1  0.97905000  0.22666000  0.30268000  1
  C  C36  1  0.03923000  0.06414000  0.16655000  1
  C  C37  1  0.09972000  0.45570000  0.13617000  1
  C  C38  1  0.02808000  0.41157000  0.13491000  1
  C  C39  1  0.99684000  0.34930000  0.16341000  1
  C  C40  1  0.94506000  0.27827000  0.15383000  1
  C  C41  1  0.50355000  0.80642000  0.10618000  1
  C  C42  1  0.57411000  0.83789000  0.09666000  1
  C  C43  1  0.63203000  0.85079000  0.12578000  1
  C  C44  1  0.70183000  0.89664000  0.11914000  1
  C  C45  1  0.09649000  0.05180000  0.14405000  1
  C  C46  1  0.11756000  0.98921000  0.15094000  1
  C  C47  1  0.15457000  0.95909000  0.12180000  1
  C  C48  1  0.19268000  0.91249000  0.13130000  1
  C  C49  1  0.63697000  0.06381000  0.29825000  1
  C  C50  1  0.57572000  0.02960000  0.27759000  1
  C  C51  1  0.50472000  0.99264000  0.29591000  1
  C  C52  1  0.44991000  0.93498000  0.27785000  1
  C  C53  1  0.09299000  0.51635000  0.33310000  1
  C  C54  1  0.06222000  0.43960000  0.34462000  1
  C  C55  1  0.04016000  0.37114000  0.31734000  1
  C  C56  1  0.99652000  0.29734000  0.32807000  1
  C  C57  1  0.04857000  0.91986000  0.35155000  1
  C  C58  1  0.97864000  0.87649000  0.34308000  1
  C  C59  1  0.92861000  0.91741000  0.33125000  1
  C  C60  1  0.87114000  0.87937000  0.30862000  1
  C  C61  1  0.46145000  0.14997000  0.46572000  1
  C  C62  1  0.50115000  0.11150000  0.44605000  1
  C  C63  1  0.46517000  0.04604000  0.42223000  1
  C  C64  1  0.38882000  0.01733000  0.41813000  1
  C  C65  1  0.34814000  0.05482000  0.43853000  1
  C  C66  1  0.38512000  0.12222000  0.46155000  1
  C  C67  1  0.88114000  0.53013000  0.49871000  1
  C  C68  1  0.92744000  0.48946000  0.48848000  1
  C  C69  1  0.99843000  0.53294000  0.47705000  1
  C  C70  1  0.02380000  0.61747000  0.47596000  1
  C  C71  1  0.98004000  0.65867000  0.49050000  1
  C  C72  1  0.90797000  0.61450000  0.50058000  1
  C  C73  1  0.48454000  0.55185000  0.46449000  1
  C  C74  1  0.49180000  0.63233000  0.47046000  1
  C  C75  1  0.45769000  0.66933000  0.44583000  1
  C  C76  1  0.41606000  0.62626000  0.41492000  1
  C  C77  1  0.41479000  0.54776000  0.40671000  1
  C  C78  1  0.44760000  0.51037000  0.43218000  1
  C  C79  1  0.72688000  0.21731000  0.62946000  1
  C  C80  1  0.70676000  0.13726000  0.63362000  1
  C  C81  1  0.75434000  0.10409000  0.65485000  1
  C  C82  1  0.75485000  0.03070000  0.64654000  1
  C  C83  1  0.15292000  0.20206000  0.61657000  1
  C  C84  1  0.22375000  0.22967000  0.62688000  1
  C  C85  1  0.28122000  0.24909000  0.59851000  1
  C  C86  1  0.34313000  0.23597000  0.60602000  1
  C  C87  1  0.77075000  0.60413000  0.60688000  1
  C  C88  1  0.82484000  0.67455000  0.60028000  1
  C  C89  1  0.85898000  0.73101000  0.63189000  1
  C  C90  1  0.90883000  0.80461000  0.62558000  1
  C  C91  1  0.90093000  0.49579000  0.95917000  1
  C  C92  1  0.91831000  0.46383000  0.99231000  1
  C  C93  1  0.98770000  0.49823000  0.00892000  1
  C  C94  1  0.04026000  0.56610000  0.99303000  1
  C  C95  1  0.02343000  0.59805000  0.95916000  1
  C  C96  1  0.95352000  0.56243000  0.94252000  1
  C  C97  1  0.45069000  0.96348000  0.97919000  1
  C  C98  1  0.50080000  0.95665000  0.95291000  1
  C  C99  1  0.54710000  0.02484000  0.93494000  1
  C  C100  1  0.54399000  0.10086000  0.94295000  1
  C  C101  1  0.50179000  0.10945000  0.97350000  1
  C  C102  1  0.45320000  0.04020000  0.99049000  1
  C  C103  1  0.46833000  0.45155000  0.94705000  1
  C  C104  1  0.43861000  0.41194000  0.98026000  1
  C  C105  1  0.39498000  0.44083000  0.00247000  1
  C  C106  1  0.37975000  0.50886000  0.99139000  1
  C  C107  1  0.40331000  0.54366000  0.95590000  1
  C  C108  1  0.44959000  0.51632000  0.93457000  1
  C  C109  1  0.97337000  0.15557000  0.80635000  1
  C  C110  1  0.93554000  0.19844000  0.79165000  1
  C  C111  1  0.87833000  0.21314000  0.81375000  1
  C  C112  1  0.84425000  0.26129000  0.80072000  1
  C  C113  1  0.23473000  0.01389000  0.78580000  1
  C  C114  1  0.29816000  0.06626000  0.77343000  1
  C  C115  1  0.36487000  0.09129000  0.79753000  1
  C  C116  1  0.41455000  0.16615000  0.79460000  1
  C  C117  1  0.87545000  0.74687000  0.79692000  1
  C  C118  1  0.81974000  0.68209000  0.78407000  1
  C  C119  1  0.79260000  0.60781000  0.80634000  1
  C  C120  1  0.76890000  0.60963000  0.84147000  1
  N  N1  1  0.27393000  0.02487000  0.43722000  1
  N  N2  1  0.00729000  0.74008000  0.49539000  1
  N  N3  1  0.38391000  0.50909000  0.37413000  1
  N  N4  1  0.07418000  0.66156000  0.94220000  1
  N  N5  1  0.50885000  0.18366000  0.98696000  1
  N  N6  1  0.38106000  0.60250000  0.94212000  1
  O  O1  1  0.64069000  0.30544000  0.84478000  1
  O  O2  1  0.79542000  0.34743000  0.83407000  1
  O  O3  1  0.73578000  0.21071000  0.83756000  1
  O  O4  1  0.72784000  0.46554000  0.84834000  1
  O  O5  1  0.76945000  0.44893000  0.96049000  1
  O  O6  1  0.62469000  0.16809000  0.89341000  1
  O  O7  1  0.47891000  0.26445000  0.84168000  1
  O  O8  1  0.65445000  0.35716000  0.91280000  1
  O  O9  1  0.82521000  0.43707000  0.90489000  1
  O  O10  1  0.49901000  0.35066000  0.91334000  1
  O  O11  1  0.58454000  0.47791000  0.91779000  1
  O  O12  1  0.74374000  0.54450000  0.90122000  1
  O  O13  1  0.52819000  0.20581000  0.90575000  1
  O  O14  1  0.51197000  0.15326000  0.83354000  1
  O  O15  1  0.61863000  0.40315000  0.51037000  1
  O  O16  1  0.47746000  0.43368000  0.49926000  1
  O  O17  1  0.57727000  0.54766000  0.50899000  1
  O  O18  1  0.47453000  0.27371000  0.49819000  1
  O  O19  1  0.42861000  0.20266000  0.56795000  1
  O  O20  1  0.72380000  0.57967000  0.54304000  1
  O  O21  1  0.78380000  0.43095000  0.53167000  1
  O  O22  1  0.57621000  0.33182000  0.57252000  1
  O  O23  1  0.42258000  0.32889000  0.56253000  1
  O  O24  1  0.71875000  0.32899000  0.59451000  1
  O  O25  1  0.63739000  0.20326000  0.58005000  1
  O  O26  1  0.54647000  0.20427000  0.51694000  1
  O  O27  1  0.69040000  0.47548000  0.58444000  1
  O  O28  1  0.75527000  0.49349000  0.48021000  1
  O  O29  1  0.05859000  0.03253000  0.70490000  1
  O  O30  1  0.03485000  0.11315000  0.63665000  1
  O  O31  1  0.10884000  0.20197000  0.67946000  1
  O  O32  1  0.95291000  0.94503000  0.64432000  1
  O  O33  1  0.80994000  0.93434000  0.66368000  1
  O  O34  1  0.05127000  0.16646000  0.75318000  1
  O  O35  1  0.10555000  0.95634000  0.77067000  1
  O  O36  1  0.92477000  0.99284000  0.72693000  1
  O  O37  1  0.88348000  0.06433000  0.65482000  1
  O  O38  1  0.95501000  0.88278000  0.78750000  1
  O  O39  1  0.83824000  0.84420000  0.76539000  1
  O  O40  1  0.90591000  0.84933000  0.68950000  1
  O  O41  1  0.02504000  0.05621000  0.79039000  1
  O  O42  1  0.16207000  0.09359000  0.77088000  1
  O  O43  1  0.22726000  0.79682000  0.34202000  1
  O  O44  1  0.08266000  0.80303000  0.36036000  1
  O  O45  1  0.17285000  0.92711000  0.35775000  1
  O  O46  1  0.11123000  0.65216000  0.35286000  1
  O  O47  1  0.15241000  0.65952000  0.46371000  1
  O  O48  1  0.33397000  0.97465000  0.35771000  1
  O  O49  1  0.38707000  0.82773000  0.31948000  1
  O  O50  1  0.24446000  0.74471000  0.40606000  1
  O  O51  1  0.08043000  0.70796000  0.42598000  1
  O  O52  1  0.38839000  0.73453000  0.38594000  1
  O  O53  1  0.29581000  0.61363000  0.39275000  1
  O  O54  1  0.13429000  0.56786000  0.39535000  1
  O  O55  1  0.36639000  0.88559000  0.39332000  1
  O  O56  1  0.32113000  0.89111000  0.28679000  1
  O  O57  1  0.23527000  0.69725000  0.08591000  1
  O  O58  1  0.27458000  0.87207000  0.09332000  1
  O  O59  1  0.15173000  0.80483000  0.08532000  1
  O  O60  1  0.38084000  0.79456000  0.09041000  1
  O  O61  1  0.38179000  0.82095000  0.97679000  1
  O  O62  1  0.11866000  0.67445000  0.03160000  1
  O  O63  1  0.19308000  0.51726000  0.09148000  1
  O  O64  1  0.29218000  0.70373000  0.02139000  1
  O  O65  1  0.36546000  0.89415000  0.02737000  1
  O  O66  1  0.28396000  0.53030000  0.02633000  1
  O  O67  1  0.39765000  0.62496000  0.03025000  1
  O  O68  1  0.45780000  0.79976000  0.04238000  1
  O  O69  1  0.15251000  0.56637000  0.02127000  1
  O  O70  1  0.09455000  0.55851000  0.09330000  1
  O  O71  1  0.80560000  0.04429000  0.21804000  1
  O  O72  1  0.82190000  0.97329000  0.14499000  1
  O  O73  1  0.74135000  0.88187000  0.18246000  1
  O  O74  1  0.91172000  0.13517000  0.16209000  1
  O  O75  1  0.04757000  0.13757000  0.17808000  1
  O  O76  1  0.79802000  0.89407000  0.25648000  1
  O  O77  1  0.76714000  0.11121000  0.28909000  1
  O  O78  1  0.93839000  0.06827000  0.24098000  1
  O  O79  1  0.97398000  0.00795000  0.16560000  1
  O  O80  1  0.91917000  0.16477000  0.30900000  1
  O  O81  1  0.03317000  0.21523000  0.28515000  1
  O  O82  1  0.95681000  0.21887000  0.21290000  1
  O  O83  1  0.83602000  0.99532000  0.30036000  1
  O  O84  1  0.70059000  0.97723000  0.28049000  1
