# generated using pymatgen
data_Co6H58C92O21F4
_symmetry_space_group_name_H-M   'P 1'
_cell_length_a   28.01266000
_cell_length_b   29.74930000
_cell_length_c   38.59835000
_cell_angle_alpha   60.95151000
_cell_angle_beta   118.75543000
_cell_angle_gamma   133.24954000
_symmetry_Int_Tables_number   1
_chemical_formula_structural   Co6H58C92O21F4
_chemical_formula_sum   'Co12 H116 C184 O42 F8'
_cell_volume   19918.04883554
_cell_formula_units_Z   2
loop_
 _symmetry_equiv_pos_site_id
 _symmetry_equiv_pos_as_xyz
  1  'x, y, z'
loop_
 _atom_site_type_symbol
 _atom_site_label
 _atom_site_symmetry_multiplicity
 _atom_site_fract_x
 _atom_site_fract_y
 _atom_site_fract_z
 _atom_site_occupancy
  Co  Co1  1  0.04863000  0.01543000  0.08705000  1
  Co  Co2  1  0.07238000  0.91670000  0.09570000  1
  Co  Co3  1  0.07738000  0.02189000  0.58150000  1
  Co  Co4  1  0.00698000  0.05358000  0.60514000  1
  Co  Co5  1  0.05644000  0.91819000  0.65571000  1
  Co  Co6  1  0.12130000  0.93659000  0.59469000  1
  Co  Co7  1  0.91207000  0.92616000  0.16179000  1
  Co  Co8  1  0.98525000  0.05482000  0.11059000  1
  Co  Co9  1  0.97367000  0.88629000  0.13730000  1
  Co  Co10  1  0.89373000  0.02312000  0.15987000  1
  Co  Co11  1  0.98643000  0.94980000  0.67978000  1
  Co  Co12  1  0.92164000  0.01948000  0.66068000  1
  H  H1  1  0.14638000  0.52305000  0.22588000  1
  H  H2  1  0.13378000  0.09747000  0.96316000  1
  H  H3  1  0.09747000  0.99613000  0.81312000  1
  H  H4  1  0.08763000  0.05463000  0.39670000  1
  H  H5  1  0.00676000  0.29877000  0.63109000  1
  H  H6  1  0.07350000  0.40458000  0.64277000  1
  H  H7  1  0.00266000  0.19679000  0.65469000  1
  H  H8  1  0.12116000  0.25454000  0.62327000  1
  H  H9  1  0.14546000  0.68123000  0.70258000  1
  H  H10  1  0.14200000  0.76625000  0.69493000  1
  H  H11  1  0.18364000  0.84674000  0.73219000  1
  H  H12  1  0.09298000  0.30468000  0.14638000  1
  H  H13  1  0.14584000  0.40898000  0.15418000  1
  H  H14  1  0.13254000  0.44907000  0.19577000  1
  H  H15  1  0.05539000  0.16438000  0.22807000  1
  H  H16  1  0.12684000  0.23038000  0.15984000  1
  H  H17  1  0.09183000  0.75431000  0.17857000  1
  H  H18  1  0.12672000  0.69454000  0.18348000  1
  H  H19  1  0.14025000  0.61303000  0.21400000  1
  H  H20  1  0.06261000  0.77602000  0.23865000  1
  H  H21  1  0.17162000  0.45127000  0.72049000  1
  H  H22  1  0.16713000  0.24757000  0.27505000  1
  H  H23  1  0.03318000  0.74962000  0.61753000  1
  H  H24  1  0.18714000  0.30825000  0.67860000  1
  H  H25  1  0.19403000  0.88397000  0.21030000  1
  H  H26  1  0.02311000  0.64470000  0.65500000  1
  H  H27  1  0.20374000  0.56273000  0.72109000  1
  H  H28  1  0.22299000  0.67026000  0.68843000  1
  H  H29  1  0.21991000  0.35184000  0.28285000  1
  H  H30  1  0.23809000  0.80770000  0.28989000  1
  H  H31  1  0.24589000  0.52061000  0.65321000  1
  H  H32  1  0.25385000  0.41482000  0.68862000  1
  H  H33  1  0.26378000  0.09251000  0.51894000  1
  H  H34  1  0.27154000  0.47518000  0.24088000  1
  H  H35  1  0.27011000  0.74399000  0.29658000  1
  H  H36  1  0.27095000  0.13835000  0.10741000  1
  H  H37  1  0.95518000  0.03543000  0.25769000  1
  H  H38  1  0.77512000  0.41296000  0.98692000  1
  H  H39  1  0.62611000  0.38100000  0.02038000  1
  H  H40  1  0.58900000  0.22571000  0.00379000  1
  H  H41  1  0.87607000  0.39248000  0.58122000  1
  H  H42  1  0.70399000  0.37787000  0.56736000  1
  H  H43  1  0.67506000  0.22863000  0.54873000  1
  H  H44  1  0.31451000  0.72075000  0.20064000  1
  H  H45  1  0.30710000  0.57904000  0.18950000  1
  H  H46  1  0.41752000  0.70897000  0.74887000  1
  H  H47  1  0.34288000  0.54514000  0.71962000  1
  H  H48  1  0.92990000  0.90859000  0.90795000  1
  H  H49  1  0.92781000  0.99019000  0.82978000  1
  H  H50  1  0.91769000  0.86366000  0.47746000  1
  H  H51  1  0.99299000  0.88239000  0.37715000  1
  H  H52  1  0.53053000  0.73282000  0.64415000  1
  H  H53  1  0.64988000  0.79382000  0.64581000  1
  H  H54  1  0.68761000  0.70981000  0.77470000  1
  H  H55  1  0.56803000  0.64865000  0.77292000  1
  H  H56  1  0.78240000  0.82614000  0.73844000  1
  H  H57  1  0.74857000  0.79106000  0.66287000  1
  H  H58  1  0.43171000  0.63621000  0.68241000  1
  H  H59  1  0.49820000  0.68503000  0.75883000  1
  H  H60  1  0.35917000  0.89221000  0.72357000  1
  H  H61  1  0.36260000  0.80767000  0.73035000  1
  H  H62  1  0.32912000  0.69601000  0.76934000  1
  H  H63  1  0.27813000  0.93204000  0.67427000  1
  H  H64  1  0.62206000  0.78918000  0.19563000  1
  H  H65  1  0.50868000  0.72023000  0.20762000  1
  H  H66  1  0.43491000  0.78962000  0.08174000  1
  H  H67  1  0.54840000  0.85830000  0.06962000  1
  H  H68  1  0.35353000  0.67876000  0.13104000  1
  H  H69  1  0.42543000  0.73897000  0.20279000  1
  H  H70  1  0.68136000  0.92181000  0.10973000  1
  H  H71  1  0.67783000  0.80178000  0.14977000  1
  H  H72  1  0.28454000  0.71030000  0.25424000  1
  H  H73  1  0.69694000  0.16257000  0.49676000  1
  H  H74  1  0.70766000  0.08228000  0.50463000  1
  H  H75  1  0.91296000  0.18747000  0.57292000  1
  H  H76  1  0.90255000  0.26842000  0.56456000  1
  H  H77  1  0.77270000  0.02812000  0.56900000  1
  H  H78  1  0.89250000  0.12008000  0.52894000  1
  H  H79  1  0.75773000  0.27652000  0.50143000  1
  H  H80  1  0.83852000  0.27089000  0.59052000  1
  H  H81  1  0.95781000  0.53684000  0.64736000  1
  H  H82  1  0.78126000  0.53491000  0.58320000  1
  H  H83  1  0.84710000  0.64384000  0.58937000  1
  H  H84  1  0.78185000  0.42626000  0.62211000  1
  H  H85  1  0.88699000  0.49124000  0.57606000  1
  H  H86  1  0.91142000  0.71765000  0.63234000  1
  H  H87  1  0.46671000  0.26159000  0.46744000  1
  H  H88  1  0.34768000  0.19610000  0.46907000  1
  H  H89  1  0.40555000  0.16401000  0.59984000  1
  H  H90  1  0.52440000  0.22910000  0.59820000  1
  H  H91  1  0.30024000  0.17267000  0.56895000  1
  H  H92  1  0.59810000  0.33384000  0.51279000  1
  H  H93  1  0.58219000  0.20971000  0.56910000  1
  H  H94  1  0.87908000  0.32373000  0.01196000  1
  H  H95  1  0.90294000  0.24950000  0.02705000  1
  H  H96  1  0.69051000  0.09667000  0.01169000  1
  H  H97  1  0.66692000  0.17011000  0.99849000  1
  H  H98  1  0.78524000  0.07916000  0.06581000  1
  H  H99  1  0.88786000  0.16457000  0.01335000  1
  H  H100  1  0.79530000  0.32124000  0.02890000  1
  H  H101  1  0.67076000  0.26491000  0.96001000  1
  H  H102  1  0.70360000  0.53249000  0.03817000  1
  H  H103  1  0.76025000  0.64092000  0.04078000  1
  H  H104  1  0.94658000  0.69639000  0.03761000  1
  H  H105  1  0.88912000  0.58840000  0.03352000  1
  H  H106  1  0.93323000  0.78028000  0.02870000  1
  H  H107  1  0.84368000  0.70685000  0.08947000  1
  H  H108  1  0.73529000  0.44938000  0.06283000  1
  H  H109  1  0.77859000  0.50846000  0.98305000  1
  H  H110  1  0.41730000  0.09994000  0.16380000  1
  H  H111  1  0.52103000  0.17449000  0.13870000  1
  H  H112  1  0.41786000  0.23520000  0.02231000  1
  H  H113  1  0.31413000  0.16068000  0.04738000  1
  H  H114  1  0.58546000  0.28462000  0.08286000  1
  H  H115  1  0.49337000  0.21828000  0.01231000  1
  H  H116  1  0.28135000  0.02749000  0.13513000  1
  C  C1  1  0.04120000  0.12778000  0.17057000  1
  C  C2  1  0.05320000  0.00246000  0.01595000  1
  C  C3  1  0.06862000  0.85149000  0.18292000  1
  C  C4  1  0.03308000  0.15340000  0.62782000  1
  C  C5  1  0.02610000  0.95354000  0.51939000  1
  C  C6  1  0.18418000  0.92676000  0.68226000  1
  C  C7  1  0.02574000  0.99912000  0.89850000  1
  C  C8  1  0.08218000  0.05340000  0.91365000  1
  C  C9  1  0.08864000  0.05678000  0.95081000  1
  C  C10  1  0.03834000  0.00662000  0.97279000  1
  C  C11  1  0.01862000  0.99496000  0.85928000  1
  C  C12  1  0.06544000  0.99483000  0.85465000  1
  C  C13  1  0.05992000  0.99399000  0.81678000  1
  C  C14  1  0.05012000  0.01308000  0.41405000  1
  C  C15  1  0.00968000  0.95925000  0.47568000  1
  C  C16  1  0.05681000  0.01343000  0.45230000  1
  C  C17  1  0.09256000  0.29700000  0.65273000  1
  C  C18  1  0.06067000  0.32400000  0.64357000  1
  C  C19  1  0.09838000  0.38377000  0.65034000  1
  C  C20  1  0.16229000  0.32963000  0.66977000  1
  C  C21  1  0.05174000  0.23248000  0.64729000  1
  C  C22  1  0.07315000  0.21829000  0.63202000  1
  C  C23  1  0.19027000  0.77482000  0.70405000  1
  C  C24  1  0.12734000  0.26918000  0.21010000  1
  C  C25  1  0.12136000  0.31506000  0.17610000  1
  C  C26  1  0.15020000  0.37374000  0.18067000  1
  C  C27  1  0.08756000  0.20357000  0.20692000  1
  C  C28  1  0.09048000  0.19181000  0.17863000  1
  C  C29  1  0.12956000  0.75088000  0.20489000  1
  C  C30  1  0.15620000  0.83579000  0.22413000  1
  C  C31  1  0.09690000  0.82090000  0.22043000  1
  C  C32  1  0.16815000  0.41676000  0.66650000  1
  C  C33  1  0.19219000  0.72674000  0.70803000  1
  C  C34  1  0.20736000  0.88579000  0.70739000  1
  C  C35  1  0.16292000  0.28287000  0.24854000  1
  C  C36  1  0.16260000  0.78530000  0.23386000  1
  C  C37  1  0.14906000  0.71639000  0.20788000  1
  C  C38  1  0.00677000  0.00198000  0.74206000  1
  C  C39  1  0.18540000  0.04045000  0.11829000  1
  C  C40  1  0.00729000  0.99260000  0.78349000  1
  C  C41  1  0.20669000  0.07957000  0.56578000  1
  C  C42  1  0.18486000  0.38691000  0.21933000  1
  C  C43  1  0.18657000  0.47665000  0.20869000  1
  C  C44  1  0.19463000  0.55978000  0.21760000  1
  C  C45  1  0.19996000  0.38961000  0.67603000  1
  C  C46  1  0.19216000  0.34169000  0.25305000  1
  C  C47  1  0.20059000  0.71419000  0.24073000  1
  C  C48  1  0.21196000  0.78108000  0.26747000  1
  C  C49  1  0.19489000  0.64065000  0.22280000  1
  C  C50  1  0.20890000  0.48118000  0.67150000  1
  C  C51  1  0.21012000  0.48972000  0.70311000  1
  C  C52  1  0.22345000  0.54346000  0.20863000  1
  C  C53  1  0.21922000  0.45027000  0.22405000  1
  C  C54  1  0.23040000  0.74521000  0.27111000  1
  C  C55  1  0.23120000  0.68877000  0.24030000  1
  C  C56  1  0.22804000  0.62352000  0.21583000  1
  C  C57  1  0.24877000  0.88975000  0.69597000  1
  C  C58  1  0.25050000  0.83508000  0.70921000  1
  C  C59  1  0.25416000  0.73822000  0.71731000  1
  C  C60  1  0.25500000  0.58187000  0.72441000  1
  C  C61  1  0.25551000  0.69122000  0.71453000  1
  C  C62  1  0.25260000  0.08912000  0.11586000  1
  C  C63  1  0.00644000  0.81072000  0.62971000  1
  C  C64  1  0.26703000  0.54910000  0.71690000  1
  C  C65  1  0.27048000  0.13085000  0.55780000  1
  C  C66  1  0.97783000  0.00450000  0.32285000  1
  C  C67  1  0.99534000  0.95917000  0.39828000  1
  C  C68  1  0.96457000  0.00263000  0.28358000  1
  C  C69  1  0.98669000  0.96033000  0.35683000  1
  C  C70  1  0.68400000  0.31671000  0.99374000  1
  C  C71  1  0.72664000  0.38109000  0.99446000  1
  C  C72  1  0.70683000  0.40393000  0.00545000  1
  C  C73  1  0.64321000  0.36281000  0.01409000  1
  C  C74  1  0.60199000  0.29807000  0.01522000  1
  C  C75  1  0.62144000  0.27556000  0.00371000  1
  C  C76  1  0.77862000  0.30884000  0.56320000  1
  C  C77  1  0.82193000  0.36676000  0.57433000  1
  C  C78  1  0.79519000  0.39132000  0.57666000  1
  C  C79  1  0.72494000  0.35823000  0.56693000  1
  C  C80  1  0.68157000  0.29928000  0.55730000  1
  C  C81  1  0.70851000  0.27468000  0.55551000  1
  C  C82  1  0.28967000  0.67119000  0.20375000  1
  C  C83  1  0.31814000  0.65515000  0.19433000  1
  C  C84  1  0.28508000  0.59135000  0.19689000  1
  C  C85  1  0.30936000  0.63987000  0.73579000  1
  C  C86  1  0.37560000  0.66402000  0.74043000  1
  C  C87  1  0.38769000  0.63133000  0.73291000  1
  C  C88  1  0.33348000  0.57251000  0.72295000  1
  C  C89  1  0.92682000  0.80573000  0.08381000  1
  C  C90  1  0.89736000  0.09951000  0.07313000  1
  C  C91  1  0.77277000  0.89810000  0.13955000  1
  C  C92  1  0.92867000  0.94517000  0.23623000  1
  C  C93  1  0.87056000  0.02809000  0.57311000  1
  C  C94  1  0.84577000  0.87830000  0.68149000  1
  C  C95  1  0.97423000  0.95010000  0.91972000  1
  C  C96  1  0.98021000  0.95405000  0.95649000  1
  C  C97  1  0.95864000  0.98933000  0.78888000  1
  C  C98  1  0.96469000  0.99108000  0.82640000  1
  C  C99  1  0.94664000  0.90590000  0.42095000  1
  C  C100  1  0.95413000  0.90585000  0.45958000  1
  C  C101  1  0.95891000  0.95604000  0.27753000  1
  C  C102  1  0.97095000  0.91367000  0.31155000  1
  C  C103  1  0.98504000  0.91599000  0.35108000  1
  C  C104  1  0.54177000  0.68872000  0.70870000  1
  C  C105  1  0.56455000  0.72730000  0.67261000  1
  C  C106  1  0.63205000  0.76125000  0.67347000  1
  C  C107  1  0.67723000  0.75608000  0.71045000  1
  C  C108  1  0.65333000  0.71436000  0.74606000  1
  C  C109  1  0.58579000  0.68042000  0.74517000  1
  C  C110  1  0.75062000  0.80249000  0.71358000  1
  C  C111  1  0.77796000  0.81905000  0.68508000  1
  C  C112  1  0.47156000  0.65681000  0.70792000  1
  C  C113  1  0.45748000  0.65896000  0.73566000  1
  C  C114  1  0.31248000  0.84578000  0.71996000  1
  C  C115  1  0.31440000  0.79771000  0.72394000  1
  C  C116  1  0.29757000  0.67586000  0.74290000  1
  C  C117  1  0.59276000  0.82757000  0.13154000  1
  C  C118  1  0.58124000  0.78893000  0.17059000  1
  C  C119  1  0.51724000  0.75066000  0.17756000  1
  C  C120  1  0.46428000  0.75127000  0.14569000  1
  C  C121  1  0.47566000  0.78948000  0.10664000  1
  C  C122  1  0.53984000  0.82806000  0.09972000  1
  C  C123  1  0.39562000  0.70818000  0.15230000  1
  C  C124  1  0.38477000  0.70498000  0.18405000  1
  C  C125  1  0.66157000  0.87216000  0.12483000  1
  C  C126  1  0.69973000  0.85226000  0.13767000  1
  C  C127  1  0.79792000  0.21959000  0.53160000  1
  C  C128  1  0.74434000  0.16850000  0.51313000  1
  C  C129  1  0.75062000  0.12325000  0.51726000  1
  C  C130  1  0.81088000  0.12900000  0.53938000  1
  C  C131  1  0.86615000  0.18245000  0.55566000  1
  C  C132  1  0.85982000  0.22774000  0.55162000  1
  C  C133  1  0.81069000  0.07300000  0.55297000  1
  C  C134  1  0.85825000  0.07728000  0.54806000  1
  C  C135  1  0.78846000  0.26449000  0.52929000  1
  C  C136  1  0.80666000  0.28131000  0.56268000  1
  C  C137  1  0.93960000  0.65165000  0.62325000  1
  C  C138  1  0.97022000  0.62077000  0.63957000  1
  C  C139  1  0.93342000  0.55989000  0.63489000  1
  C  C140  1  0.86548000  0.52909000  0.61396000  1
  C  C141  1  0.83401000  0.55876000  0.59893000  1
  C  C142  1  0.87107000  0.62014000  0.60306000  1
  C  C143  1  0.82609000  0.46440000  0.60942000  1
  C  C144  1  0.84107000  0.45360000  0.58714000  1
  C  C145  1  0.98253000  0.72016000  0.62159000  1
  C  C146  1  0.96190000  0.74676000  0.62819000  1
  C  C147  1  0.50338000  0.24832000  0.53276000  1
  C  C148  1  0.45354000  0.24053000  0.49635000  1
  C  C149  1  0.38620000  0.20383000  0.49725000  1
  C  C150  1  0.36840000  0.17589000  0.53451000  1
  C  C151  1  0.41875000  0.18593000  0.57084000  1
  C  C152  1  0.48598000  0.22207000  0.56997000  1
  C  C153  1  0.29666000  0.12880000  0.53584000  1
  C  C154  1  0.57409000  0.28553000  0.53177000  1
  C  C155  1  0.60830000  0.25994000  0.55351000  1
  C  C156  1  0.77147000  0.25229000  0.00446000  1
  C  C157  1  0.83763000  0.27453000  0.01100000  1
  C  C158  1  0.85112000  0.23243000  0.01920000  1
  C  C159  1  0.79835000  0.16744000  0.02090000  1
  C  C160  1  0.73168000  0.14652000  0.01071000  1
  C  C161  1  0.71824000  0.18838000  0.00300000  1
  C  C162  1  0.81298000  0.11972000  0.04286000  1
  C  C163  1  0.86486000  0.12933000  0.03910000  1
  C  C164  1  0.75994000  0.29263000  0.00659000  1
  C  C165  1  0.70496000  0.29155000  0.98337000  1
  C  C166  1  0.79243000  0.55306000  0.03561000  1
  C  C167  1  0.75655000  0.56824000  0.03786000  1
  C  C168  1  0.78890000  0.62944000  0.03995000  1
  C  C169  1  0.85808000  0.67553000  0.04102000  1
  C  C170  1  0.89348000  0.66087000  0.03752000  1
  C  C171  1  0.86087000  0.59979000  0.03500000  1
  C  C172  1  0.89372000  0.73967000  0.04505000  1
  C  C173  1  0.88349000  0.74758000  0.07340000  1
  C  C174  1  0.75963000  0.48670000  0.03786000  1
  C  C175  1  0.75229000  0.47128000  0.00727000  1
  C  C176  1  0.35883000  0.12573000  0.10755000  1
  C  C177  1  0.41740000  0.12975000  0.13303000  1
  C  C178  1  0.47599000  0.17161000  0.11872000  1
  C  C179  1  0.47608000  0.20873000  0.07849000  1
  C  C180  1  0.41784000  0.20561000  0.05314000  1
  C  C181  1  0.35939000  0.16413000  0.06757000  1
  C  C182  1  0.53855000  0.25356000  0.06392000  1
  C  C183  1  0.53893000  0.25342000  0.02927000  1
  C  C184  1  0.29510000  0.07559000  0.12103000  1
  O  O1  1  0.04736000  0.08738000  0.07840000  1
  O  O2  1  0.09549000  0.98862000  0.04260000  1
  O  O3  1  0.03038000  0.01954000  0.02673000  1
  O  O4  1  0.05571000  0.11227000  0.15187000  1
  O  O5  1  0.05573000  0.84352000  0.14812000  1
  O  O6  1  0.04809000  0.87902000  0.18454000  1
  O  O7  1  0.02415000  0.94022000  0.10454000  1
  O  O8  1  0.16283000  0.98071000  0.12798000  1
  O  O9  1  0.14908000  0.05436000  0.11778000  1
  O  O10  1  0.05370000  0.08168000  0.56428000  1
  O  O11  1  0.05552000  0.00199000  0.63870000  1
  O  O12  1  0.03860000  0.91180000  0.54592000  1
  O  O13  1  0.01602000  0.98115000  0.53120000  1
  O  O14  1  0.05949000  0.13950000  0.61743000  1
  O  O15  1  0.19779000  0.96196000  0.64604000  1
  O  O16  1  0.14202000  0.92056000  0.69395000  1
  O  O17  1  0.08559000  0.96315000  0.61286000  1
  O  O18  1  0.01704000  0.96913000  0.73570000  1
  O  O19  1  0.17417000  0.02604000  0.55682000  1
  O  O20  1  0.17764000  0.08728000  0.57894000  1
  O  O21  1  0.06969000  0.84368000  0.62953000  1
  O  O22  1  0.01364000  0.89241000  0.69806000  1
  O  O23  1  0.99152000  0.08360000  0.18952000  1
  O  O24  1  0.90921000  0.10026000  0.11020000  1
  O  O25  1  0.92831000  0.99813000  0.13963000  1
  O  O26  1  0.91489000  0.85475000  0.17149000  1
  O  O27  1  0.95859000  0.96344000  0.11110000  1
  O  O28  1  0.92639000  0.08532000  0.06555000  1
  O  O29  1  0.80095000  0.95980000  0.12853000  1
  O  O30  1  0.80838000  0.87555000  0.15351000  1
  O  O31  1  0.87935000  0.95066000  0.21290000  1
  O  O32  1  0.95785000  0.94158000  0.22011000  1
  O  O33  1  0.97647000  0.85520000  0.06507000  1
  O  O34  1  0.91399000  0.81052000  0.11056000  1
  O  O35  1  0.85163000  0.99306000  0.60767000  1
  O  O36  1  0.98031000  0.01010000  0.64918000  1
  O  O37  1  0.91322000  0.02967000  0.56574000  1
  O  O38  1  0.86900000  0.92555000  0.69390000  1
  O  O39  1  0.88348000  0.88333000  0.66690000  1
  O  O40  1  0.96859000  0.11423000  0.62766000  1
  O  O41  1  0.99796000  0.04454000  0.71218000  1
  O  O42  1  0.98663000  0.83611000  0.63486000  1
  F  F1  1  0.13089000  0.10263000  0.89254000  1
  F  F2  1  0.11637000  0.99592000  0.88666000  1
  F  F3  1  0.11076000  0.06545000  0.46742000  1
  F  F4  1  0.97912000  0.04753000  0.32779000  1
  F  F5  1  0.93077000  0.90551000  0.97714000  1
  F  F6  1  0.90597000  0.98550000  0.75744000  1
  F  F7  1  0.89212000  0.85426000  0.40558000  1
  F  F8  1  0.96583000  0.86841000  0.30638000  1
