# generated using pymatgen
data_Co2H65C73N9O10
_symmetry_space_group_name_H-M   'P 1'
_cell_length_a   31.89977000
_cell_length_b   28.63962000
_cell_length_c   19.33598000
_cell_angle_alpha   92.66879000
_cell_angle_beta   85.31725000
_cell_angle_gamma   124.34113000
_symmetry_Int_Tables_number   1
_chemical_formula_structural   Co2H65C73N9O10
_chemical_formula_sum   'Co4 H130 C146 N18 O20'
_cell_volume   14537.43234005
_cell_formula_units_Z   2
loop_
 _symmetry_equiv_pos_site_id
 _symmetry_equiv_pos_as_xyz
  1  'x, y, z'
loop_
 _atom_site_type_symbol
 _atom_site_label
 _atom_site_symmetry_multiplicity
 _atom_site_fract_x
 _atom_site_fract_y
 _atom_site_fract_z
 _atom_site_occupancy
  Co  Co1  1  0.72457000  0.34306000  0.01423000  1
  Co  Co2  1  0.62136000  0.34598000  0.04652000  1
  Co  Co3  1  0.68172000  0.27554000  0.49260000  1
  Co  Co4  1  0.58578000  0.28666000  0.55282000  1
  H  H1  1  0.95804000  0.83742000  0.79383000  1
  H  H2  1  0.01791000  0.93827000  0.76352000  1
  H  H3  1  0.96464000  0.98408000  0.94921000  1
  H  H4  1  0.90566000  0.88352000  0.98013000  1
  H  H5  1  0.98561000  0.14149000  0.94647000  1
  H  H6  1  0.03043000  0.09401000  0.93909000  1
  H  H7  1  0.97459000  0.02851000  0.73747000  1
  H  H8  1  0.93015000  0.07682000  0.74437000  1
  H  H9  1  0.20140000  0.16732000  0.81424000  1
  H  H10  1  0.11462000  0.11631000  0.77387000  1
  H  H11  1  0.05765000  0.00819000  0.95397000  1
  H  H12  1  0.14399000  0.05924000  0.99377000  1
  H  H13  1  0.80280000  0.10037000  0.86527000  1
  H  H14  1  0.85246000  0.05863000  0.84323000  1
  H  H15  1  0.99141000  0.22340000  0.86406000  1
  H  H16  1  0.94163000  0.26481000  0.88778000  1
  H  H17  1  0.76904000  0.69033000  0.94743000  1
  H  H18  1  0.82471000  0.79010000  0.90979000  1
  H  H19  1  0.95596000  0.78309000  0.91459000  1
  H  H20  1  0.90015000  0.68309000  0.95092000  1
  H  H21  1  0.34564000  0.16849000  0.89527000  1
  H  H22  1  0.26115000  0.12140000  0.84793000  1
  H  H23  1  0.21092000  0.18198000  0.02178000  1
  H  H24  1  0.29572000  0.22997000  0.06823000  1
  H  H25  1  0.95921000  0.79939000  0.46379000  1
  H  H26  1  0.00733000  0.90219000  0.44450000  1
  H  H27  1  0.92500000  0.91739000  0.62214000  1
  H  H28  1  0.88067000  0.81563000  0.64595000  1
  H  H29  1  0.91654000  0.06393000  0.59478000  1
  H  H30  1  0.96746000  0.02614000  0.61450000  1
  H  H31  1  0.95680000  0.97227000  0.40113000  1
  H  H32  1  0.90545000  0.00969000  0.38144000  1
  H  H33  1  0.16638000  0.12279000  0.52163000  1
  H  H34  1  0.08502000  0.06639000  0.46562000  1
  H  H35  1  0.01114000  0.97318000  0.65547000  1
  H  H36  1  0.09331000  0.02501000  0.70864000  1
  H  H37  1  0.76486000  0.04473000  0.52273000  1
  H  H38  1  0.81275000  0.00258000  0.53966000  1
  H  H39  1  0.93719000  0.12924000  0.40565000  1
  H  H40  1  0.88937000  0.17156000  0.38905000  1
  H  H41  1  0.76425000  0.62364000  0.58120000  1
  H  H42  1  0.81426000  0.72780000  0.58003000  1
  H  H43  1  0.95294000  0.73389000  0.55673000  1
  H  H44  1  0.90253000  0.62974000  0.55088000  1
  H  H45  1  0.27067000  0.07459000  0.68012000  1
  H  H46  1  0.17968000  0.02741000  0.66153000  1
  H  H47  1  0.20276000  0.18995000  0.64371000  1
  H  H48  1  0.29385000  0.23707000  0.66249000  1
  H  H49  1  0.78776000  0.45164000  0.99199000  1
  H  H50  1  0.72651000  0.36984000  0.42695000  1
  H  H51  1  0.59017000  0.28357000  0.70219000  1
  H  H52  1  0.73804000  0.35625000  0.84426000  1
  H  H53  1  0.59979000  0.39301000  0.81924000  1
  H  H54  1  0.53248000  0.34433000  0.83823000  1
  H  H55  1  0.55977000  0.34460000  0.75282000  1
  H  H56  1  0.78839000  0.40568000  0.65886000  1
  H  H57  1  0.83088000  0.38813000  0.68373000  1
  H  H58  1  0.80523000  0.41428000  0.74839000  1
  H  H59  1  0.54300000  0.26638000  0.82113000  1
  H  H60  1  0.76308000  0.30989000  0.74919000  1
  H  H61  1  0.62437000  0.22012000  0.19175000  1
  H  H62  1  0.64833000  0.36108000  0.37187000  1
  H  H63  1  0.64008000  0.16592000  0.30634000  1
  H  H64  1  0.58083000  0.10546000  0.34116000  1
  H  H65  1  0.61537000  0.16771000  0.39380000  1
  H  H66  1  0.62563000  0.38838000  0.19050000  1
  H  H67  1  0.66790000  0.46130000  0.21572000  1
  H  H68  1  0.62384000  0.40994000  0.27977000  1
  H  H69  1  0.54494000  0.16218000  0.34628000  1
  H  H70  1  0.71595000  0.42121000  0.20769000  1
  H  H71  1  0.80296000  0.57084000  0.44188000  1
  H  H72  1  0.72907000  0.43039000  0.63307000  1
  H  H73  1  0.81719000  0.51952000  0.34565000  1
  H  H74  1  0.77748000  0.45120000  0.30618000  1
  H  H75  1  0.80753000  0.45697000  0.38349000  1
  H  H76  1  0.84489000  0.51057000  0.66486000  1
  H  H77  1  0.84331000  0.54229000  0.74635000  1
  H  H78  1  0.87377000  0.58610000  0.67058000  1
  H  H79  1  0.73055000  0.48526000  0.37540000  1
  H  H80  1  0.79284000  0.57126000  0.68990000  1
  H  H81  1  0.81353000  0.17232000  0.55544000  1
  H  H82  1  0.72893000  0.15896000  0.34346000  1
  H  H83  1  0.84681000  0.28091000  0.57055000  1
  H  H84  1  0.81079000  0.30487000  0.61598000  1
  H  H85  1  0.81703000  0.30685000  0.52276000  1
  H  H86  1  0.72469000  0.02563000  0.37549000  1
  H  H87  1  0.73522000  0.02687000  0.28264000  1
  H  H88  1  0.69756000  0.05127000  0.32158000  1
  H  H89  1  0.76032000  0.20388000  0.61343000  1
  H  H90  1  0.78382000  0.12899000  0.28528000  1
  H  H91  1  0.35491000  0.19008000  0.76830000  1
  H  H92  1  0.43620000  0.22055000  0.52936000  1
  H  H93  1  0.39746000  0.14052000  0.80677000  1
  H  H94  1  0.46071000  0.17488000  0.83531000  1
  H  H95  1  0.44817000  0.14653000  0.74878000  1
  H  H96  1  0.34267000  0.25959000  0.54078000  1
  H  H97  1  0.32330000  0.22312000  0.45936000  1
  H  H98  1  0.38901000  0.26000000  0.47902000  1
  H  H99  1  0.44515000  0.24399000  0.80499000  1
  H  H100  1  0.34436000  0.15891000  0.49551000  1
  H  H101  1  0.80733000  0.63794000  0.08154000  1
  H  H102  1  0.73519000  0.48787000  0.90101000  1
  H  H103  1  0.81480000  0.51325000  0.12215000  1
  H  H104  1  0.80060000  0.52767000  0.20918000  1
  H  H105  1  0.83900000  0.58547000  0.14917000  1
  H  H106  1  0.70458000  0.53571000  0.82655000  1
  H  H107  1  0.74178000  0.59782000  0.77261000  1
  H  H108  1  0.72174000  0.60438000  0.85998000  1
  H  H109  1  0.75086000  0.55750000  0.16506000  1
  H  H110  1  0.79352000  0.57008000  0.81895000  1
  H  H111  1  0.80950000  0.16568000  0.99593000  1
  H  H112  1  0.81598000  0.30355000  0.84081000  1
  H  H113  1  0.81820000  0.22818000  0.10864000  1
  H  H114  1  0.76734000  0.22934000  0.15478000  1
  H  H115  1  0.81054000  0.28532000  0.09488000  1
  H  H116  1  0.81113000  0.18215000  0.74247000  1
  H  H117  1  0.85470000  0.23692000  0.68146000  1
  H  H118  1  0.80544000  0.24068000  0.72832000  1
  H  H119  1  0.73641000  0.16325000  0.05918000  1
  H  H120  1  0.88782000  0.30403000  0.77619000  1
  H  H121  1  0.50104000  0.33729000  0.98038000  1
  H  H122  1  0.34850000  0.16947000  0.09706000  1
  H  H123  1  0.38011000  0.33860000  0.98584000  1
  H  H124  1  0.40644000  0.36968000  0.90140000  1
  H  H125  1  0.44871000  0.38574000  0.96864000  1
  H  H126  1  0.39379000  0.11870000  0.11562000  1
  H  H127  1  0.43921000  0.13473000  0.17801000  1
  H  H128  1  0.46161000  0.16052000  0.09070000  1
  H  H129  1  0.44390000  0.31621000  0.88593000  1
  H  H130  1  0.40766000  0.19450000  0.19351000  1
  C  C1  1  0.92768000  0.85354000  0.88904000  1
  C  C2  1  0.95928000  0.86936000  0.82765000  1
  C  C3  1  0.99293000  0.92648000  0.81012000  1
  C  C4  1  0.99487000  0.96834000  0.85311000  1
  C  C5  1  0.96279000  0.95235000  0.91450000  1
  C  C6  1  0.92949000  0.89528000  0.93225000  1
  C  C7  1  0.95471000  0.11238000  0.84601000  1
  C  C8  1  0.98375000  0.11763000  0.90030000  1
  C  C9  1  0.00941000  0.09091000  0.89594000  1
  C  C10  1  0.00604000  0.05826000  0.83714000  1
  C  C11  1  0.97765000  0.05383000  0.78254000  1
  C  C12  1  0.95222000  0.08087000  0.78676000  1
  C  C13  1  0.17859000  0.11658000  0.90660000  1
  C  C14  1  0.17007000  0.13225000  0.84437000  1
  C  C15  1  0.12095000  0.10320000  0.82134000  1
  C  C16  1  0.07992000  0.05737000  0.85945000  1
  C  C17  1  0.08864000  0.04204000  0.92239000  1
  C  C18  1  0.13773000  0.07143000  0.94546000  1
  C  C19  1  0.86880000  0.18535000  0.87859000  1
  C  C20  1  0.84394000  0.12731000  0.86484000  1
  C  C21  1  0.87208000  0.10373000  0.85200000  1
  C  C22  1  0.92537000  0.13807000  0.85257000  1
  C  C23  1  0.95029000  0.19645000  0.86408000  1
  C  C24  1  0.92211000  0.21993000  0.87735000  1
  C  C25  1  0.83086000  0.68002000  0.95178000  1
  C  C26  1  0.80978000  0.71046000  0.94019000  1
  C  C27  1  0.84130000  0.76695000  0.91891000  1
  C  C28  1  0.89418000  0.79345000  0.90949000  1
  C  C29  1  0.91519000  0.76292000  0.92127000  1
  C  C30  1  0.88363000  0.70642000  0.94222000  1
  C  C31  1  0.32635000  0.20233000  0.98499000  1
  C  C32  1  0.31643000  0.17186000  0.92261000  1
  C  C33  1  0.26859000  0.14514000  0.89591000  1
  C  C34  1  0.23013000  0.14810000  0.93192000  1
  C  C35  1  0.24030000  0.17918000  0.99387000  1
  C  C36  1  0.28824000  0.20622000  0.02027000  1
  C  C37  1  0.91684000  0.80025000  0.55661000  1
  C  C38  1  0.95266000  0.82519000  0.49967000  1
  C  C39  1  0.97956000  0.88332000  0.48826000  1
  C  C40  1  0.97016000  0.91705000  0.53231000  1
  C  C41  1  0.93331000  0.89200000  0.58835000  1
  C  C42  1  0.90778000  0.83416000  0.60143000  1
  C  C43  1  0.90777000  0.03964000  0.48663000  1
  C  C44  1  0.92519000  0.04387000  0.55247000  1
  C  C45  1  0.95426000  0.02270000  0.56360000  1
  C  C46  1  0.96611000  0.99704000  0.50882000  1
  C  C47  1  0.94796000  0.99213000  0.44346000  1
  C  C48  1  0.91901000  0.01341000  0.43232000  1
  C  C49  1  0.13542000  0.07784000  0.61913000  1
  C  C50  1  0.13251000  0.09006000  0.55094000  1
  C  C51  1  0.08647000  0.05811000  0.51915000  1
  C  C52  1  0.04283000  0.01389000  0.55519000  1
  C  C53  1  0.04499000  0.00438000  0.62527000  1
  C  C54  1  0.09135000  0.03524000  0.65635000  1
  C  C55  1  0.82392000  0.11104000  0.45483000  1
  C  C56  1  0.80231000  0.06302000  0.49678000  1
  C  C57  1  0.82948000  0.03930000  0.50657000  1
  C  C58  1  0.87839000  0.06335000  0.47432000  1
  C  C59  1  0.89949000  0.11053000  0.43095000  1
  C  C60  1  0.87236000  0.13436000  0.42134000  1
  C  C61  1  0.82999000  0.61961000  0.56625000  1
  C  C62  1  0.80543000  0.64764000  0.57634000  1
  C  C63  1  0.83381000  0.70669000  0.57607000  1
  C  C64  1  0.88716000  0.73828000  0.56713000  1
  C  C65  1  0.91177000  0.71005000  0.56185000  1
  C  C66  1  0.88327000  0.65103000  0.55961000  1
  C  C67  1  0.28877000  0.15894000  0.66961000  1
  C  C68  1  0.25577000  0.09988000  0.67354000  1
  C  C69  1  0.20424000  0.07317000  0.66295000  1
  C  C70  1  0.18543000  0.10545000  0.64848000  1
  C  C71  1  0.21731000  0.16465000  0.65253000  1
  C  C72  1  0.26885000  0.19133000  0.66335000  1
  C  C73  1  0.72375000  0.44648000  0.02810000  1
  C  C74  1  0.52444000  0.29193000  0.07625000  1
  C  C75  1  0.67976000  0.32657000  0.14274000  1
  C  C76  1  0.76076000  0.28824000  0.96056000  1
  C  C77  1  0.65944000  0.35001000  0.91590000  1
  C  C78  1  0.69190000  0.38285000  0.51094000  1
  C  C79  1  0.50052000  0.24323000  0.62684000  1
  C  C80  1  0.67011000  0.29542000  0.62694000  1
  C  C81  1  0.71118000  0.21144000  0.44926000  1
  C  C82  1  0.59142000  0.25546000  0.42085000  1
  C  C83  1  0.66247000  0.33708000  0.84187000  1
  C  C84  1  0.62042000  0.31620000  0.80154000  1
  C  C85  1  0.62304000  0.30096000  0.73221000  1
  C  C86  1  0.66746000  0.30750000  0.70187000  1
  C  C87  1  0.70932000  0.32734000  0.74281000  1
  C  C88  1  0.70631000  0.34183000  0.81264000  1
  C  C89  1  0.56634000  0.34962000  0.80904000  1
  C  C90  1  0.79655000  0.38754000  0.70107000  1
  C  C91  1  0.61781000  0.27315000  0.35129000  1
  C  C92  1  0.60938000  0.23278000  0.29922000  1
  C  C93  1  0.63019000  0.25098000  0.23131000  1
  C  C94  1  0.65740000  0.30843000  0.21391000  1
  C  C95  1  0.66416000  0.34842000  0.26529000  1
  C  C96  1  0.64481000  0.33051000  0.33343000  1
  C  C97  1  0.60513000  0.15238000  0.34015000  1
  C  C98  1  0.64898000  0.41683000  0.23253000  1
  C  C99  1  0.73389000  0.44229000  0.52265000  1
  C  C100  1  0.75587000  0.48220000  0.46814000  1
  C  C101  1  0.78800000  0.54006000  0.48332000  1
  C  C102  1  0.79995000  0.55843000  0.55166000  1
  C  C103  1  0.78008000  0.51830000  0.60578000  1
  C  C104  1  0.74654000  0.46074000  0.59094000  1
  C  C105  1  0.78915000  0.47371000  0.35643000  1
  C  C106  1  0.84128000  0.54407000  0.68962000  1
  C  C107  1  0.74353000  0.19002000  0.44851000  1
  C  C108  1  0.76829000  0.19474000  0.50810000  1
  C  C109  1  0.79504000  0.16930000  0.50920000  1
  C  C110  1  0.79775000  0.13978000  0.45116000  1
  C  C111  1  0.77443000  0.13661000  0.39069000  1
  C  C112  1  0.74758000  0.16210000  0.38958000  1
  C  C113  1  0.81285000  0.28247000  0.56892000  1
  C  C114  1  0.73110000  0.04970000  0.32780000  1
  C  C115  1  0.44697000  0.22397000  0.63862000  1
  C  C116  1  0.42395000  0.21516000  0.70638000  1
  C  C117  1  0.37271000  0.19698000  0.71625000  1
  C  C118  1  0.34402000  0.18559000  0.65908000  1
  C  C119  1  0.36715000  0.19475000  0.59139000  1
  C  C120  1  0.41856000  0.21398000  0.58154000  1
  C  C121  1  0.43863000  0.16810000  0.79000000  1
  C  C122  1  0.34906000  0.23422000  0.50154000  1
  C  C123  1  0.74535000  0.50572000  0.01024000  1
  C  C124  1  0.76514000  0.54812000  0.06158000  1
  C  C125  1  0.79109000  0.60519000  0.04225000  1
  C  C126  1  0.79765000  0.62003000  0.97223000  1
  C  C127  1  0.77597000  0.57752000  0.92134000  1
  C  C128  1  0.75030000  0.52051000  0.94056000  1
  C  C129  1  0.80620000  0.54051000  0.15412000  1
  C  C130  1  0.73485000  0.58182000  0.82637000  1
  C  C131  1  0.78644000  0.25984000  0.93900000  1
  C  C132  1  0.78428000  0.22039000  0.98279000  1
  C  C133  1  0.81054000  0.19536000  0.96182000  1
  C  C134  1  0.83895000  0.20944000  0.89781000  1
  C  C135  1  0.84016000  0.24784000  0.85344000  1
  C  C136  1  0.81444000  0.27342000  0.87468000  1
  C  C137  1  0.79018000  0.23920000  0.10452000  1
  C  C138  1  0.83254000  0.22829000  0.73210000  1
  C  C139  1  0.37655000  0.22970000  0.01371000  1
  C  C140  1  0.41951000  0.27819000  0.98191000  1
  C  C141  1  0.46773000  0.30108000  0.00641000  1
  C  C142  1  0.47335000  0.27562000  0.06195000  1
  C  C143  1  0.43012000  0.22852000  0.09550000  1
  C  C144  1  0.38176000  0.20612000  0.07164000  1
  C  C145  1  0.41238000  0.35200000  0.94659000  1
  C  C146  1  0.43222000  0.15156000  0.13298000  1
  N  N1  1  0.02949000  0.02722000  0.83355000  1
  N  N2  1  0.99756000  0.97676000  0.51834000  1
  N  N3  1  0.57378000  0.30709000  0.83247000  1
  N  N4  1  0.75349000  0.32921000  0.71497000  1
  N  N5  1  0.57686000  0.17300000  0.31335000  1
  N  N6  1  0.68748000  0.40691000  0.24793000  1
  N  N7  1  0.74424000  0.46408000  0.39753000  1
  N  N8  1  0.79284000  0.53549000  0.67638000  1
  N  N9  1  0.76617000  0.22555000  0.56770000  1
  N  N10  1  0.77752000  0.10674000  0.33068000  1
  N  N11  1  0.45214000  0.22275000  0.76511000  1
  N  N12  1  0.33759000  0.18223000  0.53245000  1
  N  N13  1  0.75975000  0.53319000  0.13335000  1
  N  N14  1  0.78211000  0.59260000  0.84954000  1
  N  N15  1  0.75619000  0.20663000  0.04931000  1
  N  N16  1  0.86748000  0.26065000  0.78643000  1
  N  N17  1  0.41411000  0.30366000  0.92385000  1
  N  N18  1  0.43549000  0.20325000  0.15381000  1
  O  O1  1  0.78280000  0.34209000  0.95742000  1
  O  O2  1  0.66233000  0.32146000  0.96292000  1
  O  O3  1  0.68256000  0.41972000  0.07071000  1
  O  O4  1  0.71781000  0.26441000  0.99659000  1
  O  O5  1  0.63118000  0.36741000  0.93912000  1
  O  O6  1  0.55868000  0.34268000  0.09562000  1
  O  O7  1  0.54578000  0.27106000  0.03972000  1
  O  O8  1  0.72578000  0.34125000  0.12474000  1
  O  O9  1  0.65199000  0.30897000  0.08998000  1
  O  O10  1  0.75149000  0.42551000  0.01225000  1
  O  O11  1  0.72842000  0.26112000  0.42597000  1
  O  O12  1  0.60834000  0.24180000  0.46945000  1
  O  O13  1  0.64537000  0.36623000  0.53591000  1
  O  O14  1  0.67630000  0.19784000  0.49835000  1
  O  O15  1  0.56596000  0.27558000  0.44720000  1
  O  O16  1  0.53629000  0.29626000  0.62034000  1
  O  O17  1  0.51313000  0.21368000  0.59001000  1
  O  O18  1  0.71073000  0.30416000  0.59310000  1
  O  O19  1  0.63016000  0.26456000  0.59187000  1
  O  O20  1  0.69965000  0.35114000  0.46654000  1
