# generated using pymatgen
data_Ni2H5C15O7
_symmetry_space_group_name_H-M   'P 1'
_cell_length_a   20.09446000
_cell_length_b   17.01649000
_cell_length_c   51.48469000
_cell_angle_alpha   90.66931000
_cell_angle_beta   91.08953000
_cell_angle_gamma   110.79620000
_symmetry_Int_Tables_number   1
_chemical_formula_structural   Ni2H5C15O7
_chemical_formula_sum   'Ni24 H60 C180 O84'
_cell_volume   16451.40545059
_cell_formula_units_Z   12
loop_
 _symmetry_equiv_pos_site_id
 _symmetry_equiv_pos_as_xyz
  1  'x, y, z'
loop_
 _atom_site_type_symbol
 _atom_site_label
 _atom_site_symmetry_multiplicity
 _atom_site_fract_x
 _atom_site_fract_y
 _atom_site_fract_z
 _atom_site_occupancy
  Ni  Ni1  1  0.61063000  0.21797000  0.89777000  1
  Ni  Ni2  1  0.71831000  0.30695000  0.85548000  1
  Ni  Ni3  1  0.62579000  0.40897000  0.87855000  1
  Ni  Ni4  1  0.68115000  0.10351000  0.86829000  1
  Ni  Ni5  1  0.64912000  0.40918000  0.61855000  1
  Ni  Ni6  1  0.77526000  0.35706000  0.59768000  1
  Ni  Ni7  1  0.77831000  0.54051000  0.58261000  1
  Ni  Ni8  1  0.65398000  0.22993000  0.63881000  1
  Ni  Ni9  1  0.14196000  0.04333000  0.75013000  1
  Ni  Ni10  1  0.98409000  0.93861000  0.73629000  1
  Ni  Ni11  1  0.08613000  0.00779000  0.68817000  1
  Ni  Ni12  1  0.06336000  0.92395000  0.79665000  1
  Ni  Ni13  1  0.35577000  0.81460000  0.40605000  1
  Ni  Ni14  1  0.24684000  0.72473000  0.36131000  1
  Ni  Ni15  1  0.32474000  0.61037000  0.38981000  1
  Ni  Ni16  1  0.30750000  0.93659000  0.37017000  1
  Ni  Ni17  1  0.33223000  0.60016000  0.10939000  1
  Ni  Ni18  1  0.19134000  0.63614000  0.10039000  1
  Ni  Ni19  1  0.19404000  0.47672000  0.06735000  1
  Ni  Ni20  1  0.33974000  0.78429000  0.12459000  1
  Ni  Ni21  1  0.82806000  0.97571000  0.25427000  1
  Ni  Ni22  1  0.99102000  0.06692000  0.24626000  1
  Ni  Ni23  1  0.89592000  0.98806000  0.19499000  1
  Ni  Ni24  1  0.90695000  0.10251000  0.30211000  1
  H  H1  1  0.58342000  0.27391000  0.85266000  1
  H  H2  1  0.73898000  0.23031000  0.89618000  1
  H  H3  1  0.68742000  0.40123000  0.57074000  1
  H  H4  1  0.74168000  0.37432000  0.64482000  1
  H  H5  1  0.05278000  0.08633000  0.72286000  1
  H  H6  1  0.08350000  0.88690000  0.75204000  1
  H  H7  1  0.37573000  0.73998000  0.36504000  1
  H  H8  1  0.23508000  0.82335000  0.39832000  1
  H  H9  1  0.27341000  0.62215000  0.06655000  1
  H  H10  1  0.26537000  0.64859000  0.14305000  1
  H  H11  1  0.91749000  0.91777000  0.23400000  1
  H  H12  1  0.89574000  0.13161000  0.25580000  1
  H  H13  1  0.59955000  0.19941000  0.45655000  1
  H  H14  1  0.65315000  0.24922000  0.49989000  1
  H  H15  1  0.27574000  0.03139000  0.50975000  1
  H  H16  1  0.32934000  0.08067000  0.55312000  1
  H  H17  1  0.43490000  0.15054000  0.58105000  1
  H  H18  1  0.64121000  0.25771000  0.54714000  1
  H  H19  1  0.49701000  0.11145000  0.42979000  1
  H  H20  1  0.29084000  0.00510000  0.46367000  1
  H  H21  1  0.16705000  0.45408000  0.48870000  1
  H  H22  1  0.08716000  0.41375000  0.52588000  1
  H  H23  1  0.94102000  0.61309000  0.42933000  1
  H  H24  1  0.86226000  0.57504000  0.46681000  1
  H  H25  1  0.83736000  0.51790000  0.51059000  1
  H  H26  1  0.97920000  0.41241000  0.54793000  1
  H  H27  1  0.19663000  0.52121000  0.44636000  1
  H  H28  1  0.05097000  0.62000000  0.40819000  1
  H  H29  1  0.63703000  0.81660000  0.48584000  1
  H  H30  1  0.69473000  0.78493000  0.52492000  1
  H  H31  1  0.32863000  0.50822000  0.51524000  1
  H  H32  1  0.38665000  0.47575000  0.55413000  1
  H  H33  1  0.49476000  0.49618000  0.58022000  1
  H  H34  1  0.69106000  0.69456000  0.56181000  1
  H  H35  1  0.53373000  0.78209000  0.45610000  1
  H  H36  1  0.33623000  0.58723000  0.47530000  1
  H  H37  1  0.08402000  0.66055000  0.96110000  1
  H  H38  1  0.00064000  0.60743000  0.92384000  1
  H  H39  1  0.83613000  0.41652000  0.04148000  1
  H  H40  1  0.75244000  0.36393000  0.00424000  1
  H  H41  1  0.72733000  0.35779000  0.95727000  1
  H  H42  1  0.88572000  0.51303000  0.90606000  1
  H  H43  1  0.11513000  0.64971000  0.00685000  1
  H  H44  1  0.95767000  0.49390000  0.05805000  1
  H  H45  1  0.61058000  0.00085000  0.05556000  1
  H  H46  1  0.67119000  0.07511000  0.01706000  1
  H  H47  1  0.38463000  0.69600000  0.97772000  1
  H  H48  1  0.44372000  0.77188000  0.93916000  1
  H  H49  1  0.52668000  0.90064000  0.92014000  1
  H  H50  1  0.67385000  0.09173000  0.96983000  1
  H  H51  1  0.51156000  0.88732000  0.07448000  1
  H  H52  1  0.36857000  0.69175000  0.02505000  1
  H  H53  1  0.31430000  0.18561000  0.03023000  1
  H  H54  1  0.36343000  0.15367000  0.98963000  1
  H  H55  1  0.45544000  0.60063000  0.00534000  1
  H  H56  1  0.50426000  0.56871000  0.96471000  1
  H  H57  1  0.52661000  0.46654000  0.93547000  1
  H  H58  1  0.43480000  0.20156000  0.95098000  1
  H  H59  1  0.30169000  0.28903000  0.06171000  1
  H  H60  1  0.39097000  0.55332000  0.04545000  1
  C  C1  1  0.75145000  0.40060000  0.90712000  1
  C  C2  1  0.52277000  0.31412000  0.91843000  1
  C  C3  1  0.73242000  0.47526000  0.83726000  1
  C  C4  1  0.53758000  0.10099000  0.85403000  1
  C  C5  1  0.80805000  0.21112000  0.83848000  1
  C  C6  1  0.61608000  0.06373000  0.92141000  1
  C  C7  1  0.85889000  0.51597000  0.62775000  1
  C  C8  1  0.63698000  0.55551000  0.59103000  1
  C  C9  1  0.86132000  0.45092000  0.55528000  1
  C  C10  1  0.57184000  0.24536000  0.59195000  1
  C  C11  1  0.77690000  0.19552000  0.61757000  1
  C  C12  1  0.55444000  0.30855000  0.65926000  1
  C  C13  1  0.03625000  0.82875000  0.70178000  1
  C  C14  1  0.23035000  0.13162000  0.70700000  1
  C  C15  1  0.92909000  0.97320000  0.68705000  1
  C  C16  1  0.07147000  0.09972000  0.79269000  1
  C  C17  1  0.91090000  0.84180000  0.78178000  1
  C  C18  1  0.22249000  0.99533000  0.79297000  1
  C  C19  1  0.18020000  0.60492000  0.40366000  1
  C  C20  1  0.39914000  0.69969000  0.43835000  1
  C  C21  1  0.24305000  0.55559000  0.34091000  1
  C  C22  1  0.44385000  0.91215000  0.36231000  1
  C  C23  1  0.17531000  0.83517000  0.33928000  1
  C  C24  1  0.37045000  0.98351000  0.42461000  1
  C  C25  1  0.11589000  0.45989000  0.11720000  1
  C  C26  1  0.32271000  0.44376000  0.08189000  1
  C  C27  1  0.09924000  0.56961000  0.05231000  1
  C  C28  1  0.39358000  0.74851000  0.07478000  1
  C  C29  1  0.19241000  0.78704000  0.12960000  1
  C  C30  1  0.44223000  0.70552000  0.14531000  1
  C  C31  1  0.95602000  0.16996000  0.20406000  1
  C  C32  1  0.74733000  0.87737000  0.20939000  1
  C  C33  1  0.05002000  0.01319000  0.20118000  1
  C  C34  1  0.89151000  0.92500000  0.30032000  1
  C  C35  1  0.06158000  0.17078000  0.29267000  1
  C  C36  1  0.74950000  0.02405000  0.29797000  1
  C  C37  1  0.97994000  0.23369000  0.18482000  1
  C  C38  1  0.00619000  0.28664000  0.16894000  1
  C  C39  1  0.04199000  0.34772000  0.15070000  1
  C  C40  1  0.07507000  0.39917000  0.13535000  1
  C  C41  1  0.50402000  0.72513000  0.16184000  1
  C  C42  1  0.55847000  0.74934000  0.17456000  1
  C  C43  1  0.62392000  0.78634000  0.18799000  1
  C  C44  1  0.68045000  0.82473000  0.19833000  1
  C  C45  1  0.16487000  0.83527000  0.14646000  1
  C  C46  1  0.14246000  0.87691000  0.16048000  1
  C  C47  1  0.11485000  0.92596000  0.17622000  1
  C  C48  1  0.08797000  0.96699000  0.18854000  1
  C  C49  1  0.51053000  0.94083000  0.34908000  1
  C  C50  1  0.56655000  0.96453000  0.33802000  1
  C  C51  1  0.63182000  0.99024000  0.32480000  1
  C  C52  1  0.68651000  0.00862000  0.31298000  1
  C  C53  1  0.10151000  0.25249000  0.30337000  1
  C  C54  1  0.13441000  0.32225000  0.31171000  1
  C  C55  1  0.17242000  0.40433000  0.32127000  1
  C  C56  1  0.20468000  0.47403000  0.32979000  1
  C  C57  1  0.11468000  0.85342000  0.33001000  1
  C  C58  1  0.06279000  0.86756000  0.32268000  1
  C  C59  1  0.00183000  0.88447000  0.31455000  1
  C  C60  1  0.95052000  0.90096000  0.30791000  1
  C  C61  1  0.56582000  0.18704000  0.47332000  1
  C  C62  1  0.59633000  0.21498000  0.49797000  1
  C  C63  1  0.55384000  0.19770000  0.52005000  1
  C  C64  1  0.47980000  0.15426000  0.51723000  1
  C  C65  1  0.44903000  0.12674000  0.49241000  1
  C  C66  1  0.49246000  0.14141000  0.47046000  1
  C  C67  1  0.37540000  0.08074000  0.48971000  1
  C  C68  1  0.33251000  0.06594000  0.51167000  1
  C  C69  1  0.36301000  0.09360000  0.53632000  1
  C  C70  1  0.43674000  0.13664000  0.53931000  1
  C  C71  1  0.46793000  0.16249000  0.56405000  1
  C  C72  1  0.54155000  0.20630000  0.56684000  1
  C  C73  1  0.58441000  0.22337000  0.54489000  1
  C  C74  1  0.46291000  0.10492000  0.44633000  1
  C  C75  1  0.39135000  0.05110000  0.44436000  1
  C  C76  1  0.34661000  0.04479000  0.46548000  1
  C  C77  1  0.11812000  0.46735000  0.48838000  1
  C  C78  1  0.07274000  0.44449000  0.50953000  1
  C  C79  1  0.00952000  0.46214000  0.50969000  1
  C  C80  1  0.99137000  0.50211000  0.48826000  1
  C  C81  1  0.03679000  0.52455000  0.46689000  1
  C  C82  1  0.10066000  0.50769000  0.46704000  1
  C  C83  1  0.01884000  0.56510000  0.44558000  1
  C  C84  1  0.95542000  0.58226000  0.44566000  1
  C  C85  1  0.91064000  0.56060000  0.46696000  1
  C  C86  1  0.92850000  0.52111000  0.48840000  1
  C  C87  1  0.88499000  0.50184000  0.51017000  1
  C  C88  1  0.90340000  0.46304000  0.53164000  1
  C  C89  1  0.96500000  0.44205000  0.53124000  1
  C  C90  1  0.14679000  0.53254000  0.44604000  1
  C  C91  1  0.12943000  0.57398000  0.42491000  1
  C  C92  1  0.06496000  0.58913000  0.42462000  1
  C  C93  1  0.60642000  0.76666000  0.49839000  1
  C  C94  1  0.63915000  0.74875000  0.52060000  1
  C  C95  1  0.60080000  0.68313000  0.53681000  1
  C  C96  1  0.52826000  0.63727000  0.53118000  1
  C  C97  1  0.49527000  0.65543000  0.50887000  1
  C  C98  1  0.53487000  0.71940000  0.49218000  1
  C  C99  1  0.42328000  0.60796000  0.50284000  1
  C  C100  1  0.38423000  0.54436000  0.51956000  1
  C  C101  1  0.41714000  0.52602000  0.54166000  1
  C  C102  1  0.48945000  0.57116000  0.54734000  1
  C  C103  1  0.52415000  0.54859000  0.56825000  1
  C  C104  1  0.59761000  0.59065000  0.57286000  1
  C  C105  1  0.63490000  0.66038000  0.55784000  1
  C  C106  1  0.50294000  0.73407000  0.46923000  1
  C  C107  1  0.43170000  0.68555000  0.46287000  1
  C  C108  1  0.39168000  0.62349000  0.47992000  1
  C  C109  1  0.89195000  0.01508000  0.67176000  1
  C  C110  1  0.86366000  0.05336000  0.65881000  1
  C  C111  1  0.83282000  0.10100000  0.64384000  1
  C  C112  1  0.80734000  0.14348000  0.63148000  1
  C  C113  1  0.48521000  0.28298000  0.67052000  1
  C  C114  1  0.42679000  0.25662000  0.67976000  1
  C  C115  1  0.35816000  0.21979000  0.69012000  1
  C  C116  1  0.29962000  0.18281000  0.69832000  1
  C  C117  1  0.91629000  0.56732000  0.64428000  1
  C  C118  1  0.95872000  0.62012000  0.65795000  1
  C  C119  1  0.99870000  0.68997000  0.67359000  1
  C  C120  1  0.02242000  0.75327000  0.68667000  1
  C  C121  1  0.03120000  0.61536000  0.96429000  1
  C  C122  1  0.98394000  0.58499000  0.94312000  1
  C  C123  1  0.91593000  0.52480000  0.94677000  1
  C  C124  1  0.89435000  0.49718000  0.97203000  1
  C  C125  1  0.94187000  0.52788000  0.99333000  1
  C  C126  1  0.01110000  0.58570000  0.98935000  1
  C  C127  1  0.92150000  0.49745000  0.01844000  1
  C  C128  1  0.85255000  0.43959000  0.02223000  1
  C  C129  1  0.80510000  0.40950000  0.00106000  1
  C  C130  1  0.82604000  0.43695000  0.97586000  1
  C  C131  1  0.77992000  0.40420000  0.95443000  1
  C  C132  1  0.80166000  0.43102000  0.92925000  1
  C  C133  1  0.86956000  0.49132000  0.92548000  1
  C  C134  1  0.06077000  0.60859000  0.01010000  1
  C  C135  1  0.04252000  0.57196000  0.03446000  1
  C  C136  1  0.97184000  0.52085000  0.03904000  1
  C  C137  1  0.59208000  0.97431000  0.03637000  1
  C  C138  1  0.62658000  0.01642000  0.01450000  1
  C  C139  1  0.60218000  0.98435000  0.98943000  1
  C  C140  1  0.54484000  0.90724000  0.98635000  1
  C  C141  1  0.51037000  0.86452000  0.00839000  1
  C  C142  1  0.53304000  0.89931000  0.03345000  1
  C  C143  1  0.45143000  0.78882000  0.00532000  1
  C  C144  1  0.42902000  0.75489000  0.98027000  1
  C  C145  1  0.46276000  0.79788000  0.95836000  1
  C  C146  1  0.51961000  0.87509000  0.96123000  1
  C  C147  1  0.54869000  0.92294000  0.93938000  1
  C  C148  1  0.60200000  0.00291000  0.94260000  1
  C  C149  1  0.63146000  0.03095000  0.96747000  1
  C  C150  1  0.49514000  0.86003000  0.05520000  1
  C  C151  1  0.43517000  0.78625000  0.05208000  1
  C  C152  1  0.41435000  0.74954000  0.02728000  1
  C  C153  1  0.34452000  0.23669000  0.01798000  1
  C  C154  1  0.37243000  0.21855000  0.99491000  1
  C  C155  1  0.41253000  0.28391000  0.97890000  1
  C  C156  1  0.42336000  0.36800000  0.98586000  1
  C  C157  1  0.39526000  0.38627000  0.00906000  1
  C  C158  1  0.35629000  0.32039000  0.02533000  1
  C  C159  1  0.40734000  0.47049000  0.01626000  1
  C  C160  1  0.44608000  0.53574000  0.99999000  1
  C  C161  1  0.47396000  0.51761000  0.97694000  1
  C  C162  1  0.46356000  0.43400000  0.96989000  1
  C  C163  1  0.49420000  0.41575000  0.94742000  1
  C  C164  1  0.48507000  0.33215000  0.94078000  1
  C  C165  1  0.44307000  0.26626000  0.95632000  1
  C  C166  1  0.33088000  0.33926000  0.04896000  1
  C  C167  1  0.34494000  0.42326000  0.05647000  1
  C  C168  1  0.38178000  0.48855000  0.03986000  1
  C  C169  1  0.02121000  0.13592000  0.80189000  1
  C  C170  1  0.97627000  0.16118000  0.81005000  1
  C  C171  1  0.92063000  0.18498000  0.81992000  1
  C  C172  1  0.87068000  0.20006000  0.82843000  1
  C  C173  1  0.29083000  0.00729000  0.80463000  1
  C  C174  1  0.34894000  0.02297000  0.81461000  1
  C  C175  1  0.41664000  0.04665000  0.82697000  1
  C  C176  1  0.47314000  0.07021000  0.83856000  1
  C  C177  1  0.76913000  0.54951000  0.82290000  1
  C  C178  1  0.80067000  0.61527000  0.81259000  1
  C  C179  1  0.83830000  0.69435000  0.80178000  1
  C  C180  1  0.87103000  0.76211000  0.79286000  1
  O  O1  1  0.61973000  0.29678000  0.86671000  1
  O  O2  1  0.52978000  0.24032000  0.91678000  1
  O  O3  1  0.53039000  0.36048000  0.89770000  1
  O  O4  1  0.53394000  0.12024000  0.87850000  1
  O  O5  1  0.61598000  0.03677000  0.89702000  1
  O  O6  1  0.68530000  0.39716000  0.90972000  1
  O  O7  1  0.73585000  0.40271000  0.82967000  1
  O  O8  1  0.70050000  0.21637000  0.88272000  1
  O  O9  1  0.60905000  0.13667000  0.92642000  1
  O  O10  1  0.80913000  0.28757000  0.84400000  1
  O  O11  1  0.74702000  0.14734000  0.83674000  1
  O  O12  1  0.59746000  0.10024000  0.84459000  1
  O  O13  1  0.77615000  0.39220000  0.88391000  1
  O  O14  1  0.71527000  0.48544000  0.86124000  1
  O  O15  1  0.71439000  0.42427000  0.58708000  1
  O  O16  1  0.60224000  0.49079000  0.60518000  1
  O  O17  1  0.70575000  0.59366000  0.59477000  1
  O  O18  1  0.57163000  0.32066000  0.59696000  1
  O  O19  1  0.59619000  0.26623000  0.66526000  1
  O  O20  1  0.81077000  0.54663000  0.62038000  1
  O  O21  1  0.83473000  0.37528000  0.56510000  1
  O  O22  1  0.71249000  0.34558000  0.62945000  1
  O  O23  1  0.58104000  0.38403000  0.64912000  1
  O  O24  1  0.81794000  0.27008000  0.61007000  1
  O  O25  1  0.70762000  0.17322000  0.61554000  1
  O  O26  1  0.57412000  0.19664000  0.61120000  1
  O  O27  1  0.86098000  0.44630000  0.61704000  1
  O  O28  1  0.86524000  0.51759000  0.56950000  1
  O  O29  1  0.06512000  0.03493000  0.72301000  1
  O  O30  1  0.21279000  0.14224000  0.73103000  1
  O  O31  1  0.19661000  0.06044000  0.69410000  1
  O  O32  1  0.10085000  0.12050000  0.77002000  1
  O  O33  1  0.16651000  0.93044000  0.80002000  1
  O  O34  1  0.09321000  0.89426000  0.69739000  1
  O  O35  1  0.90964000  0.95167000  0.71114000  1
  O  O36  1  0.06751000  0.93179000  0.75876000  1
  O  O37  1  0.21550000  0.05769000  0.77957000  1
  O  O38  1  0.90466000  0.85240000  0.75675000  1
  O  O39  1  0.95510000  0.90226000  0.79647000  1
  O  O40  1  0.08870000  0.04718000  0.80734000  1
  O  O41  1  0.98221000  0.83757000  0.71372000  1
  O  O42  1  0.98117000  0.95378000  0.67649000  1
  O  O43  1  0.33777000  0.72356000  0.37801000  1
  O  O44  1  0.42306000  0.77406000  0.42782000  1
  O  O45  1  0.34021000  0.64208000  0.42917000  1
  O  O46  1  0.44336000  0.89365000  0.38709000  1
  O  O47  1  0.37613000  0.00324000  0.39961000  1
  O  O48  1  0.21745000  0.55982000  0.39600000  1
  O  O49  1  0.21646000  0.61632000  0.33850000  1
  O  O50  1  0.27382000  0.82682000  0.38628000  1
  O  O51  1  0.36794000  0.90874000  0.43208000  1
  O  O52  1  0.16754000  0.75648000  0.34387000  1
  O  O53  1  0.23944000  0.89312000  0.33779000  1
  O  O54  1  0.38629000  0.91458000  0.35043000  1
  O  O55  1  0.17535000  0.66557000  0.38909000  1
  O  O56  1  0.30531000  0.56913000  0.35251000  1
  O  O57  1  0.25385000  0.58623000  0.08155000  1
  O  O58  1  0.36669000  0.50852000  0.09500000  1
  O  O59  1  0.25444000  0.41878000  0.08664000  1
  O  O60  1  0.40500000  0.68560000  0.08626000  1
  O  O61  1  0.43447000  0.76773000  0.13182000  1
  O  O62  1  0.11054000  0.43905000  0.09243000  1
  O  O63  1  0.10119000  0.59700000  0.07663000  1
  O  O64  1  0.27840000  0.66650000  0.12504000  1
  O  O65  1  0.40925000  0.62665000  0.13765000  1
  O  O66  1  0.15091000  0.71102000  0.12175000  1
  O  O67  1  0.25419000  0.82437000  0.11872000  1
  O  O68  1  0.35327000  0.78538000  0.08549000  1
  O  O69  1  0.14563000  0.53874000  0.12493000  1
  O  O70  1  0.14387000  0.53396000  0.04403000  1
  O  O71  1  0.90863000  0.97095000  0.23172000  1
  O  O72  1  0.75877000  0.87354000  0.23449000  1
  O  O73  1  0.78509000  0.94425000  0.19642000  1
  O  O74  1  0.85742000  0.89749000  0.27821000  1
  O  O75  1  0.80380000  0.09563000  0.30137000  1
  O  O76  1  0.89599000  0.10708000  0.20013000  1
  O  O77  1  0.06652000  0.04091000  0.22546000  1
  O  O78  1  0.90676000  0.08564000  0.26429000  1
  O  O79  1  0.74650000  0.97164000  0.27843000  1
  O  O80  1  0.07053000  0.15329000  0.26839000  1
  O  O81  1  0.01315000  0.11627000  0.30655000  1
  O  O82  1  0.87727000  0.98173000  0.31407000  1
  O  O83  1  0.00252000  0.16558000  0.22172000  1
  O  O84  1  0.00230000  0.03342000  0.18747000  1
