# generated using pymatgen
data_Co6C62Br24N6O21F8
_symmetry_space_group_name_H-M   'P 1'
_cell_length_a   20.50190000
_cell_length_b   21.62991000
_cell_length_c   39.42454000
_cell_angle_alpha   60.78007000
_cell_angle_beta   118.93055000
_cell_angle_gamma   133.29508000
_symmetry_Int_Tables_number   1
_chemical_formula_structural   Co6C62Br24N6O21F8
_chemical_formula_sum   'Co12 C124 Br48 N12 O42 F16'
_cell_volume   10795.69158541
_cell_formula_units_Z   2
loop_
 _symmetry_equiv_pos_site_id
 _symmetry_equiv_pos_as_xyz
  1  'x, y, z'
loop_
 _atom_site_type_symbol
 _atom_site_label
 _atom_site_symmetry_multiplicity
 _atom_site_fract_x
 _atom_site_fract_y
 _atom_site_fract_z
 _atom_site_occupancy
  Co  Co1  1  0.04613000  0.01568000  0.04230000  1
  Co  Co2  1  0.09353000  0.89424000  0.04680000  1
  Co  Co3  1  0.09678000  0.05676000  0.54028000  1
  Co  Co4  1  0.14882000  0.94259000  0.54024000  1
  Co  Co5  1  0.05853000  0.89597000  0.60535000  1
  Co  Co6  1  0.01635000  0.09571000  0.57789000  1
  Co  Co7  1  0.99784000  0.85224000  0.10787000  1
  Co  Co8  1  0.97332000  0.06617000  0.07863000  1
  Co  Co9  1  0.90761000  0.89408000  0.13818000  1
  Co  Co10  1  0.85695000  0.01253000  0.13384000  1
  Co  Co11  1  0.97126000  0.93016000  0.64149000  1
  Co  Co12  1  0.89925000  0.02913000  0.63754000  1
  C  C1  1  0.02466000  0.97046000  0.75697000  1
  C  C2  1  0.07321000  0.96879000  0.89727000  1
  C  C3  1  0.06944000  0.96408000  0.93299000  1
  C  C4  1  0.03123000  0.96635000  0.31141000  1
  C  C5  1  0.01676000  0.95058000  0.27662000  1
  C  C6  1  0.07052000  0.32045000  0.63401000  1
  C  C7  1  0.04532000  0.17691000  0.13365000  1
  C  C8  1  0.05980000  0.21332000  0.61748000  1
  C  C9  1  0.11528000  0.29356000  0.63201000  1
  C  C10  1  0.09667000  0.04339000  0.77377000  1
  C  C11  1  0.03184000  0.04106000  0.36426000  1
  C  C12  1  0.09106000  0.04809000  0.80649000  1
  C  C13  1  0.01490000  0.97863000  0.82387000  1
  C  C14  1  0.00784000  0.97352000  0.93333000  1
  C  C15  1  0.04227000  0.05478000  0.39866000  1
  C  C16  1  0.12091000  0.40728000  0.63550000  1
  C  C17  1  0.01409000  0.98026000  0.86116000  1
  C  C18  1  0.08673000  0.32958000  0.10491000  1
  C  C19  1  0.09310000  0.26482000  0.13839000  1
  C  C20  1  0.10574000  0.40073000  0.11046000  1
  C  C21  1  0.02545000  0.98398000  0.46929000  1
  C  C22  1  0.12644000  0.27671000  0.17716000  1
  C  C23  1  0.00901000  0.98334000  0.71381000  1
  C  C24  1  0.14674000  0.34904000  0.18220000  1
  C  C25  1  0.14509000  0.41545000  0.14879000  1
  C  C26  1  0.16390000  0.71832000  0.17544000  1
  C  C27  1  0.17019000  0.85581000  0.13262000  1
  C  C28  1  0.18457000  0.75078000  0.64006000  1
  C  C29  1  0.95217000  0.89822000  0.77633000  1
  C  C30  1  0.94687000  0.90248000  0.80938000  1
  C  C31  1  0.20418000  0.71157000  0.63032000  1
  C  C32  1  0.96928000  0.95575000  0.35819000  1
  C  C33  1  0.90994000  0.91208000  0.21028000  1
  C  C34  1  0.22809000  0.89947000  0.62590000  1
  C  C35  1  0.92668000  0.90234000  0.25346000  1
  C  C36  1  0.25312000  0.83727000  0.64381000  1
  C  C37  1  0.21213000  0.80669000  0.15355000  1
  C  C38  1  0.22556000  0.08942000  0.03304000  1
  C  C39  1  0.27437000  0.13664000  0.52633000  1
  C  C40  1  0.34585000  0.86900000  0.65398000  1
  C  C41  1  0.29553000  0.73860000  0.64216000  1
  C  C42  1  0.17748000  0.66087000  0.17639000  1
  C  C43  1  0.23796000  0.69239000  0.15468000  1
  C  C44  1  0.28636000  0.83940000  0.14100000  1
  C  C45  1  0.70448000  0.28478000  0.01842000  1
  C  C46  1  0.58761000  0.28401000  0.01738000  1
  C  C47  1  0.74216000  0.40424000  0.03081000  1
  C  C48  1  0.76318000  0.30303000  0.54033000  1
  C  C49  1  0.64481000  0.30804000  0.53217000  1
  C  C50  1  0.79869000  0.42029000  0.55367000  1
  C  C51  1  0.26090000  0.63674000  0.15773000  1
  C  C52  1  0.36949000  0.63008000  0.15597000  1
  C  C53  1  0.21538000  0.50667000  0.15258000  1
  C  C54  1  0.31697000  0.69053000  0.63647000  1
  C  C55  1  0.40927000  0.69392000  0.61535000  1
  C  C56  1  0.27196000  0.55973000  0.63191000  1
  C  C57  1  0.92903000  0.71747000  0.07177000  1
  C  C58  1  0.71078000  0.83422000  0.11918000  1
  C  C59  1  0.98810000  0.94478000  0.97240000  1
  C  C60  1  0.83751000  0.10759000  0.04863000  1
  C  C61  1  0.98828000  0.76353000  0.56663000  1
  C  C62  1  0.77964000  0.84109000  0.64023000  1
  C  C63  1  0.83708000  0.07824000  0.55189000  1
  C  C64  1  0.95115000  0.98906000  0.89674000  1
  C  C65  1  0.95403000  0.99214000  0.86076000  1
  C  C66  1  0.95623000  0.93953000  0.32155000  1
  C  C67  1  0.86705000  0.89204000  0.29808000  1
  C  C68  1  0.85200000  0.86675000  0.26703000  1
  C  C69  1  0.98726000  0.98434000  0.42618000  1
  C  C70  1  0.91470000  0.90325000  0.41611000  1
  C  C71  1  0.91150000  0.88672000  0.38491000  1
  C  C72  1  0.21794000  0.46179000  0.64273000  1
  C  C73  1  0.26262000  0.42390000  0.65308000  1
  C  C74  1  0.21194000  0.34182000  0.64569000  1
  C  C75  1  0.63789000  0.72947000  0.66465000  1
  C  C76  1  0.67900000  0.77689000  0.63238000  1
  C  C77  1  0.62494000  0.78494000  0.59323000  1
  C  C78  1  0.53600000  0.75824000  0.58742000  1
  C  C79  1  0.50459000  0.72953000  0.62066000  1
  C  C80  1  0.55671000  0.71572000  0.65957000  1
  C  C81  1  0.36691000  0.81638000  0.65630000  1
  C  C82  1  0.53114000  0.67846000  0.17665000  1
  C  C83  1  0.45660000  0.67758000  0.14612000  1
  C  C84  1  0.45937000  0.70668000  0.10568000  1
  C  C85  1  0.54028000  0.74524000  0.09631000  1
  C  C86  1  0.61898000  0.75912000  0.12701000  1
  C  C87  1  0.61013000  0.71438000  0.16660000  1
  C  C88  1  0.28813000  0.78219000  0.13490000  1
  C  C89  1  0.72957000  0.10698000  0.54194000  1
  C  C90  1  0.81245000  0.14059000  0.53636000  1
  C  C91  1  0.88009000  0.23301000  0.52867000  1
  C  C92  1  0.86693000  0.28760000  0.53107000  1
  C  C93  1  0.78917000  0.24919000  0.54372000  1
  C  C94  1  0.72578000  0.15698000  0.55287000  1
  C  C95  1  0.89771000  0.58148000  0.52807000  1
  C  C96  1  0.86460000  0.50918000  0.56055000  1
  C  C97  1  0.86381000  0.52078000  0.59259000  1
  C  C98  1  0.88261000  0.59945000  0.58937000  1
  C  C99  1  0.92455000  0.67436000  0.55907000  1
  C  C100  1  0.92983000  0.66401000  0.52770000  1
  C  C101  1  0.48900000  0.27084000  0.49347000  1
  C  C102  1  0.54806000  0.26091000  0.53039000  1
  C  C103  1  0.52135000  0.22460000  0.56623000  1
  C  C104  1  0.43570000  0.19783000  0.56499000  1
  C  C105  1  0.37335000  0.19996000  0.52805000  1
  C  C106  1  0.40294000  0.24298000  0.49244000  1
  C  C107  1  0.69558000  0.09409000  0.02909000  1
  C  C108  1  0.77679000  0.13587000  0.01912000  1
  C  C109  1  0.81851000  0.22430000  0.99747000  1
  C  C110  1  0.79728000  0.27481000  0.99764000  1
  C  C111  1  0.73181000  0.23485000  0.01875000  1
  C  C112  1  0.68224000  0.14312000  0.03539000  1
  C  C113  1  0.86693000  0.56021000  0.09213000  1
  C  C114  1  0.86393000  0.63024000  0.06268000  1
  C  C115  1  0.82605000  0.62602000  0.02243000  1
  C  C116  1  0.80691000  0.56124000  0.01121000  1
  C  C117  1  0.80912000  0.49071000  0.04056000  1
  C  C118  1  0.84431000  0.49325000  0.08103000  1
  C  C119  1  0.47905000  0.20501000  0.05932000  1
  C  C120  1  0.49362000  0.23344000  0.02130000  1
  C  C121  1  0.42361000  0.23027000  0.98683000  1
  C  C122  1  0.33844000  0.19591000  0.99049000  1
  C  C123  1  0.32107000  0.15965000  0.02863000  1
  C  C124  1  0.39392000  0.17132000  0.06272000  1
  Br  Br1  1  0.05694000  0.44512000  0.63342000  1
  Br  Br2  1  0.11874000  0.65430000  0.58755000  1
  Br  Br3  1  0.10336000  0.68394000  0.21286000  1
  Br  Br4  1  0.11782000  0.54244000  0.20897000  1
  Br  Br5  1  0.08104000  0.67801000  0.66250000  1
  Br  Br6  1  0.06456000  0.32801000  0.05199000  1
  Br  Br7  1  0.08230000  0.48094000  0.06534000  1
  Br  Br8  1  0.15421000  0.19976000  0.22293000  1
  Br  Br9  1  0.98455000  0.28610000  0.51062000  1
  Br  Br10  1  0.95053000  0.23516000  0.64643000  1
  Br  Br11  1  0.98442000  0.76277000  0.48487000  1
  Br  Br12  1  0.18322000  0.36079000  0.23502000  1
  Br  Br13  1  0.38779000  0.96159000  0.13421000  1
  Br  Br14  1  0.32627000  0.26576000  0.44255000  1
  Br  Br15  1  0.24526000  0.19880000  0.94341000  1
  Br  Br16  1  0.27318000  0.28974000  0.66153000  1
  Br  Br17  1  0.38996000  0.47887000  0.68173000  1
  Br  Br18  1  0.51885000  0.68088000  0.70583000  1
  Br  Br19  1  0.69326000  0.68357000  0.71551000  1
  Br  Br20  1  0.45581000  0.75659000  0.53460000  1
  Br  Br21  1  0.67178000  0.83093000  0.54797000  1
  Br  Br22  1  0.49004000  0.84748000  0.68149000  1
  Br  Br23  1  0.44252000  0.97971000  0.66801000  1
  Br  Br24  1  0.69600000  0.68708000  0.20441000  1
  Br  Br25  1  0.52492000  0.63061000  0.23185000  1
  Br  Br26  1  0.53909000  0.76394000  0.04308000  1
  Br  Br27  1  0.35183000  0.69086000  0.06347000  1
  Br  Br28  1  0.34542000  0.82470000  0.09411000  1
  Br  Br29  1  0.64454000  0.09789000  0.58639000  1
  Br  Br30  1  0.62117000  0.99236000  0.53468000  1
  Br  Br31  1  0.95612000  0.41300000  0.51782000  1
  Br  Br32  1  0.89424000  0.56642000  0.48267000  1
  Br  Br33  1  0.84259000  0.60141000  0.62388000  1
  Br  Br34  1  0.83550000  0.42811000  0.64059000  1
  Br  Br35  1  0.52673000  0.32355000  0.44444000  1
  Br  Br36  1  0.40420000  0.15978000  0.61374000  1
  Br  Br37  1  0.60293000  0.21257000  0.61700000  1
  Br  Br38  1  0.60908000  0.08665000  0.07229000  1
  Br  Br39  1  0.60492000  0.97043000  0.03542000  1
  Br  Br40  1  0.85384000  0.39530000  0.96760000  1
  Br  Br41  1  0.89171000  0.27077000  0.96296000  1
  Br  Br42  1  0.85942000  0.40376000  0.12130000  1
  Br  Br43  1  0.89394000  0.55217000  0.14744000  1
  Br  Br44  1  0.77246000  0.56605000  0.95550000  1
  Br  Br45  1  0.78983000  0.70172000  0.98364000  1
  Br  Br46  1  0.37741000  0.14285000  0.11382000  1
  Br  Br47  1  0.57578000  0.21192000  0.10669000  1
  Br  Br48  1  0.44471000  0.27349000  0.93467000  1
  N  N1  1  0.61339000  0.24607000  0.01232000  1
  N  N2  1  0.65161000  0.36403000  0.02492000  1
  N  N3  1  0.76967000  0.36406000  0.02843000  1
  N  N4  1  0.67227000  0.26983000  0.52870000  1
  N  N5  1  0.70802000  0.38394000  0.54346000  1
  N  N6  1  0.82715000  0.37872000  0.55335000  1
  N  N7  1  0.34954000  0.67400000  0.16009000  1
  N  N8  1  0.30325000  0.54579000  0.15389000  1
  N  N9  1  0.19293000  0.55288000  0.15311000  1
  N  N10  1  0.39285000  0.73652000  0.62299000  1
  N  N11  1  0.34301000  0.60854000  0.61491000  1
  N  N12  1  0.25917000  0.60078000  0.64333000  1
  O  O1  1  0.03143000  0.10634000  0.03534000  1
  O  O2  1  0.10413000  0.83362000  0.14477000  1
  O  O3  1  0.04469000  0.92427000  0.06792000  1
  O  O4  1  0.07593000  0.14195000  0.53417000  1
  O  O5  1  0.10262000  0.96966000  0.56504000  1
  O  O6  1  0.06261000  0.16994000  0.10721000  1
  O  O7  1  0.09678000  0.20180000  0.60304000  1
  O  O8  1  0.00516000  0.96917000  0.09891000  1
  O  O9  1  0.06367000  0.01012000  0.59911000  1
  O  O10  1  0.07490000  0.81015000  0.56695000  1
  O  O11  1  0.01637000  0.76183000  0.07395000  1
  O  O12  1  0.03676000  0.92214000  0.49333000  1
  O  O13  1  0.02147000  0.02577000  0.48370000  1
  O  O14  1  0.00164000  0.04722000  0.68871000  1
  O  O15  1  0.01003000  0.93596000  0.70149000  1
  O  O16  1  0.17005000  0.88541000  0.63999000  1
  O  O17  1  0.17585000  0.02404000  0.01707000  1
  O  O18  1  0.98951000  0.10673000  0.15741000  1
  O  O19  1  0.95225000  0.90362000  0.19761000  1
  O  O20  1  0.19261000  0.91494000  0.09913000  1
  O  O21  1  0.25135000  0.95855000  0.59222000  1
  O  O22  1  0.97068000  0.16210000  0.61281000  1
  O  O23  1  0.84145000  0.91581000  0.18559000  1
  O  O24  1  0.18704000  0.09839000  0.04748000  1
  O  O25  1  0.22528000  0.07248000  0.50965000  1
  O  O26  1  0.23519000  0.14592000  0.54019000  1
  O  O27  1  0.92037000  0.99091000  0.11642000  1
  O  O28  1  0.92955000  0.80706000  0.14781000  1
  O  O29  1  0.73267000  0.91424000  0.10709000  1
  O  O30  1  0.76401000  0.81997000  0.11867000  1
  O  O31  1  0.98547000  0.87623000  0.99820000  1
  O  O32  1  0.98831000  0.99486000  0.98344000  1
  O  O33  1  0.86521000  0.11396000  0.08479000  1
  O  O34  1  0.86106000  0.07387000  0.03990000  1
  O  O35  1  0.90146000  0.74862000  0.07966000  1
  O  O36  1  0.97099000  0.02021000  0.61825000  1
  O  O37  1  0.99875000  0.84897000  0.64914000  1
  O  O38  1  0.81979000  0.89511000  0.66151000  1
  O  O39  1  0.82925000  0.84643000  0.62552000  1
  O  O40  1  0.80784000  0.01352000  0.58307000  1
  O  O41  1  0.89909000  0.09541000  0.53936000  1
  O  O42  1  0.96148000  0.79211000  0.57692000  1
  F  F1  1  0.13161000  0.95757000  0.89813000  1
  F  F2  1  0.11989000  0.94232000  0.96780000  1
  F  F3  1  0.08223000  0.11040000  0.33707000  1
  F  F4  1  0.10779000  0.13568000  0.40583000  1
  F  F5  1  0.11758000  0.00772000  0.33487000  1
  F  F6  1  0.15950000  0.12059000  0.82113000  1
  F  F7  1  0.09016000  0.98396000  0.26513000  1
  F  F8  1  0.16895000  0.11276000  0.75642000  1
  F  F9  1  0.88397000  0.82581000  0.76174000  1
  F  F10  1  0.87553000  0.83264000  0.82721000  1
  F  F11  1  0.89007000  0.99658000  0.89613000  1
  F  F12  1  0.89745000  0.00501000  0.82584000  1
  F  F13  1  0.79460000  0.87193000  0.30475000  1
  F  F14  1  0.85461000  0.83667000  0.44001000  1
  F  F15  1  0.85405000  0.80309000  0.38136000  1
  F  F16  1  0.76409000  0.81552000  0.24697000  1
