# generated using pymatgen
data_Co6H34C66(S4O7)3
_symmetry_space_group_name_H-M   'P 1'
_cell_length_a   20.53823000
_cell_length_b   21.29765000
_cell_length_c   41.75205000
_cell_angle_alpha   60.64280000
_cell_angle_beta   119.10204000
_cell_angle_gamma   133.32634000
_symmetry_Int_Tables_number   1
_chemical_formula_structural   Co6H34C66(S4O7)3
_chemical_formula_sum   'Co12 H68 C132 S24 O42'
_cell_volume   11250.82041143
_cell_formula_units_Z   2
loop_
 _symmetry_equiv_pos_site_id
 _symmetry_equiv_pos_as_xyz
  1  'x, y, z'
loop_
 _atom_site_type_symbol
 _atom_site_label
 _atom_site_symmetry_multiplicity
 _atom_site_fract_x
 _atom_site_fract_y
 _atom_site_fract_z
 _atom_site_occupancy
  Co  Co1  1  0.01863000  0.86677000  0.09385000  1
  Co  Co2  1  0.05811000  0.11809000  0.07044000  1
  Co  Co3  1  0.98680000  0.95091000  0.13081000  1
  Co  Co4  1  0.09884000  0.03724000  0.03697000  1
  Co  Co5  1  0.07765000  0.87564000  0.03253000  1
  Co  Co6  1  0.97303000  0.10128000  0.12480000  1
  Co  Co7  1  0.95016000  0.83899000  0.58374000  1
  Co  Co8  1  0.98533000  0.08515000  0.56280000  1
  Co  Co9  1  0.92738000  0.92306000  0.62475000  1
  Co  Co10  1  0.01692000  0.00301000  0.52568000  1
  Co  Co11  1  0.95772000  0.83263000  0.50947000  1
  Co  Co12  1  0.90157000  0.06537000  0.61851000  1
  H  H1  1  0.85889000  0.45775000  0.00413000  1
  H  H2  1  0.63409000  0.35467000  0.04212000  1
  H  H3  1  0.64616000  0.17464000  0.02978000  1
  H  H4  1  0.56466000  0.10922000  0.53956000  1
  H  H5  1  0.54322000  0.27446000  0.55847000  1
  H  H6  1  0.77053000  0.39426000  0.51717000  1
  H  H7  1  0.20858000  0.53127000  0.15557000  1
  H  H8  1  0.46544000  0.58611000  0.17208000  1
  H  H9  1  0.46478000  0.78277000  0.17658000  1
  H  H10  1  0.40017000  0.76372000  0.65736000  1
  H  H11  1  0.38861000  0.54631000  0.66694000  1
  H  H12  1  0.13774000  0.51759000  0.63482000  1
  H  H13  1  0.14165000  0.12418000  0.79267000  1
  H  H14  1  0.13957000  0.14113000  0.84665000  1
  H  H15  1  0.88103000  0.88077000  0.85573000  1
  H  H16  1  0.88283000  0.86404000  0.80150000  1
  H  H17  1  0.87107000  0.94396000  0.32673000  1
  H  H18  1  0.88895000  0.93129000  0.27612000  1
  H  H19  1  0.18171000  0.07182000  0.32389000  1
  H  H20  1  0.16358000  0.08327000  0.37498000  1
  H  H21  1  0.30713000  0.38218000  0.72949000  1
  H  H22  1  0.07579000  0.38731000  0.51776000  1
  H  H23  1  0.20899000  0.51816000  0.57905000  1
  H  H24  1  0.16539000  0.23844000  0.67089000  1
  H  H25  1  0.57059000  0.79171000  0.54839000  1
  H  H26  1  0.59146000  0.73222000  0.74883000  1
  H  H27  1  0.70833000  0.75932000  0.70088000  1
  H  H28  1  0.45340000  0.76530000  0.59616000  1
  H  H29  1  0.29440000  0.69931000  0.72560000  1
  H  H30  1  0.23437000  0.89067000  0.52400000  1
  H  H31  1  0.22772000  0.72669000  0.57783000  1
  H  H32  1  0.12583000  0.73376000  0.66169000  1
  H  H33  1  0.37486000  0.29286000  0.18850000  1
  H  H34  1  0.18063000  0.56440000  0.07550000  1
  H  H35  1  0.20366000  0.42521000  0.06401000  1
  H  H36  1  0.31957000  0.39739000  0.20247000  1
  H  H37  1  0.43625000  0.76155000  0.07430000  1
  H  H38  1  0.79053000  0.70710000  0.21965000  1
  H  H39  1  0.63219000  0.71452000  0.22292000  1
  H  H40  1  0.66595000  0.88778000  0.09112000  1
  H  H41  1  0.38438000  0.73768000  0.24279000  1
  H  H42  1  0.09520000  0.73150000  0.03821000  1
  H  H43  1  0.27221000  0.72319000  0.09731000  1
  H  H44  1  0.19909000  0.75069000  0.18529000  1
  H  H45  1  0.66057000  0.09926000  0.43657000  1
  H  H46  1  0.87823000  0.28684000  0.60420000  1
  H  H47  1  0.93721000  0.28089000  0.54174000  1
  H  H48  1  0.60910000  0.15656000  0.48092000  1
  H  H49  1  0.61027000  0.47285000  0.44854000  1
  H  H50  1  0.83979000  0.53482000  0.64969000  1
  H  H51  1  0.80379000  0.42958000  0.59501000  1
  H  H52  1  0.64809000  0.57632000  0.50452000  1
  H  H53  1  0.27929000  0.92646000  0.63632000  1
  H  H54  1  0.44903000  0.24027000  0.45342000  1
  H  H55  1  0.23998000  0.06013000  0.47684000  1
  H  H56  1  0.45615000  0.08343000  0.60364000  1
  H  H57  1  0.01443000  0.48329000  0.04393000  1
  H  H58  1  0.68239000  0.02454000  0.99925000  1
  H  H59  1  0.69799000  0.21394000  0.97383000  1
  H  H60  1  0.01676000  0.31985000  0.04781000  1
  H  H61  1  0.79759000  0.75161000  0.94349000  1
  H  H62  1  0.81866000  0.39044000  0.11999000  1
  H  H63  1  0.89732000  0.60990000  0.09581000  1
  H  H64  1  0.72444000  0.53593000  0.97093000  1
  H  H65  1  0.58107000  0.04682000  0.10994000  1
  H  H66  1  0.31105000  0.24356000  0.97104000  1
  H  H67  1  0.48239000  0.23985000  0.97803000  1
  H  H68  1  0.40294000  0.04219000  0.10214000  1
  C  C1  1  0.76191000  0.31360000  0.01854000  1
  C  C2  1  0.79717000  0.40129000  0.01454000  1
  C  C3  1  0.75331000  0.41509000  0.02522000  1
  C  C4  1  0.66937000  0.34346000  0.03513000  1
  C  C5  1  0.62853000  0.25811000  0.03461000  1
  C  C6  1  0.67612000  0.24212000  0.02798000  1
  C  C7  1  0.67772000  0.24973000  0.52981000  1
  C  C8  1  0.59278000  0.17478000  0.53952000  1
  C  C9  1  0.54121000  0.18557000  0.54659000  1
  C  C10  1  0.58091000  0.26763000  0.55059000  1
  C  C11  1  0.66479000  0.34274000  0.54102000  1
  C  C12  1  0.71054000  0.33492000  0.52826000  1
  C  C13  1  0.33108000  0.65800000  0.16878000  1
  C  C14  1  0.28324000  0.57360000  0.16329000  1
  C  C15  1  0.33221000  0.54885000  0.16359000  1
  C  C16  1  0.42804000  0.60496000  0.17217000  1
  C  C17  1  0.47511000  0.69108000  0.17405000  1
  C  C18  1  0.42785000  0.71559000  0.17515000  1
  C  C19  1  0.26341000  0.64189000  0.64920000  1
  C  C20  1  0.36025000  0.69453000  0.65772000  1
  C  C21  1  0.40477000  0.66106000  0.66224000  1
  C  C22  1  0.35356000  0.57214000  0.66277000  1
  C  C23  1  0.25782000  0.52173000  0.65090000  1
  C  C24  1  0.21204000  0.55558000  0.64493000  1
  C  C25  1  0.88692000  0.74063000  0.03901000  1
  C  C26  1  0.26210000  0.04381000  0.04804000  1
  C  C27  1  0.06127000  0.03035000  0.19676000  1
  C  C28  1  0.15232000  0.25982000  0.10679000  1
  C  C29  1  0.82035000  0.90565000  0.13933000  1
  C  C30  1  0.11449000  0.79037000  0.11138000  1
  C  C31  1  0.05428000  0.00376000  0.96329000  1
  C  C32  1  0.90958000  0.14958000  0.04207000  1
  C  C33  1  0.80931000  0.67907000  0.54861000  1
  C  C34  1  0.15786000  0.99125000  0.53115000  1
  C  C35  1  0.00197000  0.00564000  0.68948000  1
  C  C36  1  0.07769000  0.22669000  0.59832000  1
  C  C37  1  0.75727000  0.86774000  0.63510000  1
  C  C38  1  0.06493000  0.79368000  0.58671000  1
  C  C39  1  0.95814000  0.97671000  0.44672000  1
  C  C40  1  0.83247000  0.11016000  0.53627000  1
  C  C41  1  0.01359000  0.99193000  0.79376000  1
  C  C42  1  0.08487000  0.07062000  0.80641000  1
  C  C43  1  0.08286000  0.08095000  0.83672000  1
  C  C44  1  0.00927000  0.01299000  0.85469000  1
  C  C45  1  0.93745000  0.93456000  0.84181000  1
  C  C46  1  0.93930000  0.92433000  0.81137000  1
  C  C47  1  0.01089000  0.98613000  0.75943000  1
  C  C48  1  0.00809000  0.98860000  0.72892000  1
  C  C49  1  0.01636000  0.01667000  0.89057000  1
  C  C50  1  0.02848000  0.01538000  0.92253000  1
  C  C51  1  0.01621000  0.01605000  0.35413000  1
  C  C52  1  0.93906000  0.97235000  0.32621000  1
  C  C53  1  0.94908000  0.96409000  0.29768000  1
  C  C54  1  0.03637000  0.99931000  0.29664000  1
  C  C55  1  0.11372000  0.04306000  0.32457000  1
  C  C56  1  0.10359000  0.05077000  0.35333000  1
  C  C57  1  0.00347000  0.01517000  0.38611000  1
  C  C58  1  0.98705000  0.00561000  0.41331000  1
  C  C59  1  0.04777000  0.00137000  0.26393000  1
  C  C60  1  0.05512000  0.00874000  0.23470000  1
  C  C61  1  0.20912000  0.44335000  0.63735000  1
  C  C62  1  0.19606000  0.45574000  0.59897000  1
  C  C63  1  0.17125000  0.38997000  0.58654000  1
  C  C64  1  0.15269000  0.30808000  0.61200000  1
  C  C65  1  0.17530000  0.29965000  0.65080000  1
  C  C66  1  0.19963000  0.36490000  0.66343000  1
  C  C67  1  0.66351000  0.80297000  0.64074000  1
  C  C68  1  0.65196000  0.75902000  0.67790000  1
  C  C69  1  0.57070000  0.72014000  0.68591000  1
  C  C70  1  0.49852000  0.72243000  0.65636000  1
  C  C71  1  0.50975000  0.76558000  0.61915000  1
  C  C72  1  0.59088000  0.80418000  0.61115000  1
  C  C73  1  0.21743000  0.68560000  0.63448000  1
  C  C74  1  0.20551000  0.72813000  0.59616000  1
  C  C75  1  0.16512000  0.77231000  0.58100000  1
  C  C76  1  0.13408000  0.77383000  0.60441000  1
  C  C77  1  0.14974000  0.73419000  0.64342000  1
  C  C78  1  0.19137000  0.69025000  0.65855000  1
  C  C79  1  0.22782000  0.34390000  0.11857000  1
  C  C80  1  0.23045000  0.41982000  0.09422000  1
  C  C81  1  0.25681000  0.48328000  0.10876000  1
  C  C82  1  0.28481000  0.47316000  0.14828000  1
  C  C83  1  0.29145000  0.40211000  0.17233000  1
  C  C84  1  0.26756000  0.34046000  0.15743000  1
  C  C85  1  0.56811000  0.75892000  0.16685000  1
  C  C86  1  0.64012000  0.75367000  0.19430000  1
  C  C87  1  0.71908000  0.79266000  0.18440000  1
  C  C88  1  0.72856000  0.84099000  0.14691000  1
  C  C89  1  0.65761000  0.84804000  0.11966000  1
  C  C90  1  0.57870000  0.80923000  0.12954000  1
  C  C91  1  0.28042000  0.69662000  0.15524000  1
  C  C92  1  0.25581000  0.72869000  0.11650000  1
  C  C93  1  0.20955000  0.76685000  0.10184000  1
  C  C94  1  0.18667000  0.77452000  0.12663000  1
  C  C95  1  0.21602000  0.74629000  0.16594000  1
  C  C96  1  0.26268000  0.70734000  0.18034000  1
  C  C97  1  0.80844000  0.17372000  0.51711000  1
  C  C98  1  0.86403000  0.24914000  0.53089000  1
  C  C99  1  0.82358000  0.27469000  0.53632000  1
  C  C100  1  0.72893000  0.23843000  0.51941000  1
  C  C101  1  0.67942000  0.17977000  0.49650000  1
  C  C102  1  0.71742000  0.14425000  0.49674000  1
  C  C103  1  0.70222000  0.42995000  0.54313000  1
  C  C104  1  0.77182000  0.46331000  0.57459000  1
  C  C105  1  0.79851000  0.53844000  0.58042000  1
  C  C106  1  0.75732000  0.58279000  0.55383000  1
  C  C107  1  0.68188000  0.54413000  0.52448000  1
  C  C108  1  0.65665000  0.47053000  0.51811000  1
  C  C109  1  0.25504000  0.03131000  0.53635000  1
  C  C110  1  0.28689000  0.06491000  0.50459000  1
  C  C111  1  0.37937000  0.10700000  0.50818000  1
  C  C112  1  0.44164000  0.11625000  0.54397000  1
  C  C113  1  0.40853000  0.07688000  0.57607000  1
  C  C114  1  0.31663000  0.03713000  0.57246000  1
  C  C115  1  0.81388000  0.29548000  0.01303000  1
  C  C116  1  0.76603000  0.23392000  0.99185000  1
  C  C117  1  0.80146000  0.19095000  0.99720000  1
  C  C118  1  0.88926000  0.21597000  0.02091000  1
  C  C119  1  0.94511000  0.29257000  0.03387000  1
  C  C120  1  0.90574000  0.32621000  0.03381000  1
  C  C121  1  0.83411000  0.64818000  0.03797000  1
  C  C122  1  0.85942000  0.59388000  0.06851000  1
  C  C123  1  0.84435000  0.52454000  0.06314000  1
  C  C124  1  0.79590000  0.50351000  0.02768000  1
  C  C125  1  0.76532000  0.55422000  0.99777000  1
  C  C126  1  0.78199000  0.62464000  0.00301000  1
  C  C127  1  0.53169000  0.18883000  0.03632000  1
  C  C128  1  0.46475000  0.19605000  0.00506000  1
  C  C129  1  0.37856000  0.15424000  0.00932000  1
  C  C130  1  0.35652000  0.09963000  0.04466000  1
  C  C131  1  0.42108000  0.08703000  0.07528000  1
  C  C132  1  0.50852000  0.13147000  0.07129000  1
  S  S1  1  0.16216000  0.41017000  0.53884000  1
  S  S2  1  0.21608000  0.34675000  0.71186000  1
  S  S3  1  0.56062000  0.67011000  0.73313000  1
  S  S4  1  0.60072000  0.85377000  0.56391000  1
  S  S5  1  0.14981000  0.82128000  0.53211000  1
  S  S6  1  0.20829000  0.63987000  0.70726000  1
  S  S7  1  0.25646000  0.57609000  0.07714000  1
  S  S8  1  0.28879000  0.25996000  0.18756000  1
  S  S9  1  0.80627000  0.78119000  0.21931000  1
  S  S10  1  0.49338000  0.82381000  0.09486000  1
  S  S11  1  0.17879000  0.80168000  0.05213000  1
  S  S12  1  0.29616000  0.67063000  0.22954000  1
  S  S13  1  0.88868000  0.34084000  0.56855000  1
  S  S14  1  0.64949000  0.06068000  0.47283000  1
  S  S15  1  0.88226000  0.57517000  0.62136000  1
  S  S16  1  0.57031000  0.43191000  0.47781000  1
  S  S17  1  0.41753000  0.15280000  0.46726000  1
  S  S18  1  0.28196000  0.00065000  0.61300000  1
  S  S19  1  0.73391000  0.10365000  0.97549000  1
  S  S20  1  0.96764000  0.39624000  0.06394000  1
  S  S21  1  0.88631000  0.46416000  0.10107000  1
  S  S22  1  0.73611000  0.68223000  0.96578000  1
  S  S23  1  0.29986000  0.17286000  0.97045000  1
  S  S24  1  0.58886000  0.11572000  0.11033000  1
  O  O1  1  0.07251000  0.10472000  0.17339000  1
  O  O2  1  0.00405000  0.05110000  0.10628000  1
  O  O3  1  0.98427000  0.84664000  0.13823000  1
  O  O4  1  0.11951000  0.14826000  0.03379000  1
  O  O5  1  0.01543000  0.98361000  0.07644000  1
  O  O6  1  0.05478000  0.97615000  0.18582000  1
  O  O7  1  0.05689000  0.77091000  0.07976000  1
  O  O8  1  0.12102000  0.84259000  0.12312000  1
  O  O9  1  0.06809000  0.23064000  0.10087000  1
  O  O10  1  0.16754000  0.21745000  0.09954000  1
  O  O11  1  0.87816000  0.97638000  0.15258000  1
  O  O12  1  0.84867000  0.88433000  0.12634000  1
  O  O13  1  0.10453000  0.97468000  0.98356000  1
  O  O14  1  0.03937000  0.03283000  0.97912000  1
  O  O15  1  0.05672000  0.92878000  0.05405000  1
  O  O16  1  0.87958000  0.09320000  0.07312000  1
  O  O17  1  0.96948000  0.15725000  0.03318000  1
  O  O18  1  0.93767000  0.80396000  0.01398000  1
  O  O19  1  0.90092000  0.75658000  0.07013000  1
  O  O20  1  0.21661000  0.95682000  0.05590000  1
  O  O21  1  0.23427000  0.07926000  0.05271000  1
  O  O22  1  0.00537000  0.07638000  0.66603000  1
  O  O23  1  0.93355000  0.01760000  0.59912000  1
  O  O24  1  0.94215000  0.82986000  0.63298000  1
  O  O25  1  0.05057000  0.11660000  0.52743000  1
  O  O26  1  0.93659000  0.94953000  0.56665000  1
  O  O27  1  0.00250000  0.95686000  0.67817000  1
  O  O28  1  0.99860000  0.75977000  0.55826000  1
  O  O29  1  0.06428000  0.83665000  0.60133000  1
  O  O30  1  0.99311000  0.19549000  0.59337000  1
  O  O31  1  0.09369000  0.18346000  0.59223000  1
  O  O32  1  0.81225000  0.93893000  0.64783000  1
  O  O33  1  0.79022000  0.84472000  0.62573000  1
  O  O34  1  0.90440000  0.89190000  0.46051000  1
  O  O35  1  0.99574000  0.03347000  0.46596000  1
  O  O36  1  0.95942000  0.89086000  0.53842000  1
  O  O37  1  0.80517000  0.05193000  0.56762000  1
  O  O38  1  0.89700000  0.12563000  0.52693000  1
  O  O39  1  0.82531000  0.73178000  0.51527000  1
  O  O40  1  0.83438000  0.71079000  0.57629000  1
  O  O41  1  0.09404000  0.94402000  0.50534000  1
  O  O42  1  0.13972000  0.02029000  0.54524000  1
