# generated using pymatgen
data_Co6H12C56Br4N6(O7F4)3
_symmetry_space_group_name_H-M   'P 1'
_cell_length_a   20.97339000
_cell_length_b   21.48358000
_cell_length_c   31.68166000
_cell_angle_alpha   60.91505000
_cell_angle_beta   118.78460000
_cell_angle_gamma   133.29623000
_symmetry_Int_Tables_number   1
_chemical_formula_structural   Co6H12C56Br4N6(O7F4)3
_chemical_formula_sum   'Co12 H24 C112 Br8 N12 O42 F24'
_cell_volume   8829.84257511
_cell_formula_units_Z   2
loop_
 _symmetry_equiv_pos_site_id
 _symmetry_equiv_pos_as_xyz
  1  'x, y, z'
loop_
 _atom_site_type_symbol
 _atom_site_label
 _atom_site_symmetry_multiplicity
 _atom_site_fract_x
 _atom_site_fract_y
 _atom_site_fract_z
 _atom_site_occupancy
  Co  Co1  1  0.06480000  0.02668000  0.04949000  1
  Co  Co2  1  0.10764000  0.90035000  0.05777000  1
  Co  Co3  1  0.05436000  0.01708000  0.55063000  1
  Co  Co4  1  0.09097000  0.88740000  0.55816000  1
  Co  Co5  1  0.02020000  0.86813000  0.13473000  1
  Co  Co6  1  0.00696000  0.85882000  0.63635000  1
  Co  Co7  1  0.99316000  0.08336000  0.09053000  1
  Co  Co8  1  0.98559000  0.07894000  0.59009000  1
  Co  Co9  1  0.94875000  0.92451000  0.17571000  1
  Co  Co10  1  0.90304000  0.04699000  0.16849000  1
  Co  Co11  1  0.93998000  0.92124000  0.67637000  1
  Co  Co12  1  0.89817000  0.04978000  0.66599000  1
  H  H1  1  0.06542000  0.67577000  0.68457000  1
  H  H2  1  0.08266000  0.68643000  0.18477000  1
  H  H3  1  0.12626000  0.27288000  0.21606000  1
  H  H4  1  0.14280000  0.26469000  0.71938000  1
  H  H5  1  0.17577000  0.51634000  0.57425000  1
  H  H6  1  0.68798000  0.76720000  0.76229000  1
  H  H7  1  0.47608000  0.76053000  0.59709000  1
  H  H8  1  0.39013000  0.82615000  0.70879000  1
  H  H9  1  0.19492000  0.52373000  0.06680000  1
  H  H10  1  0.64577000  0.84567000  0.09349000  1
  H  H11  1  0.52909000  0.69035000  0.24483000  1
  H  H12  1  0.40494000  0.84055000  0.19958000  1
  H  H13  1  0.92336000  0.26258000  0.53729000  1
  H  H14  1  0.60146000  0.10853000  0.52350000  1
  H  H15  1  0.85395000  0.66741000  0.51031000  1
  H  H16  1  0.82472000  0.42216000  0.65926000  1
  H  H17  1  0.46414000  0.08068000  0.56805000  1
  H  H18  1  0.36269000  0.25107000  0.54263000  1
  H  H19  1  0.93511000  0.26324000  0.04354000  1
  H  H20  1  0.61133000  0.11781000  0.01826000  1
  H  H21  1  0.82866000  0.43098000  0.15260000  1
  H  H22  1  0.86693000  0.68156000  0.00559000  1
  H  H23  1  0.37136000  0.12403000  0.12282000  1
  H  H24  1  0.47418000  0.24291000  0.97144000  1
  C  C1  1  0.06247000  0.22531000  0.13217000  1
  C  C2  1  0.06045000  0.22227000  0.63132000  1
  C  C3  1  0.00046000  0.00232000  0.76078000  1
  C  C4  1  0.05893000  0.95421000  0.90363000  1
  C  C5  1  0.05788000  0.96732000  0.85484000  1
  C  C6  1  0.04855000  0.95257000  0.35792000  1
  C  C7  1  0.04800000  0.94068000  0.40603000  1
  C  C8  1  0.00645000  0.96621000  0.91142000  1
  C  C9  1  0.00457000  0.94807000  0.96385000  1
  C  C10  1  0.12587000  0.31159000  0.63972000  1
  C  C11  1  0.13569000  0.38347000  0.59899000  1
  C  C12  1  0.13616000  0.70908000  0.68926000  1
  C  C13  1  0.12476000  0.31570000  0.13836000  1
  C  C14  1  0.14264000  0.32790000  0.18358000  1
  C  C15  1  0.14372000  0.38695000  0.09627000  1
  C  C16  1  0.99991000  0.99384000  0.26354000  1
  C  C17  1  0.99961000  0.98554000  0.81318000  1
  C  C18  1  0.23839000  0.09502000  0.03898000  1
  C  C19  1  0.18412000  0.86661000  0.16413000  1
  C  C20  1  0.22666000  0.07824000  0.54451000  1
  C  C21  1  0.16893000  0.85665000  0.66467000  1
  C  C22  1  0.18282000  0.39750000  0.69464000  1
  C  C23  1  0.15158000  0.32006000  0.68765000  1
  C  C24  1  0.16339000  0.66507000  0.68857000  1
  C  C25  1  0.19880000  0.79815000  0.69135000  1
  C  C26  1  0.17756000  0.40964000  0.18659000  1
  C  C27  1  0.15296000  0.72025000  0.18788000  1
  C  C28  1  0.21554000  0.80993000  0.18851000  1
  C  C29  1  0.17923000  0.67618000  0.18643000  1
  C  C30  1  0.71829000  0.27380000  0.04393000  1
  C  C31  1  0.60433000  0.25858000  0.05541000  1
  C  C32  1  0.75247000  0.38687000  0.06543000  1
  C  C33  1  0.70918000  0.26934000  0.54379000  1
  C  C34  1  0.59756000  0.25554000  0.55690000  1
  C  C35  1  0.74829000  0.37704000  0.57267000  1
  C  C36  1  0.29725000  0.68207000  0.17658000  1
  C  C37  1  0.25931000  0.57130000  0.15106000  1
  C  C38  1  0.40806000  0.69876000  0.16065000  1
  C  C39  1  0.28529000  0.66985000  0.68393000  1
  C  C40  1  0.40058000  0.68675000  0.67272000  1
  C  C41  1  0.25298000  0.55799000  0.66226000  1
  C  C42  1  0.94639000  0.72612000  0.09275000  1
  C  C43  1  0.82895000  0.08225000  0.06192000  1
  C  C44  1  0.77150000  0.85422000  0.17964000  1
  C  C45  1  0.93308000  0.71335000  0.59656000  1
  C  C46  1  0.82234000  0.08222000  0.55944000  1
  C  C47  1  0.76660000  0.85515000  0.68597000  1
  C  C48  1  0.99339000  0.94010000  0.46355000  1
  C  C49  1  0.94860000  0.98502000  0.86972000  1
  C  C50  1  0.94725000  0.99771000  0.82093000  1
  C  C51  1  0.99426000  0.97469000  0.31513000  1
  C  C52  1  0.94239000  0.98937000  0.32114000  1
  C  C53  1  0.94375000  0.97984000  0.36920000  1
  C  C54  1  0.99757000  0.95712000  0.41200000  1
  C  C55  1  0.16699000  0.46095000  0.60596000  1
  C  C56  1  0.19150000  0.46893000  0.65385000  1
  C  C57  1  0.64150000  0.76472000  0.72621000  1
  C  C58  1  0.66961000  0.79625000  0.68339000  1
  C  C59  1  0.60883000  0.79324000  0.63688000  1
  C  C60  1  0.52266000  0.76308000  0.63313000  1
  C  C61  1  0.49607000  0.73504000  0.67578000  1
  C  C62  1  0.55575000  0.73536000  0.72241000  1
  C  C63  1  0.31889000  0.79299000  0.70260000  1
  C  C64  1  0.25514000  0.70873000  0.69266000  1
  C  C65  1  0.29096000  0.83711000  0.70204000  1
  C  C66  1  0.17874000  0.46876000  0.09929000  1
  C  C67  1  0.19689000  0.48100000  0.14458000  1
  C  C68  1  0.61976000  0.81005000  0.12648000  1
  C  C69  1  0.67354000  0.79670000  0.17322000  1
  C  C70  1  0.63884000  0.75079000  0.21563000  1
  C  C71  1  0.55484000  0.72531000  0.21180000  1
  C  C72  1  0.50300000  0.74251000  0.16542000  1
  C  C73  1  0.53509000  0.78354000  0.12258000  1
  C  C74  1  0.30733000  0.85030000  0.19645000  1
  C  C75  1  0.33426000  0.80642000  0.19573000  1
  C  C76  1  0.26986000  0.72101000  0.18741000  1
  C  C77  1  0.85309000  0.22889000  0.53417000  1
  C  C78  1  0.79063000  0.13881000  0.53442000  1
  C  C79  1  0.69887000  0.09840000  0.52672000  1
  C  C80  1  0.67199000  0.14283000  0.52684000  1
  C  C81  1  0.73631000  0.22908000  0.53394000  1
  C  C82  1  0.82672000  0.27375000  0.53460000  1
  C  C83  1  0.84589000  0.61332000  0.54283000  1
  C  C84  1  0.86935000  0.62360000  0.58980000  1
  C  C85  1  0.86030000  0.55351000  0.63163000  1
  C  C86  1  0.83305000  0.47637000  0.62678000  1
  C  C87  1  0.81039000  0.46647000  0.57981000  1
  C  C88  1  0.81909000  0.53645000  0.53800000  1
  C  C89  1  0.44240000  0.11833000  0.56217000  1
  C  C90  1  0.50233000  0.21002000  0.55401000  1
  C  C91  1  0.47301000  0.25783000  0.54715000  1
  C  C92  1  0.38495000  0.21353000  0.54909000  1
  C  C93  1  0.32416000  0.12194000  0.55566000  1
  C  C94  1  0.35378000  0.07452000  0.56221000  1
  C  C95  1  0.86458000  0.23090000  0.03876000  1
  C  C96  1  0.80071000  0.14205000  0.03615000  1
  C  C97  1  0.70890000  0.10448000  0.02529000  1
  C  C98  1  0.68238000  0.14982000  0.02477000  1
  C  C99  1  0.74720000  0.23380000  0.03514000  1
  C  C100  1  0.83874000  0.27600000  0.03965000  1
  C  C101  1  0.83853000  0.48606000  0.12050000  1
  C  C102  1  0.81462000  0.47659000  0.07313000  1
  C  C103  1  0.82494000  0.54781000  0.03180000  1
  C  C104  1  0.85701000  0.62647000  0.03770000  1
  C  C105  1  0.88163000  0.63623000  0.08509000  1
  C  C106  1  0.87067000  0.56478000  0.12640000  1
  C  C107  1  0.39425000  0.15184000  0.08963000  1
  C  C108  1  0.33572000  0.15306000  0.04269000  1
  C  C109  1  0.36602000  0.18789000  0.00007000  1
  C  C110  1  0.45160000  0.21601000  0.00458000  1
  C  C111  1  0.50889000  0.21194000  0.05156000  1
  C  C112  1  0.48028000  0.18077000  0.09412000  1
  Br  Br1  1  0.11498000  0.89937000  0.46308000  1
  Br  Br2  1  0.12979000  0.91582000  0.95908000  1
  Br  Br3  1  0.12931000  0.94470000  0.35103000  1
  Br  Br4  1  0.14310000  0.96843000  0.84544000  1
  Br  Br5  1  0.87605000  0.03560000  0.76539000  1
  Br  Br6  1  0.86454000  0.98559000  0.87904000  1
  Br  Br7  1  0.86607000  0.99166000  0.37609000  1
  Br  Br8  1  0.86912000  0.02308000  0.26409000  1
  N  N1  1  0.63019000  0.22671000  0.04366000  1
  N  N2  1  0.66571000  0.33756000  0.06686000  1
  N  N3  1  0.77951000  0.35526000  0.05406000  1
  N  N4  1  0.62097000  0.22481000  0.54216000  1
  N  N5  1  0.66203000  0.32874000  0.57432000  1
  N  N6  1  0.77263000  0.34750000  0.55762000  1
  N  N7  1  0.23487000  0.60160000  0.16544000  1
  N  N8  1  0.34496000  0.62118000  0.14753000  1
  N  N9  1  0.38462000  0.72927000  0.17544000  1
  N  N10  1  0.37365000  0.71779000  0.68432000  1
  N  N11  1  0.34001000  0.60793000  0.66117000  1
  N  N12  1  0.22486000  0.58866000  0.67353000  1
  O  O1  1  0.04436000  0.11578000  0.03605000  1
  O  O2  1  0.08565000  0.19814000  0.11587000  1
  O  O3  1  0.06195000  0.93508000  0.08276000  1
  O  O4  1  0.04310000  0.11231000  0.53846000  1
  O  O5  1  0.08386000  0.18812000  0.62100000  1
  O  O6  1  0.04222000  0.92056000  0.58203000  1
  O  O7  1  0.03074000  0.98939000  0.12050000  1
  O  O8  1  0.00780000  0.00170000  0.97682000  1
  O  O9  1  0.00647000  0.06416000  0.23060000  1
  O  O10  1  0.03069000  0.76873000  0.09401000  1
  O  O11  1  0.00693000  0.00051000  0.47652000  1
  O  O12  1  0.00356000  0.07077000  0.72734000  1
  O  O13  1  0.01626000  0.75686000  0.59551000  1
  O  O14  1  0.12337000  0.84939000  0.17990000  1
  O  O15  1  0.11689000  0.85049000  0.68149000  1
  O  O16  1  0.00158000  0.87951000  0.99691000  1
  O  O17  1  0.97874000  0.17973000  0.13359000  1
  O  O18  1  0.20588000  0.92400000  0.12215000  1
  O  O19  1  0.18716000  0.02888000  0.01896000  1
  O  O20  1  0.20290000  0.10824000  0.05587000  1
  O  O21  1  0.98593000  0.86958000  0.49696000  1
  O  O22  1  0.97604000  0.18074000  0.62919000  1
  O  O23  1  0.19025000  0.91078000  0.62226000  1
  O  O24  1  0.17148000  0.01643000  0.52082000  1
  O  O25  1  0.19384000  0.08916000  0.56500000  1
  O  O26  1  0.80569000  0.02598000  0.10367000  1
  O  O27  1  0.95734000  0.01934000  0.14469000  1
  O  O28  1  0.96370000  0.83230000  0.18751000  1
  O  O29  1  0.88208000  0.08972000  0.04523000  1
  O  O30  1  0.82084000  0.91559000  0.20317000  1
  O  O31  1  0.80949000  0.84929000  0.15927000  1
  O  O32  1  0.99023000  0.93625000  0.25025000  1
  O  O33  1  0.92273000  0.75944000  0.10361000  1
  O  O34  1  0.80038000  0.02533000  0.60147000  1
  O  O35  1  0.94364000  0.01319000  0.64223000  1
  O  O36  1  0.95894000  0.83047000  0.69105000  1
  O  O37  1  0.97447000  0.95691000  0.60599000  1
  O  O38  1  0.88345000  0.09908000  0.54417000  1
  O  O39  1  0.81798000  0.92213000  0.70530000  1
  O  O40  1  0.80191000  0.84054000  0.66992000  1
  O  O41  1  0.99774000  0.94841000  0.74842000  1
  O  O42  1  0.91161000  0.74261000  0.61242000  1
  F  F1  1  0.10037000  0.58118000  0.68311000  1
  F  F2  1  0.11632000  0.59097000  0.18321000  1
  F  F3  1  0.11089000  0.37678000  0.55229000  1
  F  F4  1  0.12502000  0.37606000  0.05195000  1
  F  F5  1  0.20824000  0.40442000  0.74136000  1
  F  F6  1  0.19626000  0.42050000  0.23092000  1
  F  F7  1  0.52992000  0.70532000  0.76420000  1
  F  F8  1  0.63484000  0.82394000  0.59504000  1
  F  F9  1  0.35337000  0.92119000  0.70725000  1
  F  F10  1  0.48416000  0.79764000  0.07716000  1
  F  F11  1  0.68927000  0.73586000  0.26106000  1
  F  F12  1  0.36985000  0.93517000  0.20036000  1
  F  F13  1  0.88930000  0.35971000  0.53635000  1
  F  F14  1  0.63643000  0.01304000  0.52370000  1
  F  F15  1  0.79625000  0.52781000  0.49216000  1
  F  F16  1  0.88243000  0.56192000  0.67741000  1
  F  F17  1  0.29516000  0.98657000  0.56548000  1
  F  F18  1  0.52875000  0.34731000  0.53687000  1
  F  F19  1  0.90288000  0.35950000  0.04573000  1
  F  F20  1  0.64538000  0.02069000  0.01959000  1
  F  F21  1  0.89488000  0.57287000  0.17262000  1
  F  F22  1  0.80028000  0.53956000  0.98555000  1
  F  F23  1  0.53593000  0.17861000  0.13983000  1
  F  F24  1  0.31061000  0.19046000  0.95429000  1
