# Generated by REPEAT Assigner based on pymatgen
data_DB0-m29_o90_o82_f0_pts.sym.89
_audit_creation_date              2022-05-24
_audit_creation_method            REPEAT_Assigner
_cell_length_a                    14.516420
_cell_length_b                    16.963675
_cell_length_c                    11.314515
_cell_angle_alpha                 108.077821
_cell_angle_beta                  94.139953
_cell_angle_gamma                 108.183485
_cell_volume                      2471.948995
_symmetry_space_group_name_H-M    P1
_symmetry_Int_Tables_number       1
loop_
    _symmetry_equiv_pos_site_id
    _symmetry_equiv_pos_as_xyz
    1  x,y,z
loop_
    _atom_site_type_symbol
    _atom_site_label
    _atom_site_fract_x
    _atom_site_fract_y
    _atom_site_fract_z
    _atom_type_partial_charge
    C   C1   0.226377  0.997073  0.823877  0.105378
    C   C2   0.145777  0.013429  0.779982  -0.305288
    C   C3   0.070568  0.014626  0.846585  0.195826
    C   C4   0.857191  0.934099  0.837171  0.032018
    C   C5   0.233711  0.987652  0.941912  -0.069285
    C   C6   0.155578  0.987018  0.007992  0.114761
    C   C7   0.069172  0.992643  0.954975  -0.138322
    C   C8   0.989659  0.988871  0.020808  0.076935
    C   C9   0.767944  0.932185  0.785403  -0.228430
    C   C10  0.704839  0.956840  0.861079  0.089071
    C   C11  0.892055  0.973555  0.966625  -0.059439
    C   C12  0.824374  0.989875  0.044173  0.168432
    C   C13  0.727624  0.976224  0.990780  -0.130840
    C   C14  0.166306  0.988396  0.131381  -0.058812
    C   C15  0.096211  0.001104  0.202255  -0.203548
    C   C16  0.009287  0.002427  0.148274  0.158780
    C   C17  0.943643  0.020414  0.224508  -0.174133
    C   C18  0.855029  0.020381  0.174226  -0.172372
    H   H1   0.141040  0.027702  0.693584  0.152136
    H   H2   0.015430  0.037130  0.813580  0.063645
    H   H3   0.898142  0.904030  0.773045  0.057447
    H   H4   0.745219  0.907396  0.683691  0.138979
    H   H5   0.231451  0.986250  0.179601  0.118149
    H   H6   0.109556  0.008899  0.301164  0.147616
    H   H7   0.962988  0.038031  0.325717  0.139327
    H   H8   0.811351  0.043754  0.240249  0.140039
    O   O1   0.569268  0.989727  0.031839  -0.529343
    C   C19  0.648175  0.974182  0.067062  0.564988
    O   O2   0.462606  0.801084  0.049993  -0.467497
    O   O3   0.649989  0.946015  0.162552  -0.459159
    O   O4   0.461568  0.894867  0.241851  -0.463930
    C   C20  0.460214  0.816801  0.170644  0.500694
    Fe  Fe1  0.475684  0.978667  0.149704  1.400686
    O   O5   0.339269  0.933026  0.046825  -0.571877
    O   O6   0.405995  0.067092  0.028551  -0.402448
    C   C21  0.329383  0.994944  0.005998  0.585401
    O   O7   0.528758  0.101169  0.280236  -0.583485
    O   O8   0.388294  0.045574  0.349690  -0.497918
    C   C22  0.469295  0.111645  0.361166  0.579773
    O   O9   0.411199  0.855787  0.523813  -0.580601
    O   O10  0.557550  0.912370  0.467858  -0.508228
    C   C23  0.473714  0.846867  0.446957  0.612466
    O   O11  0.605900  0.015310  0.758142  -0.606356
    O   O12  0.533649  0.878279  0.767937  -0.470246
    C   C24  0.610771  0.951280  0.797623  0.658362
    O   O13  0.296298  0.013333  0.641974  -0.495090
    O   O14  0.492037  0.063108  0.566635  -0.419033
    C   C25  0.494297  0.141377  0.638588  0.446296
    O   O15  0.377005  0.970524  0.774836  -0.509018
    C   C26  0.303585  0.994884  0.745837  0.519574
    O   O16  0.490862  0.156009  0.758746  -0.456462
    Fe  Fe2  0.470547  0.977323  0.656266  1.407181
    C   C27  0.488899  0.198901  0.457234  -0.109137
    C   C28  0.490294  0.267936  0.415232  0.365554
    C   C29  0.499479  0.350549  0.500393  -0.535487
    C   C30  0.508765  0.363262  0.627724  0.049829
    H   H9   0.516397  0.426853  0.695929  0.083221
    C   C31  0.508768  0.295323  0.670146  -0.176117
    H   H10  0.516436  0.308357  0.770717  0.135009
    C   C32  0.497955  0.212244  0.586456  0.100109
    N   N1   0.459663  0.484467  0.524619  -0.268338
    N   N2   0.450275  0.546499  0.481846  -0.253953
    C   C33  0.475233  0.548488  0.370093  0.800624
    N   N3   0.513457  0.489470  0.305030  -0.297346
    N   N4   0.523698  0.428341  0.348446  -0.234589
    C   C34  0.494859  0.423326  0.457057  0.835219
    C   C35  0.462542  0.602035  0.192538  0.063241
    H   H11  0.464995  0.540779  0.128274  0.048380
    C   C36  0.458555  0.666960  0.145516  -0.129191
    H   H12  0.458005  0.654203  0.045765  0.133528
    C   C37  0.459001  0.747714  0.224992  0.040827
    C   C38  0.459209  0.760600  0.353003  0.014903
    C   C39  0.458348  0.693512  0.398115  0.021260
    H   H13  0.462248  0.706096  0.498336  0.074770
    C   C40  0.463269  0.615193  0.319331  -0.387068
    C   C41  0.467461  0.249701  0.279246  -0.080305
    C   C42  0.374162  0.239620  0.225517  -0.114081
    C   C43  0.355874  0.238650  0.103727  0.146906
    Cl  Cl1  0.237905  0.227743  0.036976  -0.135445
    C   C44  0.431152  0.248867  0.035841  -0.052521
    C   C45  0.524263  0.257988  0.088690  -0.052167
    C   C46  0.542397  0.258145  0.210178  -0.073696
    H   H14  0.316139  0.235656  0.280583  0.073267
    H   H15  0.417030  0.249909  0.941401  0.101236
    H   H16  0.583417  0.266445  0.035687  0.101270
    H   H17  0.616384  0.269275  0.253405  0.097490
