# generated using pymatgen
data_CuH12C25NO5
_symmetry_space_group_name_H-M   'P 1'
_cell_length_a   12.20024800
_cell_length_b   13.46695200
_cell_length_c   14.42927500
_cell_angle_alpha   77.68242400
_cell_angle_beta   103.42857400
_cell_angle_gamma   116.28344600
_symmetry_Int_Tables_number   1
_chemical_formula_structural   CuH12C25NO5
_chemical_formula_sum   'Cu2 H24 C50 N2 O10'
_cell_volume   2050.85641143
_cell_formula_units_Z   2
loop_
 _symmetry_equiv_pos_site_id
 _symmetry_equiv_pos_as_xyz
  1  'x, y, z'
loop_
 _atom_site_type_symbol
 _atom_site_label
 _atom_site_symmetry_multiplicity
 _atom_site_fract_x
 _atom_site_fract_y
 _atom_site_fract_z
 _atom_site_occupancy
  Cu  Cu1  1  0.08234400  0.47536300  0.51657800  1
  Cu  Cu2  1  0.88489300  0.52381300  0.47706500  1
  H  H1  1  0.40168100  0.21346100  0.36702700  1
  H  H2  1  0.20889800  0.08350200  0.41055700  1
  H  H3  1  0.37147800  0.79735300  0.50929300  1
  H  H4  1  0.90455400  0.12446200  0.58179800  1
  H  H5  1  0.55448300  0.85810500  0.57930300  1
  H  H6  1  0.77262700  0.92969200  0.62239300  1
  H  H7  1  0.62019100  0.27362600  0.38177700  1
  H  H8  1  0.15707300  0.31305000  0.65921900  1
  H  H9  1  0.53460100  0.30036200  0.67821700  1
  H  H10  1  0.33581600  0.26845500  0.70105600  1
  H  H11  1  0.31587300  0.55970000  0.44038500  1
  H  H12  1  0.81460200  0.67934600  0.33607500  1
  H  H13  1  0.46327600  0.64164000  0.36665300  1
  H  H14  1  0.70685000  0.39493300  0.59850100  1
  H  H15  1  0.80905500  0.79497900  0.51323500  1
  H  H16  1  0.73733400  0.70650600  0.66666667  1
  H  H17  1  0.88672800  0.70556500  0.81381600  1
  H  H18  1  0.11021100  0.79299900  0.80594400  1
  H  H19  1  0.18340100  0.88046500  0.65301600  1
  H  H20  1  0.60549700  0.93369200  0.16321700  1
  H  H21  1  0.42739600  0.93182400  0.04214900  1
  H  H22  1  0.25800300  0.75379500  0.00041300  1
  H  H23  1  0.26813200  0.57652700  0.07865500  1
  H  H24  1  0.44528800  0.57598400  0.19808100  1
  C  C1  1  0.83916800  0.28937500  0.50117500  1
  C  C2  1  0.99055800  0.49286100  0.67712800  1
  C  C3  1  0.12731400  0.70977900  0.48853100  1
  C  C4  1  0.97764600  0.50721000  0.31639800  1
  C  C5  1  0.99282000  0.49096200  0.77723200  1
  C  C6  1  0.99036700  0.49219800  0.85994500  1
  C  C7  1  0.98516600  0.49609300  0.95584200  1
  C  C8  1  0.98019900  0.50034800  0.03734400  1
  C  C9  1  0.97567200  0.50500000  0.13329400  1
  C  C10  1  0.97418600  0.50747900  0.21607400  1
  C  C11  1  0.24521200  0.02049000  0.43344000  1
  C  C12  1  0.21170600  0.83015600  0.48237000  1
  C  C13  1  0.80613800  0.09508500  0.55635400  1
  C  C14  1  0.73208300  0.98456600  0.57933500  1
  C  C15  1  0.60601400  0.94402800  0.55326000  1
  C  C16  1  0.55030200  0.01332500  0.50060200  1
  C  C17  1  0.62571700  0.12592400  0.47537500  1
  C  C18  1  0.42041800  0.97433400  0.47794700  1
  C  C19  1  0.36982300  0.05033600  0.43896300  1
  C  C20  1  0.44332000  0.15721400  0.40522200  1
  C  C21  1  0.56927300  0.19263700  0.41789600  1
  C  C22  1  0.33866900  0.86209200  0.49269200  1
  C  C23  1  0.16781300  0.91289500  0.46348600  1
  C  C24  1  0.75497900  0.16837100  0.50722100  1
  C  C25  1  0.33462100  0.33333333  0.64277000  1
  C  C26  1  0.73705800  0.63881300  0.37448500  1
  C  C27  1  0.63807100  0.66703000  0.34390000  1
  C  C28  1  0.53692800  0.61454400  0.39143100  1
  C  C29  1  0.53367200  0.53135400  0.46838000  1
  C  C30  1  0.63580600  0.50399900  0.49575300  1
  C  C31  1  0.43112800  0.47409800  0.51833200  1
  C  C32  1  0.43290900  0.39075100  0.59280800  1
  C  C33  1  0.53272500  0.36432000  0.61901700  1
  C  C34  1  0.63266900  0.42019600  0.57196200  1
  C  C35  1  0.32569500  0.49663100  0.49691500  1
  C  C36  1  0.23372000  0.35846100  0.61927800  1
  C  C37  1  0.04342800  0.89216700  0.47754000  1
  C  C38  1  0.00108900  0.84178100  0.57123000  1
  C  C39  1  0.87626300  0.79462700  0.57674500  1
  C  C40  1  0.83544900  0.74461200  0.66347300  1
  C  C41  1  0.91914000  0.74399500  0.74586600  1
  C  C42  1  0.04401900  0.79291400  0.74131700  1
  C  C43  1  0.08497200  0.84154200  0.65437000  1
  C  C44  1  0.64510300  0.75662300  0.26309800  1
  C  C45  1  0.53612000  0.75484600  0.19212000  1
  C  C46  1  0.53143100  0.85447800  0.14595100  1
  C  C47  1  0.43109400  0.85397100  0.07785100  1
  C  C48  1  0.33597000  0.75419600  0.05450000  1
  C  C49  1  0.34140400  0.65481800  0.09859700  1
  C  C50  1  0.44132400  0.65488700  0.16679300  1
  N  N1  1  0.22982100  0.43793000  0.54606600  1
  N  N2  1  0.73674800  0.55927600  0.44924500  1
  O  O1  1  0.95956600  0.32021700  0.51541500  1
  O  O2  1  0.79145800  0.36222300  0.48523800  1
  O  O3  1  0.06895700  0.46707800  0.65053200  1
  O  O4  1  0.90891100  0.52088200  0.61600000  1
  O  O5  1  0.17613200  0.63687900  0.50573700  1
  O  O6  1  0.00698800  0.67900600  0.46830700  1
  O  O7  1  0.06268400  0.48263500  0.37737500  1
  O  O8  1  0.89473300  0.52818100  0.34283000  1
  O  O9  1  0.97802600  0.92431500  0.41269800  1
  O  O10  1  0.74532000  0.83412100  0.25356500  1
