# Generated by REPEAT Assigner based on pymatgen
data_DB0-m3_o18_o22_f0_pcu.sym.105_sqe
_audit_creation_date              2022-05-24
_audit_creation_method            REPEAT_Assigner
_cell_length_a                    10.785070
_cell_length_b                    14.863241
_cell_length_c                    16.022326
_cell_angle_alpha                 86.036109
_cell_angle_beta                  90.006924
_cell_angle_gamma                 103.363029
_cell_volume                      2492.547369
_symmetry_space_group_name_H-M    P1
_symmetry_Int_Tables_number       1
loop_
    _symmetry_equiv_pos_site_id
    _symmetry_equiv_pos_as_xyz
    1  x,y,z
loop_
    _atom_site_type_symbol
    _atom_site_label
    _atom_site_fract_x
    _atom_site_fract_y
    _atom_site_fract_z
    _atom_type_partial_charge
    O   O1   0.460502  0.382326  0.605992  -0.676844
    O   O2   0.508340  0.534824  0.638951  -0.658936
    C   C1   0.479425  0.445670  0.660770  0.772306
    O   O3   0.661775  0.424450  0.486822  -0.695298
    O   O4   0.709576  0.576830  0.520352  -0.707915
    C   C2   0.743686  0.500517  0.504394  0.619060
    Zn  Zn1  0.469464  0.399457  0.479382  1.059052
    Zn  Zn2  0.532125  0.600647  0.523075  1.099943
    O   O5   0.493068  0.465230  0.363478  -0.634979
    O   O6   0.541315  0.617846  0.396468  -0.674901
    O   O7   0.291893  0.423183  0.482177  -0.702907
    O   O8   0.339813  0.575789  0.515442  -0.737116
    C   C3   0.522261  0.554442  0.341693  0.787135
    C   C4   0.257639  0.499756  0.497719  0.715126
    C   C5   0.902725  0.411644  0.546766  -0.051449
    H   H1   0.850946  0.350908  0.514319  -0.007431
    H   H2   0.866798  0.405162  0.612284  -0.008425
    C   C6   0.043383  0.412346  0.546686  0.055215
    H   H3   0.076174  0.411204  0.612279  -0.009344
    H   H4   0.058110  0.348956  0.519847  -0.056724
    H   H5   0.871622  0.448883  0.380045  -0.082159
    C   C7   0.927605  0.507957  0.412563  0.067788
    C   C8   0.958894  0.582956  0.546439  -0.124576
    C   C9   0.882374  0.500868  0.502824  0.284565
    H   H6   0.947518  0.648955  0.514125  0.010864
    H   H7   0.925821  0.579151  0.612428  0.011701
    C   C10  0.118486  0.499804  0.498588  0.102266
    C   C11  0.069302  0.511078  0.409615  -0.162452
    C   C12  0.099200  0.581995  0.544596  0.002173
    H   H8   0.133053  0.576991  0.609769  -0.002075
    H   H9   0.152246  0.648327  0.512644  -0.000898
    H   H10  0.911298  0.572688  0.380523  -0.003681
    H   H11  0.118168  0.581345  0.383429  0.046210
    C   C13  0.469573  0.415484  0.750354  -0.161096
    C   C14  0.533704  0.584650  0.252112  -0.229024
    C   C15  0.431027  0.294591  0.858811  -0.257865
    C   C16  0.438719  0.322388  0.775175  -0.027580
    C   C17  0.492454  0.480269  0.810107  -0.054472
    C   C18  0.485461  0.453055  0.895681  -0.048742
    C   C19  0.454195  0.358961  0.918342  0.282777
    C   C20  0.508580  0.516411  0.958928  0.095170
    C   C21  0.499050  0.483718  0.043500  0.044786
    C   C22  0.467706  0.388247  0.062683  -0.113016
    C   C23  0.445810  0.327550  0.000957  -0.310085
    C   C24  0.541303  0.611868  0.939736  -0.199439
    C   C25  0.563073  0.672563  0.001472  -0.253801
    C   C26  0.552980  0.641165  0.084101  0.312227
    C   C27  0.521111  0.547081  0.106757  -0.088316
    C   C28  0.575181  0.705532  0.143654  -0.318876
    C   C29  0.565579  0.677740  0.227299  0.005723
    C   C30  0.511978  0.519880  0.192340  0.063268
    H   H12  0.421662  0.253940  0.018323  0.135684
    H   H13  0.487283  0.448593  0.215411  0.027917
    H   H14  0.583176  0.729786  0.272456  0.083245
    H   H15  0.588194  0.746164  0.984104  0.119789
    H   H16  0.406774  0.221314  0.877636  0.120863
    H   H17  0.420409  0.270343  0.730025  0.084944
    H   H18  0.515763  0.551572  0.787027  0.070696
    H   H19  0.459011  0.356198  0.125129  0.123270
    H   H20  0.551783  0.643899  0.877275  0.153261
    H   H21  0.600090  0.778804  0.124837  0.135264
    N   N1   0.572727  0.732893  0.552176  -0.126198
    N   N2   0.429294  0.267168  0.450389  -0.056625
    C   C31  0.684614  0.847244  0.635889  -0.408107
    C   C32  0.653178  0.757163  0.614735  0.100299
    C   C33  0.518924  0.795276  0.510308  -0.031204
    C   C34  0.547298  0.888361  0.529456  -0.077020
    C   C35  0.634763  0.914258  0.592126  0.429071
    C   C36  0.490591  0.955378  0.488141  0.093453
    C   C37  0.521212  0.046926  0.511218  -0.050889
    C   C38  0.612377  0.070419  0.572174  0.009298
    C   C39  0.669354  0.005949  0.611725  -0.384054
    C   C40  0.403906  0.933164  0.423993  -0.128718
    C   C41  0.350516  0.998988  0.384017  -0.281999
    C   C42  0.379198  0.088259  0.407079  0.283683
    C   C43  0.462823  0.113726  0.471187  0.034038
    C   C44  0.323576  0.152293  0.364981  -0.234986
    C   C45  0.350919  0.242197  0.386825  -0.062208
    C   C46  0.484369  0.205689  0.492868  -0.076579
    H   H22  0.543970  0.231574  0.543623  0.141204
    H   H23  0.309585  0.292922  0.352938  0.185622
    H   H24  0.284661  0.979506  0.333958  0.151856
    H   H25  0.746804  0.862207  0.688283  0.173729
    H   H26  0.693403  0.705649  0.648800  0.122139
    H   H27  0.454030  0.768807  0.462378  0.144610
    H   H28  0.647836  0.140360  0.588394  0.096914
    H   H29  0.374545  0.865496  0.401130  0.143303
    H   H30  0.259265  0.132517  0.314184  0.131110
    C   C47  0.770239  0.039056  0.671559  0.386712
    C   C48  0.762019  0.100005  0.730976  -0.258200
    C   C49  0.876119  0.115889  0.769720  -0.165547
    C   C50  0.946541  0.064327  0.730910  -0.094241
    O   O9   0.882982  0.017766  0.670630  -0.117836
    H   H31  0.681858  0.129181  0.744526  0.152960
    H   H32  0.905631  0.160212  0.820288  0.149450
    H   H33  0.043181  0.061958  0.746862  0.139249
    C   C51  0.098300  0.444877  0.350102  0.325823
    C   C52  0.039287  0.352266  0.348494  -0.113217
    C   C53  0.086041  0.323543  0.279049  -0.406302
    C   C54  0.170385  0.400028  0.243098  0.036695
    O   O10  0.177764  0.474286  0.285681  -0.212856
    H   H34  0.966612  0.310884  0.390521  0.144543
    H   H35  0.060886  0.255022  0.256206  0.179247
    H   H36  0.223793  0.400637  0.185912  0.099914
