# generated using pymatgen
data_Fe2H30C63N6O17
_symmetry_space_group_name_H-M   'P 1'
_cell_length_a   17.15529200
_cell_length_b   9.36993900
_cell_length_c   23.74965800
_cell_angle_alpha   87.76734200
_cell_angle_beta   89.58602700
_cell_angle_gamma   109.56531400
_symmetry_Int_Tables_number   1
_chemical_formula_structural   Fe2H30C63N6O17
_chemical_formula_sum   'Fe2 H30 C63 N6 O17'
_cell_volume   3593.62429749
_cell_formula_units_Z   1
loop_
 _symmetry_equiv_pos_site_id
 _symmetry_equiv_pos_as_xyz
  1  'x, y, z'
loop_
 _atom_site_type_symbol
 _atom_site_label
 _atom_site_symmetry_multiplicity
 _atom_site_fract_x
 _atom_site_fract_y
 _atom_site_fract_z
 _atom_site_occupancy
  Fe  Fe1  1  0.52787600  0.02439600  0.24615200  1
  Fe  Fe2  1  0.46870200  0.94499700  0.75197900  1
  H  H1  1  0.01011200  0.87244800  0.18004400  1
  H  H2  1  0.72526300  0.92598300  0.01297400  1
  H  H3  1  0.27181300  0.05370600  0.98172000  1
  H  H4  1  0.93792800  0.86248100  0.02657200  1
  H  H5  1  0.05753300  0.10188300  0.96378200  1
  H  H6  1  0.04978500  0.87125200  0.77508900  1
  H  H7  1  0.29368100  0.95210900  0.89558000  1
  H  H8  1  0.34335600  0.05190500  0.06487400  1
  H  H9  1  0.27065200  0.88475000  0.23494300  1
  H  H10  1  0.12696500  0.85169600  0.21491700  1
  H  H11  1  0.93218800  0.99420900  0.22648100  1
  H  H12  1  0.70231800  0.00710900  0.10284400  1
  H  H13  1  0.65402300  0.92912100  0.93168400  1
  H  H14  1  0.72909100  0.15214500  0.76930200  1
  H  H15  1  0.87131700  0.18322800  0.78795900  1
  H  H16  1  0.16734800  0.81471300  0.74097200  1
  H  H17  1  0.81774600  0.06166000  0.26458400  1
  H  H18  1  0.47549900  0.21439300  0.59104100  1
  H  H19  1  0.49191300  0.67796500  0.56615000  1
  H  H20  1  0.51563500  0.75035800  0.40670000  1
  H  H21  1  0.50444700  0.28954400  0.43158300  1
  H  H22  1  0.45286900  0.47119300  0.73082900  1
  H  H23  1  0.54451600  0.49765200  0.26717800  1
  H  H24  1  0.87269100  0.87154000  0.78491500  1
  H  H25  1  0.87749600  0.90059000  0.68191100  1
  H  H26  1  0.03568500  0.19402700  0.54477600  1
  H  H27  1  0.11074500  0.19625000  0.59776300  1
  H  H28  1  0.05135600  0.32480700  0.60071500  1
  H  H29  1  0.10196600  0.27847900  0.69041200  1
  H  H30  1  0.09561600  0.24917200  0.79224400  1
  C  C1  1  0.21372200  0.98405400  0.08715800  1
  C  C2  1  0.15500100  0.93225800  0.12857800  1
  C  C3  1  0.08075200  0.92843800  0.10588200  1
  C  C4  1  0.17307100  0.00475200  0.03902900  1
  C  C5  1  0.01025900  0.89774800  0.13526600  1
  C  C6  1  0.93577600  0.91995100  0.11245500  1
  C  C7  1  0.88004000  0.96081900  0.14422100  1
  C  C8  1  0.81821400  0.96680200  0.10999900  1
  C  C9  1  0.83756400  0.93000000  0.05706600  1
  C  C10  1  0.78854200  0.93043100  0.00666600  1
  C  C11  1  0.82233500  0.96365000  0.95501900  1
  C  C12  1  0.78316800  0.99755100  0.90849100  1
  C  C13  1  0.84167900  0.05043100  0.86691200  1
  C  C14  1  0.91378300  0.03281500  0.88716500  1
  C  C15  1  0.98173300  0.04304200  0.85674400  1
  C  C16  1  0.05362500  0.01285200  0.88177000  1
  C  C17  1  0.10783300  0.95913400  0.85291000  1
  C  C18  1  0.17275100  0.97063400  0.88697400  1
  C  C19  1  0.15584900  0.02457700  0.93720000  1
  C  C20  1  0.20694000  0.03912400  0.98749600  1
  C  C21  1  0.10324200  0.89638900  0.80111300  1
  C  C22  1  0.16994600  0.85935800  0.78243700  1
  C  C23  1  0.23983700  0.88353500  0.81504800  1
  C  C24  1  0.24044600  0.93444800  0.86928100  1
  C  C25  1  0.29610300  0.00664000  0.09734400  1
  C  C26  1  0.31657500  0.97027600  0.15132100  1
  C  C27  1  0.25505900  0.91174900  0.19278700  1
  C  C28  1  0.17361000  0.89436800  0.18195400  1
  C  C29  1  0.88200400  0.99643300  0.19965200  1
  C  C30  1  0.81718800  0.03577700  0.22063300  1
  C  C31  1  0.75182000  0.03874000  0.18650400  1
  C  C32  1  0.75243600  0.00568100  0.12987800  1
  C  C33  1  0.70140700  0.98279500  0.90004000  1
  C  C34  1  0.68110300  0.03112400  0.84798800  1
  C  C35  1  0.74340400  0.10657200  0.80884900  1
  C  C36  1  0.82449900  0.11786800  0.81812900  1
  C  C37  1  0.68033500  0.06332800  0.21336500  1
  C  C38  1  0.53493000  0.76596500  0.29426700  1
  C  C39  1  0.40268500  0.00063100  0.16740900  1
  C  C40  1  0.52261100  0.23663100  0.32406600  1
  C  C41  1  0.46289100  0.32858400  0.66506800  1
  C  C42  1  0.47357500  0.31857000  0.60797800  1
  C  C43  1  0.48294400  0.44167300  0.57166300  1
  C  C44  1  0.48307300  0.57790800  0.59306700  1
  C  C45  1  0.47130700  0.58754500  0.65035500  1
  C  C46  1  0.46008200  0.46220200  0.68603400  1
  C  C47  1  0.51905100  0.64714000  0.38980000  1
  C  C48  1  0.53097800  0.63815200  0.33280100  1
  C  C49  1  0.53639700  0.50615500  0.31191800  1
  C  C50  1  0.52593700  0.38102900  0.34756500  1
  C  C51  1  0.51267000  0.38951100  0.40473300  1
  C  C52  1  0.51080800  0.52452500  0.42610600  1
  C  C53  1  0.59482000  0.99345300  0.83128900  1
  C  C54  1  0.47533700  0.73227100  0.67390800  1
  C  C55  1  0.31409800  0.87016700  0.78823200  1
  C  C56  1  0.45856000  0.20076000  0.70370100  1
  C  C57  1  0.98210500  0.06306800  0.79530600  1
  C  C58  1  0.92186800  0.96314000  0.76410400  1
  C  C59  1  0.92502300  0.97850200  0.70610200  1
  C  C60  1  0.98878500  0.09154800  0.67862600  1
  C  C61  1  0.04982500  0.20968700  0.59007100  1
  C  C62  1  0.05037800  0.18929100  0.70996000  1
  C  C63  1  0.04713200  0.17357500  0.76802100  1
  N  N1  1  0.09142500  0.97151400  0.05066500  1
  N  N2  1  0.90979100  0.90091700  0.05887200  1
  N  N3  1  0.90232300  0.98423700  0.94190300  1
  N  N4  1  0.08308100  0.05135100  0.93375000  1
  N  N5  1  0.49382700  0.42479700  0.51347300  1
  N  N6  1  0.49954100  0.54097600  0.48427700  1
  O  O1  1  0.61283600  0.05476600  0.18590100  1
  O  O2  1  0.54944700  0.75895700  0.24030600  1
  O  O3  1  0.67827100  0.06949900  0.26843100  1
  O  O4  1  0.52053400  0.88556500  0.31245300  1
  O  O5  1  0.41719600  0.92633800  0.21186700  1
  O  O6  1  0.46198600  0.11635700  0.14417700  1
  O  O7  1  0.55715900  0.23460600  0.27447700  1
  O  O8  1  0.47877800  0.10921300  0.35049800  1
  O  O9  1  0.57937900  0.05565200  0.78414700  1
  O  O10  1  0.53689000  0.87913900  0.85648800  1
  O  O11  1  0.44512000  0.73454800  0.72490000  1
  O  O12  1  0.51396200  0.85954400  0.64548300  1
  O  O13  1  0.44931600  0.21169900  0.75808300  1
  O  O14  1  0.38528600  0.90802000  0.81372700  1
  O  O15  1  0.46911500  0.07820100  0.68517400  1
  O  O16  1  0.31369700  0.85001200  0.73385400  1
  O  O17  1  0.98939700  0.10242500  0.62177000  1
