# generated using pymatgen
data_Zn3H14C38(Cl2O3)4
_symmetry_space_group_name_H-M   'P 1'
_cell_length_a   36.93571000
_cell_length_b   30.40331800
_cell_length_c   21.57009000
_cell_angle_alpha   90.00000000
_cell_angle_beta   55.44520900
_cell_angle_gamma   90.00000000
_symmetry_Int_Tables_number   1
_chemical_formula_structural   Zn3H14C38(Cl2O3)4
_chemical_formula_sum   'Zn12 H56 C152 Cl32 O48'
_cell_volume   19949.28706692
_cell_formula_units_Z   4
loop_
 _symmetry_equiv_pos_site_id
 _symmetry_equiv_pos_as_xyz
  1  'x, y, z'
loop_
 _atom_site_type_symbol
 _atom_site_label
 _atom_site_symmetry_multiplicity
 _atom_site_fract_x
 _atom_site_fract_y
 _atom_site_fract_z
 _atom_site_occupancy
  Zn  Zn1  1  0.00008000  0.44785000  0.99975600  1
  Zn  Zn2  1  0.50008000  0.94785000  0.99975600  1
  Zn  Zn3  1  0.99999800  0.54752800  0.99980500  1
  Zn  Zn4  1  0.49999800  0.04752800  0.99980500  1
  Zn  Zn5  1  0.04973000  0.50071200  0.45162400  1
  Zn  Zn6  1  0.95023400  0.50077400  0.54803300  1
  Zn  Zn7  1  0.54973000  0.00071200  0.45162400  1
  Zn  Zn8  1  0.45023400  0.00077400  0.54803300  1
  Zn  Zn9  1  0.50076200  0.50097200  0.56954600  1
  Zn  Zn10  1  0.49920300  0.50107300  0.43085300  1
  Zn  Zn11  1  0.00076200  0.00097200  0.56954600  1
  Zn  Zn12  1  0.99920300  0.00107300  0.43085300  1
  H  H1  1  0.99748100  0.42177800  0.21607800  1
  H  H2  1  0.00650600  0.42330000  0.78023000  1
  H  H3  1  0.49748100  0.92177800  0.21607800  1
  H  H4  1  0.50650600  0.92330000  0.78023000  1
  H  H5  1  0.78030700  0.55467200  0.15859600  1
  H  H6  1  0.21929000  0.55447300  0.84093500  1
  H  H7  1  0.28030700  0.05467200  0.15859600  1
  H  H8  1  0.71929000  0.05447300  0.84093500  1
  H  H9  1  0.86024700  0.55308400  0.07917800  1
  H  H10  1  0.13926000  0.55243300  0.92007800  1
  H  H11  1  0.36024700  0.05308400  0.07917800  1
  H  H12  1  0.63926000  0.05243300  0.92007800  1
  H  H13  1  0.77982200  0.44619000  0.28494400  1
  H  H14  1  0.22070100  0.44497700  0.71551200  1
  H  H15  1  0.27982200  0.94619000  0.28494400  1
  H  H16  1  0.72070100  0.94497700  0.71551200  1
  H  H17  1  0.72090000  0.49112300  0.37808700  1
  H  H18  1  0.27914200  0.49123300  0.62197300  1
  H  H19  1  0.22090000  0.99112300  0.37808700  1
  H  H20  1  0.77914200  0.99123300  0.62197300  1
  H  H21  1  0.64126900  0.49103000  0.45695100  1
  H  H22  1  0.35882400  0.49160000  0.54314500  1
  H  H23  1  0.14126900  0.99103000  0.45695100  1
  H  H24  1  0.85882400  0.99160000  0.54314500  1
  H  H25  1  0.63954100  0.51122700  0.26230700  1
  H  H26  1  0.36033800  0.51067800  0.73820300  1
  H  H27  1  0.13954100  0.01122700  0.26230700  1
  H  H28  1  0.86033800  0.01067800  0.73820300  1
  H  H29  1  0.71919800  0.51074300  0.18357100  1
  H  H30  1  0.28060000  0.51002800  0.81683800  1
  H  H31  1  0.21919800  0.01074300  0.18357100  1
  H  H32  1  0.78060000  0.01002800  0.81683800  1
  H  H33  1  0.49601800  0.72052700  0.60288200  1
  H  H34  1  0.50480000  0.72111400  0.39645100  1
  H  H35  1  0.99601800  0.22052700  0.60288200  1
  H  H36  1  0.00480000  0.22111400  0.39645100  1
  H  H37  1  0.49643500  0.64098200  0.60208700  1
  H  H38  1  0.50382600  0.64161300  0.39674500  1
  H  H39  1  0.99643500  0.14098200  0.60208700  1
  H  H40  1  0.00382600  0.14161300  0.39674500  1
  H  H41  1  0.94387200  0.72164800  0.61414200  1
  H  H42  1  0.05544000  0.72133000  0.38604900  1
  H  H43  1  0.44387200  0.22164800  0.61414200  1
  H  H44  1  0.55544000  0.22133000  0.38604900  1
  H  H45  1  0.95834900  0.28108800  0.46146500  1
  H  H46  1  0.04246700  0.28081900  0.53855800  1
  H  H47  1  0.45834900  0.78108800  0.46146500  1
  H  H48  1  0.54246700  0.78081900  0.53855800  1
  H  H49  1  0.51102700  0.28138600  0.39174700  1
  H  H50  1  0.48898600  0.28073900  0.60879600  1
  H  H51  1  0.01102700  0.78138600  0.39174700  1
  H  H52  1  0.98898600  0.78073900  0.60879600  1
  H  H53  1  0.51133200  0.36111300  0.39188900  1
  H  H54  1  0.48886400  0.36044500  0.60959800  1
  H  H55  1  0.01133200  0.86111300  0.39188900  1
  H  H56  1  0.98886400  0.86044500  0.60959800  1
  C  C1  1  0.91392600  0.49854200  0.08697600  1
  C  C2  1  0.08614600  0.49681300  0.91265100  1
  C  C3  1  0.41392600  0.99854200  0.08697600  1
  C  C4  1  0.58614600  0.99681300  0.91265100  1
  C  C5  1  0.00172200  0.49686600  0.11909800  1
  C  C6  1  0.99833000  0.49852000  0.88047500  1
  C  C7  1  0.50172200  0.99686600  0.11909800  1
  C  C8  1  0.49833000  0.99852000  0.88047500  1
  C  C9  1  0.97726200  0.34347800  0.47798000  1
  C  C10  1  0.02388100  0.34336600  0.52177500  1
  C  C11  1  0.47726200  0.84347800  0.47798000  1
  C  C12  1  0.52388100  0.84336600  0.52177500  1
  C  C13  1  0.49844000  0.70353200  0.55667800  1
  C  C14  1  0.50224600  0.70386800  0.44257300  1
  C  C15  1  0.99844000  0.20353200  0.55667800  1
  C  C16  1  0.00224600  0.20386800  0.44257300  1
  C  C17  1  0.97728700  0.29815800  0.47794700  1
  C  C18  1  0.02363600  0.29802000  0.52198400  1
  C  C19  1  0.47728700  0.79815800  0.47794700  1
  C  C20  1  0.52363600  0.79802000  0.52198400  1
  C  C21  1  0.96635400  0.51946200  0.26042600  1
  C  C22  1  0.03246700  0.52242700  0.74022600  1
  C  C23  1  0.46635400  0.01946200  0.26042600  1
  C  C24  1  0.53246700  0.02242700  0.74022600  1
  C  C25  1  0.00171900  0.53892800  0.26700400  1
  C  C26  1  0.99614900  0.53985800  0.73439700  1
  C  C27  1  0.50171900  0.03892800  0.26700400  1
  C  C28  1  0.49614900  0.03985800  0.73439700  1
  C  C29  1  0.99933800  0.49880900  0.31052000  1
  C  C30  1  0.00070300  0.49978500  0.68905300  1
  C  C31  1  0.49933800  0.99880900  0.31052000  1
  C  C32  1  0.50070300  0.99978500  0.68905300  1
  C  C33  1  0.96397600  0.47938100  0.30396000  1
  C  C34  1  0.03700400  0.48237900  0.69489700  1
  C  C35  1  0.46397600  0.97938100  0.30396000  1
  C  C36  1  0.53700400  0.98237900  0.69489700  1
  C  C37  1  0.99869900  0.45636400  0.23111600  1
  C  C38  1  0.00349200  0.45771200  0.76666800  1
  C  C39  1  0.49869900  0.95636400  0.23111600  1
  C  C40  1  0.50349200  0.95771200  0.76666800  1
  C  C41  1  0.03409800  0.47636000  0.23790100  1
  C  C42  1  0.96715100  0.47565800  0.76056800  1
  C  C43  1  0.53409800  0.97636000  0.23790100  1
  C  C44  1  0.46715100  0.97565800  0.76056800  1
  C  C45  1  0.03653400  0.51651500  0.19432900  1
  C  C46  1  0.96252900  0.51577600  0.80599000  1
  C  C47  1  0.53653400  0.01651500  0.19432900  1
  C  C48  1  0.46252900  0.01577600  0.80599000  1
  C  C49  1  0.00115200  0.49706200  0.18818700  1
  C  C50  1  0.99885800  0.49838000  0.81142000  1
  C  C51  1  0.50115200  0.99706200  0.18818700  1
  C  C52  1  0.49885800  0.99838000  0.81142000  1
  C  C53  1  0.79739400  0.53003900  0.16889700  1
  C  C54  1  0.20236900  0.52953600  0.83081900  1
  C  C55  1  0.29739400  0.03003900  0.16889700  1
  C  C56  1  0.70236900  0.02953600  0.83081900  1
  C  C57  1  0.84275300  0.52949800  0.12439700  1
  C  C58  1  0.15700600  0.52871900  0.87514100  1
  C  C59  1  0.34275300  0.02949800  0.12439700  1
  C  C60  1  0.65700600  0.02871900  0.87514100  1
  C  C61  1  0.86566300  0.49858000  0.13616700  1
  C  C62  1  0.13439100  0.49729500  0.86363100  1
  C  C63  1  0.36566300  0.99858000  0.13616700  1
  C  C64  1  0.63439100  0.99729500  0.86363100  1
  C  C65  1  0.84251000  0.46881900  0.19490200  1
  C  C66  1  0.15778400  0.46733700  0.80535300  1
  C  C67  1  0.34251000  0.96881900  0.19490200  1
  C  C68  1  0.65778400  0.96733700  0.80535300  1
  C  C69  1  0.79716300  0.46991500  0.23995000  1
  C  C70  1  0.20312000  0.46879400  0.76029200  1
  C  C71  1  0.29716300  0.96991500  0.23995000  1
  C  C72  1  0.70312000  0.96879400  0.76029200  1
  C  C73  1  0.77424600  0.50022500  0.22706400  1
  C  C74  1  0.22575700  0.49957900  0.77297800  1
  C  C75  1  0.27424600  0.00022500  0.22706400  1
  C  C76  1  0.72575700  0.99957900  0.77297800  1
  C  C77  1  0.70331800  0.49509300  0.35199800  1
  C  C78  1  0.29671300  0.49514000  0.64809800  1
  C  C79  1  0.20331800  0.99509300  0.35199800  1
  C  C80  1  0.79671300  0.99514000  0.64809800  1
  C  C81  1  0.65796100  0.49545000  0.39697200  1
  C  C82  1  0.34206700  0.49576200  0.60319000  1
  C  C83  1  0.15796100  0.99545000  0.39697200  1
  C  C84  1  0.84206700  0.99576200  0.60319000  1
  C  C85  1  0.63446700  0.50107400  0.36550100  1
  C  C86  1  0.36549300  0.50110900  0.63484100  1
  C  C87  1  0.13446700  0.00107400  0.36550100  1
  C  C88  1  0.86549300  0.00110900  0.63484100  1
  C  C89  1  0.65700000  0.50675300  0.28850900  1
  C  C90  1  0.34290200  0.50637100  0.71192400  1
  C  C91  1  0.15700000  0.00675300  0.28850900  1
  C  C92  1  0.84290200  0.00637100  0.71192400  1
  C  C93  1  0.70236600  0.50690900  0.24369800  1
  C  C94  1  0.29752800  0.50643200  0.75664800  1
  C  C95  1  0.20236600  0.00690900  0.24369800  1
  C  C96  1  0.79752800  0.00643200  0.75664800  1
  C  C97  1  0.72588000  0.50085900  0.27502900  1
  C  C98  1  0.27410000  0.50053000  0.72513300  1
  C  C99  1  0.22588000  0.00085900  0.27502900  1
  C  C100  1  0.77410000  0.00053000  0.72513300  1
  C  C101  1  0.00065900  0.36641300  0.49974800  1
  C  C102  1  0.50065900  0.86641300  0.49974800  1
  C  C103  1  0.00044400  0.27507000  0.49991400  1
  C  C104  1  0.50044400  0.77507000  0.49991400  1
  C  C105  1  0.49998700  0.27537900  0.50024700  1
  C  C106  1  0.99998700  0.77537900  0.50024700  1
  C  C107  1  0.99906100  0.58704200  0.50036700  1
  C  C108  1  0.49906100  0.08704200  0.50036700  1
  C  C109  1  0.99895600  0.50006700  0.37965400  1
  C  C110  1  0.00103400  0.50078400  0.61996500  1
  C  C111  1  0.49895600  0.00006700  0.37965400  1
  C  C112  1  0.50103400  0.00078400  0.61996500  1
  C  C113  1  0.00089000  0.41461300  0.49935200  1
  C  C114  1  0.50089000  0.91461300  0.49935200  1
  C  C115  1  0.50008000  0.63541200  0.49942200  1
  C  C116  1  0.00008000  0.13541200  0.49942200  1
  C  C117  1  0.49995900  0.58718800  0.49919800  1
  C  C118  1  0.99995900  0.08718800  0.49919800  1
  C  C119  1  0.58616200  0.50101000  0.41323800  1
  C  C120  1  0.41379600  0.50108600  0.58716300  1
  C  C121  1  0.08616200  0.00101000  0.41323800  1
  C  C122  1  0.91379600  0.00108600  0.58716300  1
  C  C123  1  0.49827400  0.65819300  0.55656100  1
  C  C124  1  0.50208500  0.65853900  0.44240500  1
  C  C125  1  0.99827400  0.15819300  0.55656100  1
  C  C126  1  0.00208500  0.15853900  0.44240500  1
  C  C127  1  0.50004300  0.41486000  0.50116900  1
  C  C128  1  0.00004300  0.91486000  0.50116900  1
  C  C129  1  0.96865200  0.70424900  0.56387000  1
  C  C130  1  0.03052800  0.70407100  0.43638500  1
  C  C131  1  0.46865200  0.20424900  0.56387000  1
  C  C132  1  0.53052800  0.20407100  0.43638500  1
  C  C133  1  0.96797000  0.65892300  0.56413500  1
  C  C134  1  0.03070300  0.65872300  0.43620000  1
  C  C135  1  0.46797000  0.15892300  0.56413500  1
  C  C136  1  0.53070300  0.15872300  0.43620000  1
  C  C137  1  0.99925600  0.63552300  0.50022700  1
  C  C138  1  0.49925600  0.13552300  0.50022700  1
  C  C139  1  0.99974200  0.72710600  0.50015000  1
  C  C140  1  0.49974200  0.22710600  0.50015000  1
  C  C141  1  0.50660600  0.29851700  0.43948900  1
  C  C142  1  0.49348100  0.29815800  0.56122600  1
  C  C143  1  0.00660600  0.79851700  0.43948900  1
  C  C144  1  0.99348100  0.79815800  0.56122600  1
  C  C145  1  0.50635100  0.34386400  0.43994900  1
  C  C146  1  0.49383100  0.34349600  0.56131300  1
  C  C147  1  0.00635100  0.84386400  0.43994900  1
  C  C148  1  0.99383100  0.84349600  0.56131300  1
  C  C149  1  0.50008600  0.36663100  0.50079300  1
  C  C150  1  0.00008600  0.86663100  0.50079300  1
  C  C151  1  0.50040100  0.72672400  0.49971400  1
  C  C152  1  0.00040100  0.22672400  0.49971400  1
  Cl  Cl1  1  0.00304700  0.59435500  0.29172000  1
  Cl  Cl2  1  0.99205000  0.59509500  0.71220100  1
  Cl  Cl3  1  0.50304700  0.09435500  0.29172000  1
  Cl  Cl4  1  0.49205000  0.09509500  0.71220100  1
  Cl  Cl5  1  0.94916500  0.37101300  0.44594900  1
  Cl  Cl6  1  0.05206700  0.37083500  0.55376200  1
  Cl  Cl7  1  0.44916500  0.87101300  0.44594900  1
  Cl  Cl8  1  0.55206700  0.87083500  0.55376200  1
  Cl  Cl9  1  0.92790600  0.63280300  0.64855600  1
  Cl  Cl10  1  0.07021000  0.63227900  0.35172500  1
  Cl  Cl11  1  0.42790600  0.13280300  0.64855600  1
  Cl  Cl12  1  0.57021000  0.13227900  0.35172500  1
  Cl  Cl13  1  0.92010300  0.54813500  0.27521600  1
  Cl  Cl14  1  0.07709200  0.55365400  0.72684000  1
  Cl  Cl15  1  0.42010300  0.04813500  0.27521600  1
  Cl  Cl16  1  0.57709200  0.05365400  0.72684000  1
  Cl  Cl17  1  0.91371000  0.45514800  0.37734700  1
  Cl  Cl18  1  0.08839100  0.46034000  0.62083800  1
  Cl  Cl19  1  0.41371000  0.95514800  0.37734700  1
  Cl  Cl20  1  0.58839100  0.96034000  0.62083800  1
  Cl  Cl21  1  0.08057000  0.44703300  0.22099800  1
  Cl  Cl22  1  0.92245400  0.44393000  0.77525100  1
  Cl  Cl23  1  0.58057000  0.94703300  0.22099800  1
  Cl  Cl24  1  0.42245400  0.94393000  0.77525100  1
  Cl  Cl25  1  0.08581100  0.54115400  0.11892900  1
  Cl  Cl26  1  0.91198500  0.53786900  0.88234800  1
  Cl  Cl27  1  0.58581100  0.04115400  0.11892900  1
  Cl  Cl28  1  0.41198500  0.03786900  0.88234800  1
  Cl  Cl29  1  0.86921300  0.43123300  0.21790500  1
  Cl  Cl30  1  0.13126100  0.42902700  0.78312900  1
  Cl  Cl31  1  0.36921300  0.93123300  0.21790500  1
  Cl  Cl32  1  0.63126100  0.92902700  0.78312900  1
  O  O1  1  0.93477700  0.46072200  0.06684600  1
  O  O2  1  0.06576200  0.45880500  0.93510300  1
  O  O3  1  0.43477700  0.96072200  0.06684600  1
  O  O4  1  0.56576200  0.95880500  0.93510300  1
  O  O5  1  0.93429100  0.53656600  0.06416200  1
  O  O6  1  0.06534200  0.53468600  0.93301600  1
  O  O7  1  0.43429100  0.03656600  0.06416200  1
  O  O8  1  0.56534200  0.03468600  0.93301600  1
  O  O9  1  0.00266900  0.45878800  0.08981200  1
  O  O10  1  0.99965500  0.46059300  0.90796400  1
  O  O11  1  0.50266900  0.95878800  0.08981200  1
  O  O12  1  0.49965500  0.96059300  0.90796400  1
  O  O13  1  0.00027400  0.53478500  0.09169200  1
  O  O14  1  0.99755800  0.53658900  0.90964300  1
  O  O15  1  0.50027400  0.03478500  0.09169200  1
  O  O16  1  0.49755800  0.03658900  0.90964300  1
  O  O17  1  0.03678000  0.56608200  0.46581400  1
  O  O18  1  0.96117300  0.56647200  0.53514800  1
  O  O19  1  0.53678000  0.06608200  0.46581400  1
  O  O20  1  0.46117300  0.06647200  0.53514800  1
  O  O21  1  0.03676000  0.49945800  0.37208400  1
  O  O22  1  0.96322400  0.50227200  0.62755800  1
  O  O23  1  0.53676000  0.99945800  0.37208400  1
  O  O24  1  0.46322400  0.00227200  0.62755800  1
  O  O25  1  0.96091000  0.50140200  0.44495700  1
  O  O26  1  0.03905800  0.49956500  0.55466900  1
  O  O27  1  0.46091000  0.00140200  0.44495700  1
  O  O28  1  0.53905800  0.99956500  0.55466900  1
  O  O29  1  0.03893600  0.43498000  0.46386000  1
  O  O30  1  0.96302900  0.43537200  0.53449900  1
  O  O31  1  0.53893600  0.93498000  0.46386000  1
  O  O32  1  0.46302900  0.93537200  0.53449900  1
  O  O33  1  0.49960200  0.56639300  0.55285200  1
  O  O34  1  0.50033400  0.56677400  0.44526200  1
  O  O35  1  0.99960200  0.06639300  0.55285200  1
  O  O36  1  0.00033400  0.06677400  0.44526200  1
  O  O37  1  0.56591100  0.49980300  0.48664900  1
  O  O38  1  0.43405000  0.50194300  0.51374400  1
  O  O39  1  0.06591100  0.99980300  0.48664900  1
  O  O40  1  0.93405000  0.00194300  0.51374400  1
  O  O41  1  0.56510300  0.50222400  0.38064000  1
  O  O42  1  0.43485300  0.50011700  0.61978400  1
  O  O43  1  0.06510300  0.00222400  0.38064000  1
  O  O44  1  0.93485300  0.00011700  0.61978400  1
  O  O45  1  0.49932000  0.43527600  0.55543700  1
  O  O46  1  0.50068400  0.43565700  0.44724000  1
  O  O47  1  0.99932000  0.93527600  0.55543700  1
  O  O48  1  0.00068400  0.93565700  0.44724000  1
