# generated using pymatgen
data_ZnH21C21NO6
_symmetry_space_group_name_H-M   'P 1'
_cell_length_a   9.12573600
_cell_length_b   8.58207400
_cell_length_c   19.34223200
_cell_angle_alpha   90.00000000
_cell_angle_beta   91.05689500
_cell_angle_gamma   90.00000000
_symmetry_Int_Tables_number   1
_chemical_formula_structural   ZnH21C21NO6
_chemical_formula_sum   'Zn2 H42 C42 N2 O12'
_cell_volume   1514.58221196
_cell_formula_units_Z   2
loop_
 _symmetry_equiv_pos_site_id
 _symmetry_equiv_pos_as_xyz
  1  'x, y, z'
loop_
 _atom_site_type_symbol
 _atom_site_label
 _atom_site_symmetry_multiplicity
 _atom_site_fract_x
 _atom_site_fract_y
 _atom_site_fract_z
 _atom_site_occupancy
  Zn  Zn1  1  0.83593900  0.50901800  0.50112000  1
  Zn  Zn2  1  0.16406200  0.50901800  0.49888000  1
  H  H1  1  0.05656300  0.00882400  0.54874800  1
  H  H2  1  0.94343700  0.00882400  0.45125200  1
  H  H3  1  0.95920100  0.25893500  0.73035300  1
  H  H4  1  0.04079900  0.25893500  0.26964700  1
  H  H5  1  0.98188100  0.75800500  0.73212000  1
  H  H6  1  0.01812000  0.75800500  0.26788000  1
  H  H7  1  0.09745700  0.78247100  0.04431900  1
  H  H8  1  0.90254300  0.78247100  0.95568100  1
  H  H9  1  0.12045500  0.78446100  0.16928800  1
  H  H10  1  0.87954600  0.78446100  0.83071200  1
  H  H11  1  0.92207400  0.23789300  0.17206100  1
  H  H12  1  0.07792600  0.23789300  0.82793900  1
  H  H13  1  0.91622300  0.23949500  0.04737700  1
  H  H14  1  0.08377700  0.23949500  0.95262300  1
  H  H15  1  0.62866400  0.68107600  0.42322500  1
  H  H16  1  0.37133600  0.68107600  0.57677500  1
  H  H17  1  0.35910500  0.56350700  0.39385700  1
  H  H18  1  0.64089600  0.56350700  0.60614300  1
  H  H19  1  0.63768700  0.26615600  0.47642500  1
  H  H20  1  0.36231300  0.26615600  0.52357500  1
  H  H21  1  0.40199200  0.31564900  0.43632100  1
  H  H22  1  0.59800900  0.31564900  0.56367900  1
  H  H23  1  0.29894900  0.79669300  0.35607800  1
  H  H24  1  0.49253300  0.83459600  0.36516000  1
  H  H25  1  0.45161800  0.05463200  0.43757600  1
  H  H26  1  0.34919600  0.07474700  0.35679300  1
  H  H27  1  0.25566600  0.02192400  0.43547900  1
  H  H28  1  0.70105200  0.79669200  0.64392200  1
  H  H29  1  0.50746800  0.83459600  0.63484000  1
  H  H30  1  0.54838300  0.05463200  0.56242500  1
  H  H31  1  0.65080400  0.07474700  0.64320700  1
  H  H32  1  0.74433500  0.02192400  0.56452100  1
  H  H33  1  0.72104300  0.61452900  0.32314100  1
  H  H34  1  0.52319100  0.61120200  0.30796000  1
  H  H35  1  0.54230800  0.34815600  0.25912700  1
  H  H36  1  0.65527900  0.48624300  0.21349900  1
  H  H37  1  0.73869900  0.35091200  0.27433000  1
  H  H38  1  0.27895700  0.61452900  0.67685900  1
  H  H39  1  0.47681000  0.61120200  0.69204000  1
  H  H40  1  0.45769200  0.34815600  0.74087300  1
  H  H41  1  0.34472200  0.48624300  0.78650100  1
  H  H42  1  0.26130100  0.35091200  0.72567000  1
  C  C1  1  0.00699300  0.14803400  0.63566300  1
  C  C2  1  0.99300700  0.14803400  0.36433700  1
  C  C3  1  0.97886500  0.14861400  0.70542600  1
  C  C4  1  0.02113600  0.14861400  0.29457400  1
  C  C5  1  0.97846900  0.00935700  0.74230600  1
  C  C6  1  0.02153200  0.00935700  0.25769400  1
  C  C7  1  0.98584000  0.86912600  0.70626700  1
  C  C8  1  0.01416100  0.86912600  0.29373300  1
  C  C9  1  0.00784900  0.86992900  0.63590600  1
  C  C10  1  0.99215100  0.86992900  0.36409400  1
  C  C11  1  0.02996800  0.00894500  0.60255800  1
  C  C12  1  0.97003200  0.00894500  0.39744200  1
  C  C13  1  0.05994700  0.88287700  0.07271300  1
  C  C14  1  0.94005300  0.88287700  0.92728700  1
  C  C15  1  0.07165800  0.88417900  0.14397800  1
  C  C16  1  0.92834300  0.88417900  0.85602200  1
  C  C17  1  0.02337800  0.01162700  0.18131700  1
  C  C18  1  0.97662200  0.01162700  0.81868300  1
  C  C19  1  0.96754300  0.13910100  0.14550000  1
  C  C20  1  0.03245800  0.13910100  0.85450100  1
  C  C21  1  0.96183300  0.13980300  0.07428600  1
  C  C22  1  0.03816700  0.13980300  0.92571400  1
  C  C23  1  0.00556100  0.01088800  0.03772300  1
  C  C24  1  0.99444000  0.01088800  0.96227700  1
  C  C25  1  0.00479000  0.72715400  0.59437700  1
  C  C26  1  0.99521100  0.72715400  0.40562400  1
  C  C27  1  0.99551800  0.29064700  0.40590200  1
  C  C28  1  0.00448300  0.29064700  0.59409800  1
  C  C29  1  0.57909400  0.56892300  0.43562900  1
  C  C30  1  0.42090700  0.56892300  0.56437200  1
  C  C31  1  0.41508600  0.60014200  0.44244500  1
  C  C32  1  0.58491500  0.60014200  0.55755500  1
  C  C33  1  0.58174600  0.35232300  0.50926000  1
  C  C34  1  0.41825400  0.35232300  0.49074000  1
  C  C35  1  0.38650700  0.83965100  0.39155500  1
  C  C36  1  0.35822000  0.00951200  0.40618400  1
  C  C37  1  0.61349400  0.83965100  0.60844500  1
  C  C38  1  0.64178100  0.00951200  0.59381600  1
  C  C39  1  0.62140600  0.54072600  0.32075200  1
  C  C40  1  0.64071500  0.42368200  0.26306800  1
  C  C41  1  0.37859400  0.54072600  0.67924800  1
  C  C42  1  0.35928600  0.42368200  0.73693200  1
  N  N1  1  0.64226700  0.50821500  0.50048700  1
  N  N2  1  0.35773300  0.50821500  0.49951300  1
  O  O1  1  0.12810100  0.67769600  0.56904000  1
  O  O2  1  0.87189900  0.67769600  0.43096100  1
  O  O3  1  0.87716900  0.67148300  0.57424600  1
  O  O4  1  0.12283200  0.67148300  0.42575500  1
  O  O5  1  0.87042700  0.34094900  0.43041100  1
  O  O6  1  0.12957300  0.34094900  0.56958900  1
  O  O7  1  0.12427400  0.34552100  0.42599700  1
  O  O8  1  0.87572600  0.34552100  0.57400300  1
  O  O9  1  0.39098200  0.75932900  0.45498100  1
  O  O10  1  0.60901900  0.75932900  0.54501900  1
  O  O11  1  0.60281200  0.45985500  0.38285600  1
  O  O12  1  0.39718900  0.45985500  0.61714400  1
