data_DB0-m3_o11_o23_f0_pcu.sym.26_repeat
_audit_creation_date              2024-02-23
_audit_creation_method            'Materials Studio'
_symmetry_space_group_name_H-M    'P1'
_symmetry_Int_Tables_number       1
_symmetry_cell_setting            triclinic
loop_
_symmetry_equiv_pos_as_xyz
  x,y,z
_cell_length_a                    15.9534
_cell_length_b                    11.1378
_cell_length_c                    9.9160
_cell_angle_alpha                 89.9974
_cell_angle_beta                  89.9750
_cell_angle_gamma                 89.9982
loop_
_atom_site_label
_atom_site_type_symbol
_atom_site_fract_x
_atom_site_fract_y
_atom_site_fract_z
_atom_site_U_iso_or_equiv
_atom_site_adp_type
_atom_site_occupancy
O1     O     0.49918   0.32209   0.61880   0.00000  Uiso   1.00
O2     O     0.50179   0.32095   0.38631   0.00000  Uiso   1.00
C1     C     0.50040   0.26547   0.50290   0.00000  Uiso   1.00
O3     O     0.37411   0.50133   0.61029   0.00000  Uiso   1.00
O4     O     0.37657   0.50008   0.37767   0.00000  Uiso   1.00
C2     C     0.33639   0.50031   0.49302   0.00000  Uiso   1.00
Zn1    Zn    0.49834   0.50147   0.65239   0.00000  Uiso   1.00
Zn2    Zn    0.50198   0.49917   0.34527   0.00000  Uiso   1.00
O5     O     0.49899   0.67957   0.61179   0.00000  Uiso   1.00
O6     O     0.50149   0.67887   0.37843   0.00000  Uiso   1.00
O7     O     0.62381   0.50172   0.62036   0.00000  Uiso   1.00
O8     O     0.62628   0.50063   0.38689   0.00000  Uiso   1.00
C3     C     0.50007   0.73508   0.49527   0.00000  Uiso   1.00
C4     C     0.66390   0.50092   0.50459   0.00000  Uiso   1.00
C5     C     0.04910   0.42963   0.61675   0.00000  Uiso   1.00
C6     C     0.04563   0.44335   0.36805   0.00000  Uiso   1.00
C7     C     0.95103   0.43469   0.37730   0.00000  Uiso   1.00
H1     H     0.06672   0.33395   0.60417   0.00000  Uiso   1.00
H2     H     0.06318   0.49877   0.27951   0.00000  Uiso   1.00
H3     H     0.07252   0.35217   0.35588   0.00000  Uiso   1.00
H4     H     0.93213   0.33902   0.38286   0.00000  Uiso   1.00
H5     H     0.92270   0.47525   0.28590   0.00000  Uiso   1.00
C8     C     0.75384   0.50119   0.50611   0.00000  Uiso   1.00
C9     C     0.07923   0.50085   0.49559   0.00000  Uiso   1.00
C10    C     0.95471   0.43979   0.62744   0.00000  Uiso   1.00
C11    C     0.92105   0.50123   0.50194   0.00000  Uiso   1.00
C12    C     0.95283   0.62951   0.49626   0.00000  Uiso   1.00
C13    C     0.04762   0.62915   0.50460   0.00000  Uiso   1.00
C14    C     0.82937   0.50128   0.50512   0.00000  Uiso   1.00
C15    C     0.17092   0.50069   0.49248   0.00000  Uiso   1.00
C16    C     0.24645   0.50053   0.49151   0.00000  Uiso   1.00
H6     H     0.07357   0.68261   0.41996   0.00000  Uiso   1.00
H7     H     0.92659   0.68279   0.58078   0.00000  Uiso   1.00
H8     H     0.07844   0.46418   0.71039   0.00000  Uiso   1.00
H9     H     0.93316   0.67136   0.39984   0.00000  Uiso   1.00
C17    C     0.50150   0.93505   0.38970   0.00000  Uiso   1.00
C18    C     0.49997   0.86651   0.50044   0.00000  Uiso   1.00
H10    H     0.50279   0.89235   0.29154   0.00000  Uiso   1.00
H11    H     0.49855   0.90483   0.60025   0.00000  Uiso   1.00
C19    C     0.50145   0.06817   0.39274   0.00000  Uiso   1.00
C20    C     0.50052   0.13390   0.50613   0.00000  Uiso   1.00
H12    H     0.50224   0.11349   0.29608   0.00000  Uiso   1.00
H13    H     0.49981   0.09357   0.60500   0.00000  Uiso   1.00
C21    C     0.55316   0.55849   0.92311   0.00000  Uiso   1.00
N1     N     0.49566   0.50601   0.85400   0.00000  Uiso   1.00
H14    H     0.60562   0.59958   0.87124   0.00000  Uiso   1.00
H15    H     0.44159   0.48284   0.90381   0.00000  Uiso   1.00
C22    C     0.54782   0.57069   0.07161   0.00000  Uiso   1.00
N2     N     0.50561   0.49616   0.14365   0.00000  Uiso   1.00
H16    H     0.48228   0.42178   0.09540   0.00000  Uiso   1.00
F1     F     0.92030   0.32635   0.63910   0.00000  Uiso   1.00
F2     F     0.93405   0.50610   0.74050   0.00000  Uiso   1.00
F3     F     0.59241   0.65891   0.13286   0.00000  Uiso   1.00
F4     F     0.07271   0.68011   0.62510   0.00000  Uiso   1.00
