# generated using pymatgen
data_ZnH16C34NCl3O4
_symmetry_space_group_name_H-M   'P 1'
_cell_length_a   16.15717600
_cell_length_b   15.00355600
_cell_length_c   11.02580400
_cell_angle_alpha   90.00000000
_cell_angle_beta   89.99007200
_cell_angle_gamma   90.00000000
_symmetry_Int_Tables_number   1
_chemical_formula_structural   ZnH16C34NCl3O4
_chemical_formula_sum   'Zn2 H32 C68 N2 Cl6 O8'
_cell_volume   2672.82128308
_cell_formula_units_Z   2
loop_
 _symmetry_equiv_pos_site_id
 _symmetry_equiv_pos_as_xyz
  1  'x, y, z'
loop_
 _atom_site_type_symbol
 _atom_site_label
 _atom_site_symmetry_multiplicity
 _atom_site_fract_x
 _atom_site_fract_y
 _atom_site_fract_z
 _atom_site_occupancy
  Zn  Zn1  1  0.50085000  0.60330600  0.49869000  1
  Zn  Zn2  1  0.50090500  0.40097300  0.49869300  1
  H  H1  1  0.50430100  0.36321900  0.10830500  1
  H  H2  1  0.49743600  0.36321700  0.88908500  1
  H  H3  1  0.57469700  0.66924900  0.19124700  1
  H  H4  1  0.42705500  0.66925700  0.80614900  1
  H  H5  1  0.54072300  0.80709500  0.09371100  1
  H  H6  1  0.46102900  0.80709800  0.90369300  1
  H  H7  1  0.07694000  0.64238900  0.49891800  1
  H  H8  1  0.92493100  0.64246700  0.49891900  1
  H  H9  1  0.93790700  0.27925300  0.64500200  1
  H  H10  1  0.87815100  0.13403700  0.59124600  1
  H  H11  1  0.81456500  0.23295500  0.24182200  1
  H  H12  1  0.87825400  0.37646500  0.29184300  1
  H  H13  1  0.12331900  0.37596100  0.70512800  1
  H  H14  1  0.18666500  0.23221500  0.75482800  1
  H  H15  1  0.12308800  0.13399500  0.40502800  1
  H  H16  1  0.06364700  0.27943200  0.35163100  1
  H  H17  1  0.51618200  0.14161500  0.23058000  1
  H  H18  1  0.43989500  0.21894400  0.06941600  1
  H  H19  1  0.21200900  0.14076300  0.22954000  1
  H  H20  1  0.28757100  0.06324400  0.39175200  1
  H  H21  1  0.48589500  0.14185100  0.76667800  1
  H  H22  1  0.56236300  0.21919600  0.92764500  1
  H  H23  1  0.79006700  0.14038400  0.76754500  1
  H  H24  1  0.71433200  0.06288800  0.60549000  1
  H  H25  1  0.45244500  0.94459600  0.17456000  1
  H  H26  1  0.35087300  0.86885400  0.04515100  1
  H  H27  1  0.22144800  0.77898900  0.35832300  1
  H  H28  1  0.32027300  0.85806100  0.48840300  1
  H  H29  1  0.54936200  0.94465900  0.82280900  1
  H  H30  1  0.65086900  0.86884600  0.95224800  1
  H  H31  1  0.78014600  0.77866800  0.63911200  1
  H  H32  1  0.68139500  0.85781600  0.50899600  1
  C  C1  1  0.33899200  0.50208000  0.49254000  1
  C  C2  1  0.66276200  0.50218500  0.50484400  1
  C  C3  1  0.50785800  0.50280100  0.26013600  1
  C  C4  1  0.49389600  0.50279600  0.73724800  1
  C  C5  1  0.53848200  0.66570800  0.10942400  1
  C  C6  1  0.46327300  0.66571100  0.88796700  1
  C  C7  1  0.52236300  0.74497600  0.05211900  1
  C  C8  1  0.47939000  0.74497700  0.94528000  1
  C  C9  1  0.48890500  0.58510800  0.93820400  1
  C  C10  1  0.51285000  0.58510700  0.05918200  1
  C  C11  1  0.51145300  0.50514900  0.12508200  1
  C  C12  1  0.49030100  0.50514900  0.87230400  1
  C  C13  1  0.50367800  0.42627000  0.06124300  1
  C  C14  1  0.49806900  0.42626900  0.93614500  1
  C  C15  1  0.95827500  0.58000300  0.49832600  1
  C  C16  1  0.04354100  0.57995800  0.49929200  1
  C  C17  1  0.91540800  0.50063000  0.49435600  1
  C  C18  1  0.08634300  0.50053500  0.50299200  1
  C  C19  1  0.95785300  0.42050000  0.49358100  1
  C  C20  1  0.04382900  0.42044500  0.50348400  1
  C  C21  1  0.82637000  0.50165400  0.49762900  1
  C  C22  1  0.17538300  0.50149700  0.49974100  1
  C  C23  1  0.25002900  0.50195000  0.49587000  1
  C  C24  1  0.75172400  0.50210500  0.50150900  1
  C  C25  1  0.45018000  0.95591000  0.41897500  1
  C  C26  1  0.55160700  0.95587100  0.57838700  1
  C  C27  1  0.50086900  0.90996600  0.49869200  1
  C  C28  1  0.54869400  0.04843300  0.58214700  1
  C  C29  1  0.45317600  0.04846600  0.41519000  1
  C  C30  1  0.50094400  0.09433900  0.49867100  1
  C  C31  1  0.50083300  0.81388900  0.49869400  1
  C  C32  1  0.50095000  0.19039200  0.49868000  1
  C  C33  1  0.91196600  0.33760000  0.47184800  1
  C  C34  1  0.91014500  0.26981100  0.55674400  1
  C  C35  1  0.87624500  0.18825600  0.52688200  1
  C  C36  1  0.84208500  0.17494400  0.41371600  1
  C  C37  1  0.84093800  0.24345200  0.33074400  1
  C  C38  1  0.87614200  0.32433200  0.35945900  1
  C  C39  1  0.08962200  0.33745200  0.52497600  1
  C  C40  1  0.12537100  0.32393100  0.63736000  1
  C  C41  1  0.16037900  0.24291800  0.66589400  1
  C  C42  1  0.15911900  0.17453400  0.58273400  1
  C  C43  1  0.12507100  0.18811000  0.46955200  1
  C  C44  1  0.09135700  0.26979300  0.43988400  1
  C  C45  1  0.40686700  0.09853200  0.32306600  1
  C  C46  1  0.44928300  0.14253500  0.23214400  1
  C  C47  1  0.40659700  0.18578800  0.14131000  1
  C  C48  1  0.32140100  0.18570300  0.14102700  1
  C  C49  1  0.27881800  0.14182900  0.23122100  1
  C  C50  1  0.32135300  0.09840400  0.32220900  1
  C  C51  1  0.59510900  0.09847100  0.67418900  1
  C  C52  1  0.55279500  0.14263600  0.76506900  1
  C  C53  1  0.59558200  0.18589700  0.85579400  1
  C  C54  1  0.68077700  0.18564100  0.85602600  1
  C  C55  1  0.72325900  0.14158700  0.76589400  1
  C  C56  1  0.68062500  0.09817200  0.67499800  1
  C  C57  1  0.39335700  0.90601200  0.34022400  1
  C  C58  1  0.40182300  0.90838600  0.21553400  1
  C  C59  1  0.34504500  0.86545400  0.14263600  1
  C  C60  1  0.28054900  0.81858700  0.19380800  1
  C  C61  1  0.27231600  0.81526400  0.31807100  1
  C  C62  1  0.32824700  0.85927000  0.39106000  1
  C  C63  1  0.60838200  0.90592300  0.65715700  1
  C  C64  1  0.59993700  0.90836400  0.78184800  1
  C  C65  1  0.65667800  0.86539200  0.85476400  1
  C  C66  1  0.72111300  0.81841700  0.80361200  1
  C  C67  1  0.72932400  0.81502700  0.67934900  1
  C  C68  1  0.67343300  0.85907500  0.60634100  1
  N  N1  1  0.50094300  0.26761500  0.49869000  1
  N  N2  1  0.50081400  0.73666400  0.49869200  1
  Cl  Cl1  1  0.80242000  0.07043100  0.37351200  1
  Cl  Cl2  1  0.19846300  0.06983800  0.62273200  1
  Cl  Cl3  1  0.26728700  0.24035700  0.02532600  1
  Cl  Cl4  1  0.73501900  0.24031800  0.97157500  1
  Cl  Cl5  1  0.20878000  0.76390200  0.10097100  1
  Cl  Cl6  1  0.79283300  0.76367800  0.89647200  1
  O  O1  1  0.37753700  0.57891400  0.49467900  1
  O  O2  1  0.62417600  0.57899400  0.50270100  1
  O  O3  1  0.37762600  0.42527100  0.49225300  1
  O  O4  1  0.62417000  0.42535300  0.50513400  1
  O  O5  1  0.50369300  0.57856500  0.31845400  1
  O  O6  1  0.49802000  0.57856100  0.67892600  1
  O  O7  1  0.50573100  0.42561400  0.31770000  1
  O  O8  1  0.49606500  0.42560900  0.67968700  1
