# Generated by REPEAT Assigner based on pymatgen
data_DB0-m3_o96_o14_f0_fsc.sym.19_sqe
_audit_creation_date              2022-05-24
_audit_creation_method            REPEAT_Assigner
_cell_length_a                    9.278768
_cell_length_b                    13.378760
_cell_length_c                    16.251279
_cell_angle_alpha                 90.046232
_cell_angle_beta                  94.775166
_cell_angle_gamma                 90.588477
_cell_volume                      2010.296919
_symmetry_space_group_name_H-M    P1
_symmetry_Int_Tables_number       1
loop_
    _symmetry_equiv_pos_site_id
    _symmetry_equiv_pos_as_xyz
    1  x,y,z
loop_
    _atom_site_type_symbol
    _atom_site_label
    _atom_site_fract_x
    _atom_site_fract_y
    _atom_site_fract_z
    _atom_type_partial_charge
    C   C1   0.979353  0.184219  0.788173  0.036864
    C   C2   0.923307  0.246576  0.843025  0.024075
    C   C3   0.912549  0.194483  0.914916  0.325613
    N   N1   0.955955  0.099364  0.905041  -0.496258
    C   C4   0.994541  0.092550  0.826440  0.349961
    C   C5   0.874926  0.236325  0.984763  -0.385942
    C   C6   0.900068  0.192901  0.067526  0.120753
    C   C7   0.917870  0.247915  0.139452  0.059672
    C   C8   0.950987  0.183599  0.202900  0.115082
    C   C9   0.948981  0.088432  0.167776  0.095854
    N   N2   0.916619  0.095427  0.085185  -0.124010
    C   C10  0.964972  0.993046  0.212186  -0.422006
    C   C11  0.002427  0.908378  0.175828  0.338963
    C   C12  0.017971  0.816912  0.214440  0.027248
    C   C13  0.071872  0.753938  0.159223  0.045229
    C   C14  0.081171  0.805514  0.086888  0.303638
    N   N3   0.038949  0.900894  0.096845  -0.482348
    C   C15  0.117154  0.763219  0.016765  -0.371255
    C   C16  0.094200  0.807190  0.933962  0.103408
    C   C17  0.078748  0.752826  0.861551  0.067740
    C   C18  0.047522  0.817745  0.798253  0.127746
    C   C19  0.048408  0.912549  0.833945  0.086169
    N   N4   0.078293  0.904821  0.916677  -0.112906
    C   C20  0.033499  0.008305  0.790033  -0.420143
    H   H1   0.843396  0.313597  0.982819  0.172141
    H   H2   0.949310  0.992730  0.277451  0.198955
    H   H3   0.147249  0.685645  0.018621  0.170529
    H   H4   0.050890  0.009201  0.724995  0.195856
    H   H5   0.895272  0.037444  0.043213  0.249988
    H   H6   0.098492  0.962515  0.959033  0.248765
    C   C21  0.095439  0.652642  0.848361  -0.217362
    C   C22  0.078173  0.618319  0.768175  -0.071135
    C   C23  0.034759  0.680889  0.702767  -0.035814
    C   C24  0.021556  0.783595  0.717184  -0.285645
    C   C25  0.015833  0.217693  0.712218  -0.283348
    C   C26  0.987956  0.317028  0.693692  0.015590
    C   C27  0.918968  0.376973  0.747690  -0.063127
    C   C28  0.890272  0.343645  0.824237  -0.235256
    C   C29  0.901883  0.348282  0.152028  -0.206727
    C   C30  0.921432  0.383466  0.231844  -0.083707
    C   C31  0.966480  0.321489  0.297323  -0.043872
    C   C32  0.979174  0.218610  0.283536  -0.261013
    C   C33  0.983822  0.784181  0.291135  -0.278001
    C   C34  0.012255  0.684989  0.310088  0.009499
    C   C35  0.079400  0.624564  0.255601  -0.059654
    C   C36  0.105421  0.657062  0.178363  -0.246654
    H   H7   0.126065  0.601598  0.898012  0.131075
    H   H8   0.994300  0.834625  0.666889  0.148648
    H   H9   0.062578  0.169322  0.668546  0.107506
    H   H10  0.887661  0.451940  0.729963  0.116614
    H   H11  0.840816  0.393188  0.865828  0.121023
    H   H12  0.869863  0.398839  0.102267  0.129329
    H   H13  0.007321  0.168076  0.334055  0.123543
    H   H14  0.938527  0.833032  0.335009  0.130851
    H   H15  0.111018  0.549696  0.273454  0.120363
    H   H16  0.153448  0.607102  0.136499  0.121588
    H   H17  0.099383  0.540826  0.756162  0.114464
    H   H18  0.900240  0.461045  0.243458  0.120748
    O   O1   0.886459  0.607110  0.588172  -0.693355
    O   O2   0.137503  0.596513  0.593856  -0.696644
    C   C37  0.018064  0.632917  0.620484  0.799465
    O   O3   0.131215  0.389730  0.592868  -0.720382
    O   O4   0.886348  0.399511  0.580448  -0.719026
    C   C38  0.004091  0.361126  0.613665  0.818983
    O   O5   0.111789  0.396077  0.412178  -0.702652
    O   O6   0.867321  0.408848  0.405087  -0.710576
    C   C39  0.983166  0.369631  0.379436  0.833106
    O   O7   0.867502  0.614109  0.411715  -0.700328
    O   O8   0.119200  0.602930  0.422771  -0.694593
    C   C40  0.997627  0.640863  0.390395  0.770777
    Zn  Zn1  0.161612  0.493450  0.505625  1.049678
    Zn  Zn2  0.839618  0.506916  0.496457  1.082540
    H   H19  0.364799  0.649680  0.512865  0.176271
    C   C41  0.358738  0.313550  0.499005  -0.031640
    H   H20  0.246475  0.302482  0.503213  0.118704
    C   C42  0.431351  0.226242  0.492334  -0.033166
    C   C43  0.576050  0.229174  0.487537  0.010875
    H   H21  0.635313  0.160496  0.483137  0.082323
    C   C44  0.647505  0.319160  0.488818  -0.218403
    H   H22  0.759464  0.308664  0.486097  0.167461
    C   C45  0.577064  0.411345  0.494232  0.200662
    C   C46  0.427881  0.407043  0.500241  0.032257
    N   N5   0.351901  0.492303  0.507622  0.046105
    C   C47  0.423501  0.580860  0.508238  -0.111907
    H   H23  0.625780  0.657933  0.504044  0.146338
    C   C48  0.571908  0.585856  0.502117  -0.020105
    N   N6   0.649109  0.502122  0.494400  -0.040109
    Br  Br1  0.330327  0.101409  0.491082  -0.031566
