# generated using pymatgen
data_V2H23C48N2ClO14
_symmetry_space_group_name_H-M   'P 1'
_cell_length_a   6.71351400
_cell_length_b   26.99188500
_cell_length_c   32.41026800
_cell_angle_alpha   101.21942100
_cell_angle_beta   89.55967600
_cell_angle_gamma   90.52896800
_symmetry_Int_Tables_number   1
_chemical_formula_structural   V2H23C48N2ClO14
_chemical_formula_sum   'V4 H46 C96 N4 Cl2 O28'
_cell_volume   5760.48937758
_cell_formula_units_Z   2
loop_
 _symmetry_equiv_pos_site_id
 _symmetry_equiv_pos_as_xyz
  1  'x, y, z'
loop_
 _atom_site_type_symbol
 _atom_site_label
 _atom_site_symmetry_multiplicity
 _atom_site_fract_x
 _atom_site_fract_y
 _atom_site_fract_z
 _atom_site_occupancy
  V  V1  1  0.92180500  0.49282400  0.49784600  1
  V  V2  1  0.42222400  0.50563200  0.49915800  1
  V  V3  1  0.26453700  0.00469400  0.99925500  1
  V  V4  1  0.76420400  0.99335300  0.99816300  1
  H  H1  1  0.34305400  0.88072900  0.90796000  1
  H  H2  1  0.36791300  0.81722500  0.84354500  1
  H  H3  1  0.74637700  0.83485300  0.82162600  1
  H  H4  1  0.72906200  0.90034700  0.88445000  1
  H  H5  1  0.79810900  0.80465600  0.76287200  1
  H  H6  1  0.81764900  0.74156600  0.69896300  1
  H  H7  1  0.37340600  0.69156300  0.73797800  1
  H  H8  1  0.35133100  0.75296000  0.80325900  1
  H  H9  1  0.42598100  0.66953300  0.67633000  1
  H  H10  1  0.44426900  0.60639500  0.61092800  1
  H  H11  1  0.81234600  0.60769900  0.60076100  1
  H  H12  1  0.79269600  0.67142800  0.66570000  1
  H  H13  1  0.42029400  0.80556900  0.33075500  1
  H  H14  1  0.39989100  0.86019600  0.27829700  1
  H  H15  1  0.74454300  0.84328200  0.12822300  1
  H  H16  1  0.74466700  0.89439300  0.07358400  1
  H  H17  1  0.34444400  0.93919600  0.10328000  1
  H  H18  1  0.35115500  0.88585400  0.15587600  1
  H  H19  1  0.41985200  0.66366000  0.36842000  1
  H  H20  1  0.43892100  0.60915300  0.42053100  1
  H  H21  1  0.82492600  0.57105500  0.40178900  1
  H  H22  1  0.80431300  0.62542300  0.34969600  1
  H  H23  1  0.04010200  0.18704700  0.75530000  1
  H  H24  1  0.04913500  0.23709400  0.69934400  1
  H  H25  1  0.13487900  0.31843200  0.75161700  1
  H  H26  1  0.12189700  0.26650400  0.80623600  1
  H  H27  1  0.29404100  0.35095000  0.63354700  1
  H  H28  1  0.30888700  0.40474900  0.58103900  1
  H  H29  1  0.94001700  0.41386000  0.59226300  1
  H  H30  1  0.92661700  0.36373300  0.64717000  1
  H  H31  1  0.86925100  0.15677800  0.87561500  1
  H  H32  1  0.84932900  0.10180500  0.92768100  1
  H  H33  1  0.22982100  0.07860900  0.90298300  1
  H  H34  1  0.24764600  0.13407000  0.85165200  1
  H  H35  1  0.84619900  0.07865300  0.11709900  1
  H  H36  1  0.85821600  0.14344600  0.18112000  1
  H  H37  1  0.26513300  0.18697900  0.15839700  1
  H  H38  1  0.25516700  0.12182900  0.09400700  1
  H  H39  1  0.25643400  0.21340400  0.22053100  1
  H  H40  1  0.27317300  0.27717300  0.28459800  1
  H  H41  1  0.90883100  0.27893100  0.27432900  1
  H  H42  1  0.89057900  0.21421600  0.21140500  1
  H  H43  1  0.91202600  0.30813300  0.33460600  1
  H  H44  1  0.93195100  0.37377200  0.39764400  1
  H  H45  1  0.31990200  0.40772500  0.38566000  1
  H  H46  1  0.29896000  0.34403600  0.32126400  1
  C  C1  1  0.63685800  0.44429200  0.55167900  1
  C  C2  1  0.63940200  0.43360900  0.43337800  1
  C  C3  1  0.14348400  0.55401900  0.44527700  1
  C  C4  1  0.14073200  0.56499700  0.56360700  1
  C  C5  1  0.21241600  0.87039800  0.88881300  1
  C  C6  1  0.22533200  0.83420700  0.85244000  1
  C  C7  1  0.05920100  0.82130600  0.82744200  1
  C  C8  1  0.88019800  0.84490600  0.83955700  1
  C  C9  1  0.86890700  0.88165300  0.87543800  1
  C  C10  1  0.03458000  0.89444700  0.90002900  1
  C  C11  1  0.92331900  0.77945300  0.75855700  1
  C  C12  1  0.93444900  0.74373100  0.72198200  1
  C  C13  1  0.09650700  0.71229300  0.71422800  1
  C  C14  1  0.24708700  0.71653300  0.74341700  1
  C  C15  1  0.23440200  0.75158500  0.78044700  1
  C  C16  1  0.07244600  0.78342600  0.78827600  1
  C  C17  1  0.29059700  0.65602900  0.65996000  1
  C  C18  1  0.30127300  0.62080600  0.62303200  1
  C  C19  1  0.12946600  0.60336500  0.60188400  1
  C  C20  1  0.94706900  0.62158200  0.61729000  1
  C  C21  1  0.93648600  0.65765000  0.65369500  1
  C  C22  1  0.10816900  0.67470000  0.67526800  1
  C  C23  1  0.97240700  0.66770600  0.29241500  1
  C  C24  1  0.21489300  0.72158700  0.32908300  1
  C  C25  1  0.20458900  0.75258900  0.29997700  1
  C  C26  1  0.07737100  0.74043600  0.26648500  1
  C  C27  1  0.96077600  0.69774800  0.26258800  1
  C  C28  1  0.32053900  0.79575300  0.30434700  1
  C  C29  1  0.30899400  0.82639700  0.27494300  1
  C  C30  1  0.18277800  0.81358600  0.24105700  1
  C  C31  1  0.06732500  0.77072400  0.23697300  1
  C  C32  1  0.94226800  0.75825500  0.20315900  1
  C  C33  1  0.82539000  0.71523900  0.19893200  1
  C  C34  1  0.83411600  0.68506000  0.22875600  1
  C  C35  1  0.17171200  0.84360100  0.21124500  1
  C  C36  1  0.93642200  0.78850300  0.17338200  1
  C  C37  1  0.87851100  0.86335800  0.12247900  1
  C  C38  1  0.87734800  0.89263900  0.09191500  1
  C  C39  1  0.04440000  0.92017900  0.08520500  1
  C  C40  1  0.21262800  0.91808300  0.10884100  1
  C  C41  1  0.21499400  0.88846800  0.13898800  1
  C  C42  1  0.04761400  0.86113400  0.14620100  1
  C  C43  1  0.28793400  0.64389000  0.37590800  1
  C  C44  1  0.29945200  0.61285500  0.40500200  1
  C  C45  1  0.13307100  0.58672900  0.41438300  1
  C  C46  1  0.95568700  0.59138200  0.39437600  1
  C  C47  1  0.94483700  0.62164700  0.36473800  1
  C  C48  1  0.11076200  0.64817900  0.35549400  1
  C  C49  1  0.41024700  0.20828100  0.82340800  1
  C  C50  1  0.73675900  0.18140400  0.80635800  1
  C  C51  1  0.74504500  0.20978100  0.77523600  1
  C  C52  1  0.58362900  0.23810700  0.76865200  1
  C  C53  1  0.41580500  0.23770300  0.79305300  1
  C  C54  1  0.91303200  0.20946600  0.75037600  1
  C  C55  1  0.91800100  0.23749900  0.71896700  1
  C  C56  1  0.75591600  0.26625300  0.71280400  1
  C  C57  1  0.58970400  0.26656400  0.73774000  1
  C  C58  1  0.42941000  0.29538600  0.73151500  1
  C  C59  1  0.26131300  0.29570200  0.75634300  1
  C  C60  1  0.25405700  0.26659800  0.78698500  1
  C  C61  1  0.75917100  0.29444300  0.68155900  1
  C  C62  1  0.43818400  0.32414900  0.70068300  1
  C  C63  1  0.43647300  0.36548000  0.62554500  1
  C  C64  1  0.44452200  0.39531200  0.59542800  1
  C  C65  1  0.62556300  0.41240300  0.58323000  1
  C  C66  1  0.79814500  0.39993900  0.60140600  1
  C  C67  1  0.79029400  0.37097500  0.63203900  1
  C  C68  1  0.60944800  0.35334000  0.64420400  1
  C  C69  1  0.72837100  0.13969700  0.88151800  1
  C  C70  1  0.71712000  0.10908700  0.91105500  1
  C  C71  1  0.53798100  0.08695600  0.91864500  1
  C  C72  1  0.36998700  0.09619400  0.89725600  1
  C  C73  1  0.37987800  0.12779800  0.86863800  1
  C  C74  1  0.55932100  0.14936400  0.86041000  1
  C  C75  1  0.71864600  0.10254100  0.12622300  1
  C  C76  1  0.72570400  0.13938900  0.16206800  1
  C  C77  1  0.56299300  0.16985500  0.17387900  1
  C  C78  1  0.39278800  0.16307300  0.14964200  1
  C  C79  1  0.38719400  0.12662200  0.11330700  1
  C  C80  1  0.55042800  0.09638000  0.10168200  1
  C  C81  1  0.39994400  0.22793200  0.23223000  1
  C  C82  1  0.40989100  0.26427700  0.26853100  1
  C  C83  1  0.59246700  0.28265600  0.28444300  1
  C  C84  1  0.76454300  0.26426200  0.26351100  1
  C  C85  1  0.75441100  0.22748900  0.22760000  1
  C  C86  1  0.57227000  0.20911700  0.21186500  1
  C  C87  1  0.78140900  0.33020900  0.34483500  1
  C  C88  1  0.79298500  0.36697800  0.38077700  1
  C  C89  1  0.62722200  0.39467600  0.39547300  1
  C  C90  1  0.44974900  0.38574200  0.37421200  1
  C  C91  1  0.43815400  0.34939200  0.33798900  1
  C  C92  1  0.60406500  0.32135000  0.32304700  1
  C  C93  1  0.54974000  0.05803000  0.06330600  1
  C  C94  1  0.52371400  0.05281600  0.94841500  1
  C  C95  1  0.02022000  0.93438200  0.93719800  1
  C  C96  1  0.04685700  0.95152400  0.05319900  1
  N  N1  1  0.09913900  0.67978300  0.32505500  1
  N  N2  1  0.05094200  0.83060900  0.17763300  1
  N  N3  1  0.56976100  0.18063200  0.82967900  1
  N  N4  1  0.60176200  0.32328200  0.67599000  1
  Cl  Cl1  1  0.66592700  0.69897100  0.15583100  1
  Cl  Cl2  1  0.68560900  0.63054500  0.22347300  1
  O  O1  1  0.47295200  0.45371000  0.44856700  1
  O  O2  1  0.81224900  0.45126400  0.53660200  1
  O  O3  1  0.97405300  0.54576600  0.54768300  1
  O  O4  1  0.81324900  0.44241000  0.45080900  1
  O  O5  1  0.97581700  0.53627700  0.45673000  1
  O  O6  1  0.47117800  0.46098300  0.53931500  1
  O  O7  1  0.64908500  0.53077900  0.50166200  1
  O  O8  1  0.31681800  0.54822400  0.46135000  1
  O  O9  1  0.31580000  0.55520700  0.54696900  1
  O  O10  1  0.14680300  0.46767800  0.49538400  1
  O  O11  1  0.86075800  0.62550800  0.28813500  1
  O  O12  1  0.33736300  0.73394300  0.36211300  1
  O  O13  1  0.27913700  0.88653500  0.21643000  1
  O  O14  1  0.82030400  0.77488900  0.13946100  1
  O  O15  1  0.24626800  0.20809800  0.84736200  1
  O  O16  1  0.89355900  0.15318700  0.81242100  1
  O  O17  1  0.91860300  0.29194600  0.65601100  1
  O  O18  1  0.28452300  0.35408400  0.69618800  1
  O  O19  1  0.67777000  0.05103600  0.97359100  1
  O  O20  1  0.40720400  0.06129800  0.03542800  1
  O  O21  1  0.21927900  0.97503800  0.04945400  1
  O  O22  1  0.35676900  0.02648400  0.94756200  1
  O  O23  1  0.17398300  0.94103000  0.96325000  1
  O  O24  1  0.72098000  0.03362900  0.05495800  1
  O  O25  1  0.53795300  0.96566100  0.99610500  1
  O  O26  1  0.85479800  0.96086300  0.94132800  1
  O  O27  1  0.90319800  0.94292800  0.02424400  1
  O  O28  1  0.04035900  0.03252800  0.00250000  1
