# generated using pymatgen
data_ZnH6C18N5O4
_symmetry_space_group_name_H-M   'P 1'
_cell_length_a   8.53015900
_cell_length_b   12.78530100
_cell_length_c   13.41776700
_cell_angle_alpha   90.87803800
_cell_angle_beta   90.06503700
_cell_angle_gamma   95.42937600
_symmetry_Int_Tables_number   1
_chemical_formula_structural   ZnH6C18N5O4
_chemical_formula_sum   'Zn2 H12 C36 N10 O8'
_cell_volume   1456.60922867
_cell_formula_units_Z   2
loop_
 _symmetry_equiv_pos_site_id
 _symmetry_equiv_pos_as_xyz
  1  'x, y, z'
loop_
 _atom_site_type_symbol
 _atom_site_label
 _atom_site_symmetry_multiplicity
 _atom_site_fract_x
 _atom_site_fract_y
 _atom_site_fract_z
 _atom_site_occupancy
  Zn  Zn1  1  0.50129700  0.50510600  0.88906700  1
  Zn  Zn2  1  0.49869900  0.49489600  0.11093400  1
  H  H1  1  0.29476400  0.86100400  0.98191300  1
  H  H2  1  0.70523300  0.13899900  0.01808800  1
  H  H3  1  0.02099300  0.57424000  0.04107700  1
  H  H4  1  0.97900200  0.42576200  0.95892600  1
  H  H5  1  0.53737600  0.65646000  0.24882200  1
  H  H6  1  0.46263800  0.34354300  0.75118200  1
  H  H7  1  0.54393400  0.75696900  0.40079200  1
  H  H8  1  0.45613200  0.24303000  0.59921000  1
  H  H9  1  0.29478000  0.30530300  0.54642600  1
  H  H10  1  0.70524700  0.69467400  0.45359900  1
  H  H11  1  0.47876300  0.32781700  0.25009700  1
  H  H12  1  0.52122300  0.67218500  0.74990200  1
  C  C1  1  0.17221300  0.71025500  0.00872500  1
  C  C2  1  0.82778300  0.28975000  0.99127700  1
  C  C3  1  0.18120300  0.81708800  0.99120500  1
  C  C4  1  0.81879200  0.18291600  0.00879600  1
  C  C5  1  0.04472900  0.86881300  0.98984900  1
  C  C6  1  0.95526600  0.13118900  0.01015200  1
  C  C7  1  0.89872100  0.81004500  0.99306500  1
  C  C8  1  0.10127500  0.18995900  0.00693600  1
  C  C9  1  0.89249900  0.70426200  0.01090700  1
  C  C10  1  0.10749900  0.29574200  0.98909400  1
  C  C11  1  0.02799300  0.65668800  0.02501500  1
  C  C12  1  0.97200400  0.34331500  0.97498800  1
  C  C13  1  0.74393200  0.63878600  0.00694800  1
  C  C14  1  0.25606500  0.36121900  0.99305500  1
  C  C15  1  0.69187400  0.35191300  0.99461800  1
  C  C16  1  0.30812100  0.64809200  0.00538300  1
  C  C17  1  0.48450200  0.40096200  0.29189700  1
  C  C18  1  0.51549100  0.59904000  0.70810400  1
  C  C19  1  0.51795800  0.58478100  0.29053500  1
  C  C20  1  0.48205100  0.41522000  0.70946700  1
  C  C21  1  0.52153400  0.58911300  0.39317700  1
  C  C22  1  0.47848400  0.41088500  0.60682500  1
  C  C23  1  0.49894800  0.49774800  0.44582000  1
  C  C24  1  0.50106200  0.50225100  0.55418100  1
  C  C25  1  0.48528400  0.40231600  0.39539700  1
  C  C26  1  0.51471300  0.59768400  0.60460400  1
  C  C27  1  0.57535000  0.68967800  0.44544300  1
  C  C28  1  0.42468100  0.31031600  0.55456300  1
  C  C29  1  0.50281400  0.69663100  0.54806400  1
  C  C30  1  0.49718300  0.30336500  0.45193200  1
  C  C31  1  0.75268700  0.85409400  0.97415800  1
  C  C32  1  0.24730900  0.14590900  0.02584200  1
  C  C33  1  0.33660100  0.71399100  0.53731400  1
  C  C34  1  0.66339400  0.28599200  0.46265700  1
  C  C35  1  0.58496400  0.78651700  0.60128600  1
  C  C36  1  0.41500100  0.21348700  0.39871500  1
  N  N1  1  0.05836700  0.97981800  0.98313100  1
  N  N2  1  0.94162800  0.02018400  0.01687000  1
  N  N3  1  0.49671800  0.49173900  0.24163500  1
  N  N4  1  0.50327900  0.50826300  0.75836600  1
  N  N5  1  0.63522000  0.88951500  0.95899800  1
  N  N6  1  0.36477600  0.11048800  0.04100200  1
  N  N7  1  0.20516100  0.72774800  0.52883600  1
  N  N8  1  0.79483400  0.27222300  0.47111600  1
  N  N9  1  0.64990700  0.85755400  0.64334700  1
  N  N10  1  0.35003400  0.14245700  0.35665800  1
  O  O1  1  0.68746000  0.59932800  0.09042800  1
  O  O2  1  0.31253900  0.40067400  0.90957400  1
  O  O3  1  0.68430400  0.61246400  0.91893700  1
  O  O4  1  0.31569400  0.38753900  0.08106500  1
  O  O5  1  0.65039700  0.39435800  0.91124000  1
  O  O6  1  0.34959800  0.60564500  0.08876100  1
  O  O7  1  0.64173400  0.38119400  0.08249600  1
  O  O8  1  0.35826000  0.61880900  0.91750500  1
