# generated using pymatgen
data_FeH10C19(NO2)4
_symmetry_space_group_name_H-M   'P 1'
_cell_length_a   9.31443300
_cell_length_b   16.96405500
_cell_length_c   15.50687200
_cell_angle_alpha   105.46595400
_cell_angle_beta   87.46348200
_cell_angle_gamma   76.84653800
_symmetry_Int_Tables_number   1
_chemical_formula_structural   FeH10C19(NO2)4
_chemical_formula_sum   'Fe2 H20 C38 N8 O16'
_cell_volume   2285.14639594
_cell_formula_units_Z   2
loop_
 _symmetry_equiv_pos_site_id
 _symmetry_equiv_pos_as_xyz
  1  'x, y, z'
loop_
 _atom_site_type_symbol
 _atom_site_label
 _atom_site_symmetry_multiplicity
 _atom_site_fract_x
 _atom_site_fract_y
 _atom_site_fract_z
 _atom_site_occupancy
  Fe  Fe1  1  0.50408300  0.99140800  0.32494600  1
  Fe  Fe2  1  0.49552400  0.99757600  0.66938800  1
  H  H1  1  0.65709400  0.96050100  0.93096000  1
  H  H2  1  0.67426400  0.04884000  0.07243000  1
  H  H3  1  0.68844000  0.94114400  0.07610800  1
  H  H4  1  0.32727800  0.98278200  0.92513600  1
  H  H5  1  0.33451100  0.04713300  0.07027300  1
  H  H6  1  0.94927000  0.02195100  0.71230700  1
  H  H7  1  0.05539800  0.96526600  0.27814400  1
  H  H8  1  0.18590400  0.26731700  0.42699500  1
  H  H9  1  0.16060100  0.43323000  0.69187500  1
  H  H10  1  0.29481300  0.31725400  0.74112700  1
  H  H11  1  0.86080800  0.55540000  0.30523700  1
  H  H12  1  0.73604800  0.66918200  0.25013700  1
  H  H13  1  0.85366000  0.77207700  0.61514600  1
  H  H14  1  0.68815700  0.74767500  0.63195800  1
  H  H15  1  0.19656700  0.16223900  0.93554500  1
  H  H16  1  0.37057900  0.12553600  0.96310300  1
  H  H17  1  0.23851400  0.18081500  0.11769800  1
  H  H18  1  0.07697800  0.16030300  0.14600800  1
  H  H19  1  0.75101500  0.82878400  0.93497100  1
  H  H20  1  0.87984400  0.83879800  0.86149700  1
  C  C1  1  0.96007100  0.02052600  0.78096700  1
  C  C2  1  0.84965200  0.00048600  0.82576400  1
  C  C3  1  0.86763200  0.99022100  0.91122700  1
  C  C4  1  0.76930400  0.94902900  0.95281300  1
  C  C5  1  0.74591900  0.98357300  0.05349000  1
  C  C6  1  0.09111400  0.02618300  0.81699400  1
  C  C7  1  0.10145900  0.02776800  0.90724700  1
  C  C8  1  0.98813800  0.00975300  0.95448000  1
  C  C9  1  0.00285100  0.00142300  0.04619200  1
  C  C10  1  0.88909000  0.98369400  0.09297300  1
  C  C11  1  0.90563400  0.97376900  0.17889700  1
  C  C12  1  0.23832000  0.04191300  0.95025900  1
  C  C13  1  0.22014500  0.06303700  0.05234100  1
  C  C14  1  0.12707200  0.01537200  0.08782800  1
  C  C15  1  0.14823500  0.99820700  0.17025500  1
  C  C16  1  0.04016200  0.97383900  0.21231600  1
  C  C17  1  0.78368400  0.96841900  0.23952800  1
  C  C18  1  0.62363100  0.83115300  0.34008300  1
  C  C19  1  0.27691100  0.01010600  0.21943900  1
  C  C20  1  0.33500100  0.13019800  0.45656400  1
  C  C21  1  0.65739000  0.86047600  0.53392600  1
  C  C22  1  0.72240400  0.98511800  0.77657300  1
  C  C23  1  0.39079000  0.15485200  0.64874900  1
  C  C24  1  0.21610100  0.02585000  0.75494200  1
  C  C25  1  0.28795600  0.21232200  0.52374300  1
  C  C26  1  0.20940400  0.27904000  0.49624200  1
  C  C27  1  0.16219600  0.35892200  0.55574400  1
  C  C28  1  0.19557400  0.37158800  0.64350900  1
  C  C29  1  0.27265400  0.30509900  0.67162800  1
  C  C30  1  0.31927600  0.22464600  0.61270200  1
  C  C31  1  0.92051500  0.55875500  0.47377200  1
  C  C32  1  0.07709400  0.42950100  0.52639300  1
  C  C33  1  0.81825300  0.61679500  0.35308900  1
  C  C34  1  0.74708800  0.68215100  0.32129100  1
  C  C35  1  0.69245500  0.76259400  0.37864900  1
  C  C36  1  0.70860100  0.77634200  0.47000700  1
  C  C37  1  0.77946400  0.71033300  0.50217400  1
  C  C38  1  0.83713400  0.62994000  0.44336300  1
  N  N1  1  0.03376900  0.50721300  0.58456100  1
  N  N2  1  0.95695700  0.57081400  0.55851100  1
  N  N3  1  0.96436800  0.48085200  0.41555400  1
  N  N4  1  0.04137700  0.41709400  0.44149300  1
  N  N5  1  0.79376900  0.72631500  0.59612600  1
  N  N6  1  0.28619800  0.10965200  0.92509700  1
  N  N7  1  0.15457000  0.15288900  0.09195600  1
  N  N8  1  0.83571000  0.85875000  0.92900800  1
  O  O1  1  0.64483700  0.00125100  0.23136400  1
  O  O2  1  0.63539700  0.81783400  0.25242100  1
  O  O3  1  0.81461000  0.94085400  0.30961100  1
  O  O4  1  0.55741300  0.90679600  0.39228200  1
  O  O5  1  0.33484400  0.95599500  0.26301200  1
  O  O6  1  0.32334800  0.07917300  0.22968300  1
  O  O7  1  0.46991400  0.10547500  0.41459600  1
  O  O8  1  0.24075800  0.08312600  0.43546000  1
  O  O9  1  0.53116700  0.88066500  0.58522400  1
  O  O10  1  0.73896100  0.91511900  0.54105400  1
  O  O11  1  0.66390000  0.03606700  0.72967500  1
  O  O12  1  0.67649100  0.91646200  0.77097500  1
  O  O13  1  0.18893500  0.05011200  0.68249500  1
  O  O14  1  0.44286700  0.07740100  0.59639900  1
  O  O15  1  0.35366000  0.99225500  0.76528400  1
  O  O16  1  0.39077400  0.16876200  0.73615800  1
