# generated using pymatgen
data_VH13C23O5
_symmetry_space_group_name_H-M   'P 1'
_cell_length_a   23.08989500
_cell_length_b   6.82890500
_cell_length_c   19.90249600
_cell_angle_alpha   90.00000000
_cell_angle_beta   94.01107900
_cell_angle_gamma   90.00000000
_symmetry_Int_Tables_number   1
_chemical_formula_structural   VH13C23O5
_chemical_formula_sum   'V4 H52 C92 O20'
_cell_volume   3130.51279967
_cell_formula_units_Z   4
loop_
 _symmetry_equiv_pos_site_id
 _symmetry_equiv_pos_as_xyz
  1  'x, y, z'
loop_
 _atom_site_type_symbol
 _atom_site_label
 _atom_site_symmetry_multiplicity
 _atom_site_fract_x
 _atom_site_fract_y
 _atom_site_fract_z
 _atom_site_occupancy
  V  V1  1  0.24974200  0.82494700  0.24191600  1
  V  V2  1  0.75027400  0.19155600  0.75808500  1
  V  V3  1  0.25025800  0.32494700  0.25808400  1
  V  V4  1  0.74972600  0.69155600  0.74191500  1
  H  H1  1  0.59914000  0.28305500  0.63770900  1
  H  H2  1  0.40059300  0.73341400  0.36266900  1
  H  H3  1  0.90086000  0.78305500  0.86229100  1
  H  H4  1  0.09940700  0.23341400  0.13733100  1
  H  H5  1  0.62410700  0.68448200  0.58681100  1
  H  H6  1  0.37561700  0.33198800  0.41355800  1
  H  H7  1  0.87589300  0.18448200  0.91318900  1
  H  H8  1  0.12438300  0.83198800  0.08644200  1
  H  H9  1  0.56242800  0.53401200  0.50036200  1
  H  H10  1  0.43726100  0.48240800  0.50006500  1
  H  H11  1  0.93757200  0.03401200  0.99963800  1
  H  H12  1  0.06273900  0.98240800  0.99993500  1
  H  H13  1  0.47896400  0.55235900  0.41673200  1
  H  H14  1  0.52072500  0.46406100  0.58369500  1
  H  H15  1  0.02103600  0.05235900  0.08326800  1
  H  H16  1  0.97927500  0.96406100  0.91630500  1
  H  H17  1  0.08552300  0.15684900  0.55677000  1
  H  H18  1  0.91352500  0.86098300  0.44211300  1
  H  H19  1  0.41447700  0.65684900  0.94323000  1
  H  H20  1  0.58647500  0.36098400  0.05788700  1
  H  H21  1  0.02422300  0.67813300  0.46512900  1
  H  H22  1  0.97482500  0.33968000  0.53374700  1
  H  H23  1  0.47577700  0.17813300  0.03487100  1
  H  H24  1  0.52517500  0.83968000  0.96625300  1
  H  H25  1  0.02314000  0.02584400  0.68058400  1
  H  H26  1  0.05255600  0.83156200  0.78132900  1
  H  H27  1  0.08296300  0.54656500  0.83191600  1
  H  H28  1  0.12972300  0.39938900  0.78278400  1
  H  H29  1  0.05490300  0.32753600  0.78992600  1
  H  H30  1  0.07795300  0.33412700  0.65754700  1
  H  H31  1  0.04853500  0.52841000  0.55680100  1
  H  H32  1  0.04408400  0.19453800  0.34015000  1
  H  H33  1  0.01252300  0.38972100  0.24057900  1
  H  H34  1  0.94509100  0.57310200  0.17974100  1
  H  H35  1  0.89877200  0.71753900  0.23029900  1
  H  H36  1  0.87071500  0.49843300  0.18835400  1
  H  H37  1  0.84860000  0.48446000  0.32095900  1
  H  H38  1  0.88014200  0.28905000  0.42069400  1
  H  H39  1  0.47686000  0.52584400  0.81941600  1
  H  H40  1  0.44744400  0.33156100  0.71867100  1
  H  H41  1  0.41703700  0.04656400  0.66808400  1
  H  H42  1  0.37027700  0.89938800  0.71721600  1
  H  H43  1  0.44509700  0.82753600  0.71007500  1
  H  H44  1  0.42204700  0.83412600  0.84245400  1
  H  H45  1  0.45146500  0.02841000  0.94319900  1
  H  H46  1  0.45591600  0.69453800  0.15985000  1
  H  H47  1  0.48747700  0.88972100  0.25942100  1
  H  H48  1  0.55490900  0.07310200  0.32025900  1
  H  H49  1  0.60122800  0.21753900  0.26970100  1
  H  H50  1  0.62928500  0.99843400  0.31164600  1
  H  H51  1  0.65140000  0.98446100  0.17904100  1
  H  H52  1  0.61985800  0.78905000  0.07930600  1
  C  C1  1  0.32897900  0.54394800  0.17197900  1
  C  C2  1  0.67124100  0.47256800  0.82831400  1
  C  C3  1  0.17102100  0.04394800  0.32802100  1
  C  C4  1  0.82875900  0.97256800  0.67168600  1
  C  C5  1  0.16589500  0.54417700  0.16640900  1
  C  C6  1  0.83429900  0.47232000  0.83332200  1
  C  C7  1  0.33410500  0.04417700  0.33359100  1
  C  C8  1  0.66570100  0.97232000  0.66666667  1
  C  C9  1  0.58631600  0.15574700  0.60799800  1
  C  C10  1  0.41339600  0.86069800  0.39240300  1
  C  C11  1  0.91368400  0.65574700  0.89200200  1
  C  C12  1  0.08660400  0.36069800  0.10759700  1
  C  C13  1  0.61651300  0.98275100  0.61714200  1
  C  C14  1  0.38321600  0.03371400  0.38323000  1
  C  C15  1  0.88348700  0.48275100  0.88285800  1
  C  C16  1  0.11678400  0.53371400  0.11677000  1
  C  C17  1  0.60019100  0.81983700  0.57963400  1
  C  C18  1  0.39951700  0.19660900  0.42076200  1
  C  C19  1  0.89980900  0.31983700  0.92036600  1
  C  C20  1  0.10048300  0.69660900  0.07923800  1
  C  C21  1  0.55377300  0.83045500  0.53241800  1
  C  C22  1  0.44591100  0.18596000  0.46801100  1
  C  C23  1  0.94622700  0.33045500  0.96758200  1
  C  C24  1  0.05408900  0.68596000  0.03198900  1
  C  C25  1  0.52319700  0.00308900  0.52361800  1
  C  C26  1  0.47648200  0.01331600  0.47682200  1
  C  C27  1  0.97680300  0.50308900  0.97638200  1
  C  C28  1  0.02351800  0.51331600  0.02317800  1
  C  C29  1  0.53931800  0.16551500  0.56159500  1
  C  C30  1  0.46036900  0.85089900  0.43883700  1
  C  C31  1  0.96068200  0.66551500  0.93840500  1
  C  C32  1  0.03963100  0.35089900  0.06116300  1
  C  C33  1  0.53803100  0.66863000  0.49395400  1
  C  C34  1  0.46165200  0.34778000  0.50648100  1
  C  C35  1  0.96196900  0.16863000  0.00604600  1
  C  C36  1  0.03834800  0.84778000  0.99351900  1
  C  C37  1  0.49127900  0.67888100  0.44711100  1
  C  C38  1  0.50840400  0.33752900  0.55332400  1
  C  C39  1  0.00872100  0.17888100  0.05288900  1
  C  C40  1  0.99159600  0.83752900  0.94667600  1
  C  C41  1  0.04607400  0.09170200  0.53074700  1
  C  C42  1  0.95298000  0.92618200  0.46810700  1
  C  C43  1  0.45392600  0.59170200  0.96925300  1
  C  C44  1  0.54702000  0.42618200  0.03189400  1
  C  C45  1  0.01623300  0.90623100  0.55174100  1
  C  C46  1  0.98281600  0.11171900  0.44705700  1
  C  C47  1  0.48376700  0.40623100  0.94825900  1
  C  C48  1  0.51718400  0.61171900  0.05294300  1
  C  C49  1  0.87388600  0.98295700  0.62542700  1
  C  C50  1  0.12570100  0.03368200  0.37403200  1
  C  C51  1  0.62611400  0.48295700  0.87457300  1
  C  C52  1  0.37429900  0.53368200  0.12596800  1
  C  C53  1  0.98670800  0.18954500  0.51852200  1
  C  C54  1  0.01234300  0.82829800  0.48032300  1
  C  C55  1  0.51329200  0.68954500  0.98147800  1
  C  C56  1  0.48765700  0.32829800  0.01967700  1
  C  C57  1  0.95797700  0.00228200  0.53973700  1
  C  C58  1  0.04110300  0.01560000  0.45907800  1
  C  C59  1  0.54202300  0.50228200  0.96026300  1
  C  C60  1  0.45889700  0.51560000  0.04092200  1
  C  C61  1  0.91181700  0.99166400  0.58671400  1
  C  C62  1  0.08756600  0.02536600  0.41248900  1
  C  C63  1  0.58818300  0.49166400  0.91328600  1
  C  C64  1  0.41243400  0.52536600  0.08751100  1
  C  C65  1  0.03406600  0.78890600  0.61258800  1
  C  C66  1  0.03519400  0.87387400  0.67552100  1
  C  C67  1  0.05168100  0.76496100  0.73199700  1
  C  C68  1  0.06703800  0.57107900  0.72554100  1
  C  C69  1  0.08478200  0.45369600  0.78640200  1
  C  C70  1  0.06591700  0.48611600  0.66260700  1
  C  C71  1  0.04943000  0.59502900  0.60613100  1
  C  C72  1  0.96403300  0.22971700  0.38660800  1
  C  C73  1  0.00113300  0.25801800  0.33607600  1
  C  C74  1  0.98343400  0.36759500  0.28016000  1
  C  C75  1  0.92865200  0.44893500  0.27472000  1
  C  C76  1  0.90959900  0.56699000  0.21445600  1
  C  C77  1  0.89155400  0.42070600  0.32520800  1
  C  C78  1  0.90924500  0.31114100  0.38112400  1
  C  C79  1  0.46593400  0.28890600  0.88741200  1
  C  C80  1  0.46480600  0.37387300  0.82447900  1
  C  C81  1  0.44831900  0.26496100  0.76800300  1
  C  C82  1  0.43296300  0.07107900  0.77445900  1
  C  C83  1  0.41521800  0.95369600  0.71359800  1
  C  C84  1  0.43408300  0.98611500  0.83739300  1
  C  C85  1  0.45057000  0.09502900  0.89386900  1
  C  C86  1  0.53596700  0.72971700  0.11339200  1
  C  C87  1  0.49886700  0.75801800  0.16392400  1
  C  C88  1  0.51656600  0.86759600  0.21984000  1
  C  C89  1  0.57134800  0.94893600  0.22528000  1
  C  C90  1  0.59040100  0.06699100  0.28554400  1
  C  C91  1  0.60844600  0.92070700  0.17479200  1
  C  C92  1  0.59075500  0.81114200  0.11887700  1
  O  O1  1  0.18520200  0.37658200  0.19110800  1
  O  O2  1  0.81494000  0.63992100  0.80868000  1
  O  O3  1  0.31479800  0.87658200  0.30889200  1
  O  O4  1  0.68506000  0.13992100  0.69132000  1
  O  O5  1  0.30728200  0.71860000  0.18238200  1
  O  O6  1  0.69290000  0.29790300  0.81783100  1
  O  O7  1  0.19271800  0.21860000  0.31761800  1
  O  O8  1  0.80710000  0.79790300  0.68216900  1
  O  O9  1  0.18829900  0.71862800  0.17807800  1
  O  O10  1  0.81186700  0.29787600  0.82172500  1
  O  O11  1  0.31170100  0.21862800  0.32192300  1
  O  O12  1  0.68813300  0.79787600  0.67827600  1
  O  O13  1  0.18913600  0.87642800  0.30464600  1
  O  O14  1  0.81070400  0.14007500  0.69513200  1
  O  O15  1  0.31086400  0.37642800  0.19535400  1
  O  O16  1  0.68929600  0.64007500  0.80486800  1
  O  O17  1  0.25160400  0.55099900  0.29053800  1
  O  O18  1  0.74829300  0.46550400  0.70945900  1
  O  O19  1  0.24839600  0.05099900  0.20946200  1
  O  O20  1  0.75170700  0.96550400  0.79054100  1
