data_DB0-m2_o11_o29_f0_pcu.sym.36_repeat
_audit_creation_date              2024-02-23
_audit_creation_method            'Materials Studio'
_symmetry_space_group_name_H-M    'P1'
_symmetry_Int_Tables_number       1
_symmetry_cell_setting            triclinic
loop_
_symmetry_equiv_pos_as_xyz
  x,y,z
_cell_length_a                    27.5140
_cell_length_b                    11.0415
_cell_length_c                    9.5354
_cell_angle_alpha                 90.0206
_cell_angle_beta                  90.0156
_cell_angle_gamma                 89.9936
loop_
_atom_site_label
_atom_site_type_symbol
_atom_site_fract_x
_atom_site_fract_y
_atom_site_fract_z
_atom_site_U_iso_or_equiv
_atom_site_adp_type
_atom_site_occupancy
O1     O     0.49884   0.32451   0.62836   0.00000  Uiso   1.00
O2     O     0.49998   0.32355   0.38675   0.00000  Uiso   1.00
C1     C     0.50081   0.26750   0.50799   0.00000  Uiso   1.00
O3     O     0.42899   0.50237   0.62280   0.00000  Uiso   1.00
O4     O     0.43061   0.50267   0.38093   0.00000  Uiso   1.00
C2     C     0.40707   0.49892   0.50053   0.00000  Uiso   1.00
Cu1    Cu    0.49948   0.50059   0.64690   0.00000  Uiso   1.00
Cu2    Cu    0.50139   0.49956   0.36623   0.00000  Uiso   1.00
O5     O     0.49718   0.67627   0.62558   0.00000  Uiso   1.00
O6     O     0.49923   0.67574   0.38493   0.00000  Uiso   1.00
O7     O     0.57021   0.50640   0.63134   0.00000  Uiso   1.00
O8     O     0.57181   0.50446   0.39113   0.00000  Uiso   1.00
C3     C     0.49927   0.73271   0.50547   0.00000  Uiso   1.00
C4     C     0.59386   0.50269   0.51250   0.00000  Uiso   1.00
C5     C     0.17740   0.39074   0.50680   0.00000  Uiso   1.00
O9     O     0.20312   0.29151   0.54044   0.00000  Uiso   1.00
N1     N     0.20147   0.49543   0.48700   0.00000  Uiso   1.00
C6     C     0.17740   0.59944   0.46475   0.00000  Uiso   1.00
C7     C     0.27751   0.47384   0.61466   0.00000  Uiso   1.00
C8     C     0.32761   0.47583   0.61832   0.00000  Uiso   1.00
C9     C     0.32934   0.52049   0.37321   0.00000  Uiso   1.00
C10    C     0.27924   0.52061   0.37047   0.00000  Uiso   1.00
C11    C     0.25323   0.49646   0.49083   0.00000  Uiso   1.00
C12    C     0.10151   0.49537   0.48544   0.00000  Uiso   1.00
C13    C     0.12675   0.38745   0.49797   0.00000  Uiso   1.00
C14    C     0.10060   0.27980   0.50331   0.00000  Uiso   1.00
C15    C     0.12726   0.60124   0.46711   0.00000  Uiso   1.00
C16    C     0.35380   0.49857   0.49737   0.00000  Uiso   1.00
H1     H     0.34891   0.53891   0.27735   0.00000  Uiso   1.00
H2     H     0.26039   0.53811   0.27308   0.00000  Uiso   1.00
C17    C     0.64714   0.50442   0.51496   0.00000  Uiso   1.00
C18    C     0.97511   0.39642   0.53488   0.00000  Uiso   1.00
C19    C     0.97532   0.60649   0.46818   0.00000  Uiso   1.00
C20    C     0.95017   0.50239   0.50504   0.00000  Uiso   1.00
C21    C     0.94895   0.29699   0.58343   0.00000  Uiso   1.00
C22    C     0.89916   0.30062   0.59289   0.00000  Uiso   1.00
C23    C     0.87425   0.40326   0.55416   0.00000  Uiso   1.00
C24    C     0.89970   0.50394   0.51113   0.00000  Uiso   1.00
C25    C     0.87411   0.60594   0.47346   0.00000  Uiso   1.00
C26    C     0.82385   0.60541   0.47683   0.00000  Uiso   1.00
N2     N     0.79963   0.50593   0.51905   0.00000  Uiso   1.00
C27    C     0.82397   0.40579   0.55867   0.00000  Uiso   1.00
C28    C     0.72218   0.48877   0.64104   0.00000  Uiso   1.00
C29    C     0.67204   0.48899   0.63973   0.00000  Uiso   1.00
C30    C     0.67293   0.52060   0.39192   0.00000  Uiso   1.00
C31    C     0.72300   0.52211   0.39388   0.00000  Uiso   1.00
C32    C     0.74780   0.50576   0.51819   0.00000  Uiso   1.00
O10    O     0.79910   0.30684   0.59835   0.00000  Uiso   1.00
C33    C     0.02552   0.39230   0.51711   0.00000  Uiso   1.00
C34    C     0.05097   0.49797   0.49094   0.00000  Uiso   1.00
C35    C     0.02620   0.60625   0.47101   0.00000  Uiso   1.00
C36    C     0.05081   0.28345   0.51764   0.00000  Uiso   1.00
H3     H     0.65270   0.47573   0.73715   0.00000  Uiso   1.00
H4     H     0.74132   0.47666   0.73907   0.00000  Uiso   1.00
H5     H     0.88030   0.22128   0.63074   0.00000  Uiso   1.00
H6     H     0.96600   0.21527   0.62045   0.00000  Uiso   1.00
H7     H     0.03226   0.19774   0.51555   0.00000  Uiso   1.00
O11    O     0.20255   0.70248   0.44595   0.00000  Uiso   1.00
C37    C     0.10288   0.70917   0.45334   0.00000  Uiso   1.00
H8     H     0.34589   0.45789   0.71646   0.00000  Uiso   1.00
H9     H     0.25730   0.45570   0.70958   0.00000  Uiso   1.00
H10    H     0.12223   0.79365   0.44224   0.00000  Uiso   1.00
C38    C     0.94874   0.70818   0.42812   0.00000  Uiso   1.00
C39    C     0.89885   0.70748   0.43048   0.00000  Uiso   1.00
O12    O     0.79889   0.70511   0.44015   0.00000  Uiso   1.00
C40    C     0.05308   0.71206   0.45515   0.00000  Uiso   1.00
H11    H     0.96510   0.78972   0.38863   0.00000  Uiso   1.00
H12    H     0.65442   0.53292   0.29299   0.00000  Uiso   1.00
H13    H     0.87976   0.78814   0.39760   0.00000  Uiso   1.00
H14    H     0.74278   0.53431   0.29696   0.00000  Uiso   1.00
H15    H     0.03707   0.80069   0.44908   0.00000  Uiso   1.00
C41    C     0.50098   0.93333   0.39400   0.00000  Uiso   1.00
C42    C     0.49826   0.86531   0.50991   0.00000  Uiso   1.00
H16    H     0.50347   0.88918   0.29276   0.00000  Uiso   1.00
H17    H     0.49531   0.90485   0.61298   0.00000  Uiso   1.00
C43    C     0.50072   0.06760   0.39502   0.00000  Uiso   1.00
C44    C     0.50083   0.13482   0.51209   0.00000  Uiso   1.00
H18    H     0.50097   0.11245   0.29399   0.00000  Uiso   1.00
H19    H     0.50128   0.09475   0.61521   0.00000  Uiso   1.00
C45    C     0.48084   0.41437   0.93107   0.00000  Uiso   1.00
N3     N     0.49753   0.50210   0.85667   0.00000  Uiso   1.00
H20    H     0.46844   0.33208   0.88069   0.00000  Uiso   1.00
H21    H     0.50063   0.58442   0.90610   0.00000  Uiso   1.00
C46    C     0.47649   0.42463   0.08550   0.00000  Uiso   1.00
N4     N     0.50305   0.49838   0.15648   0.00000  Uiso   1.00
H22    H     0.45100   0.36628   0.13964   0.00000  Uiso   1.00
H23    H     0.53192   0.53727   0.10512   0.00000  Uiso   1.00
C47    C     0.12265   0.16052   0.47701   0.00000  Uiso   1.00
O13    O     0.10761   0.07150   0.53905   0.00000  Uiso   1.00
O14    O     0.15552   0.14736   0.37311   0.00000  Uiso   1.00
C48    C     0.17353   0.03558   0.33813   0.00000  Uiso   1.00
H24    H     0.20057   0.04576   0.25271   0.00000  Uiso   1.00
H25    H     0.14353   0.97670   0.30090   0.00000  Uiso   1.00
H26    H     0.19151   0.99411   0.43055   0.00000  Uiso   1.00
