# generated using pymatgen
data_CoH8C14(NO2)2
_symmetry_space_group_name_H-M   'P 1'
_cell_length_a   6.66796700
_cell_length_b   13.79825500
_cell_length_c   15.75828400
_cell_angle_alpha   99.75848700
_cell_angle_beta   93.83992500
_cell_angle_gamma   100.33337700
_symmetry_Int_Tables_number   1
_chemical_formula_structural   CoH8C14(NO2)2
_chemical_formula_sum   'Co2 H16 C28 N4 O8'
_cell_volume   1398.60075462
_cell_formula_units_Z   2
loop_
 _symmetry_equiv_pos_site_id
 _symmetry_equiv_pos_as_xyz
  1  'x, y, z'
loop_
 _atom_site_type_symbol
 _atom_site_label
 _atom_site_symmetry_multiplicity
 _atom_site_fract_x
 _atom_site_fract_y
 _atom_site_fract_z
 _atom_site_occupancy
  Co  Co1  1  0.00095800  0.00822400  0.08555500  1
  Co  Co2  1  0.99904200  0.99177600  0.91444500  1
  H  H1  1  0.97260100  0.86462700  0.21637200  1
  H  H2  1  0.02739900  0.13537300  0.78362800  1
  H  H3  1  0.97531600  0.87546400  0.37382400  1
  H  H4  1  0.02468400  0.12453600  0.62617700  1
  H  H5  1  0.96676800  0.80793400  0.59650100  1
  H  H6  1  0.03323200  0.19206600  0.40349900  1
  H  H7  1  0.97012300  0.82277900  0.75446500  1
  H  H8  1  0.02987700  0.17722100  0.24553400  1
  H  H9  1  0.71823200  0.66846200  0.93525700  1
  H  H10  1  0.28176800  0.33153800  0.06474400  1
  H  H11  1  0.47244900  0.51492200  0.94114500  1
  H  H12  1  0.52755100  0.48507800  0.05885500  1
  H  H13  1  0.02432800  0.69090300  0.01134800  1
  H  H14  1  0.97567200  0.30909700  0.98865200  1
  H  H15  1  0.14178500  0.42949900  0.96611000  1
  H  H16  1  0.85821400  0.57050100  0.03389000  1
  C  C1  1  0.76642100  0.13731200  0.00358000  1
  C  C2  1  0.23357900  0.86268800  0.99642000  1
  C  C3  1  0.66704500  0.85575800  0.97820300  1
  C  C4  1  0.33295500  0.14424200  0.02179700  1
  C  C5  1  0.01437400  0.06324200  0.74199400  1
  C  C6  1  0.98562600  0.93675800  0.25800600  1
  C  C7  1  0.01278700  0.05733800  0.65369200  1
  C  C8  1  0.98721300  0.94266200  0.34630800  1
  C  C9  1  0.99552800  0.96541000  0.60080600  1
  C  C10  1  0.00447200  0.03459000  0.39919400  1
  C  C11  1  0.98048800  0.88071100  0.63717300  1
  C  C12  1  0.01951200  0.11928900  0.36282700  1
  C  C13  1  0.98248300  0.88917700  0.72579200  1
  C  C14  1  0.01751700  0.11082300  0.27420800  1
  C  C15  1  0.56418300  0.67306700  0.95054600  1
  C  C16  1  0.43581700  0.32693300  0.04945400  1
  C  C17  1  0.42688900  0.58683400  0.95506400  1
  C  C18  1  0.57311100  0.41316600  0.04493600  1
  C  C19  1  0.23373800  0.59225200  0.97945300  1
  C  C20  1  0.76626200  0.40774800  0.02054700  1
  C  C21  1  0.17715700  0.68445900  0.99621800  1
  C  C22  1  0.82284300  0.31554100  0.00378200  1
  C  C23  1  0.31299400  0.77051800  0.99047500  1
  C  C24  1  0.68700600  0.22948200  0.00952500  1
  C  C25  1  0.50837600  0.76541300  0.96858500  1
  C  C26  1  0.49162400  0.23458700  0.03141500  1
  C  C27  1  0.09197700  0.49953600  0.98559300  1
  C  C28  1  0.90802300  0.50046400  0.01440700  1
  N  N1  1  0.99918200  0.97973500  0.77665600  1
  N  N2  1  0.00081800  0.02026400  0.22334400  1
  N  N3  1  0.99286500  0.95807900  0.51042700  1
  N  N4  1  0.00713500  0.04192100  0.48957300  1
  O  O1  1  0.82328300  0.11002700  0.07576900  1
  O  O2  1  0.17671700  0.88997300  0.92423100  1
  O  O3  1  0.17366100  0.90165500  0.06998400  1
  O  O4  1  0.82633900  0.09834500  0.93001600  1
  O  O5  1  0.74848800  0.89928000  0.05648400  1
  O  O6  1  0.25151200  0.10072000  0.94351600  1
  O  O7  1  0.25066200  0.11747700  0.08978500  1
  O  O8  1  0.74933800  0.88252300  0.91021500  1
