# generated using pymatgen
data_ZnH3C11(NO2)3
_symmetry_space_group_name_H-M   'P 1'
_cell_length_a   12.79159600
_cell_length_b   8.54111800
_cell_length_c   15.03201100
_cell_angle_alpha   90.00000000
_cell_angle_beta   90.91489900
_cell_angle_gamma   90.00000000
_symmetry_Int_Tables_number   1
_chemical_formula_structural   ZnH3C11(NO2)3
_chemical_formula_sum   'Zn2 H6 C22 N6 O12'
_cell_volume   1642.10593757
_cell_formula_units_Z   2
loop_
 _symmetry_equiv_pos_site_id
 _symmetry_equiv_pos_as_xyz
  1  'x, y, z'
loop_
 _atom_site_type_symbol
 _atom_site_label
 _atom_site_symmetry_multiplicity
 _atom_site_fract_x
 _atom_site_fract_y
 _atom_site_fract_z
 _atom_site_occupancy
  Zn  Zn1  1  0.88414300  0.50000000  0.50914800  1
  Zn  Zn2  1  0.11585800  0.50000000  0.49085200  1
  H  H1  1  0.04796600  0.00000000  0.56102300  1
  H  H2  1  0.95203400  0.00000000  0.43897600  1
  H  H3  1  0.06542700  0.31879200  0.81807600  1
  H  H4  1  0.93457300  0.68120800  0.18192400  1
  H  H5  1  0.93457300  0.31879200  0.18192400  1
  H  H6  1  0.06542700  0.68120800  0.81807600  1
  C  C1  1  0.02024600  0.13927900  0.67484400  1
  C  C2  1  0.97975500  0.86072100  0.32515600  1
  C  C3  1  0.97975500  0.13927900  0.32515600  1
  C  C4  1  0.02024600  0.86072100  0.67484400  1
  C  C5  1  0.00475400  0.14065500  0.76539700  1
  C  C6  1  0.99524600  0.85934500  0.23460300  1
  C  C7  1  0.99524600  0.14065500  0.23460300  1
  C  C8  1  0.00475400  0.85934500  0.76539700  1
  C  C9  1  0.00257300  0.00000000  0.81251000  1
  C  C10  1  0.99742700  0.00000000  0.18749000  1
  C  C11  1  0.65703800  0.50000000  0.51282500  1
  C  C12  1  0.34296200  0.50000000  0.48717500  1
  C  C13  1  0.03418600  0.00000000  0.63143200  1
  C  C14  1  0.96581400  0.00000000  0.36856800  1
  C  C15  1  0.00111500  0.00000000  0.08935100  1
  C  C16  1  0.99888500  0.00000000  0.91064800  1
  C  C17  1  0.54693400  0.50000000  0.50416700  1
  C  C18  1  0.45306700  0.50000000  0.49583300  1
  C  C19  1  0.01373100  0.71864000  0.62107900  1
  C  C20  1  0.98626900  0.28136000  0.37892100  1
  C  C21  1  0.98626900  0.71864000  0.37892100  1
  C  C22  1  0.01373100  0.28136000  0.62107900  1
  N  N1  1  0.74740300  0.50000000  0.51775100  1
  N  N2  1  0.25259700  0.50000000  0.48224800  1
  N  N3  1  0.99968600  0.86425500  0.95602400  1
  N  N4  1  0.00031400  0.13574500  0.04397600  1
  N  N5  1  0.00031400  0.86425500  0.04397600  1
  N  N6  1  0.99968600  0.13574500  0.95602400  1
  O  O1  1  0.09909700  0.66941400  0.58282900  1
  O  O2  1  0.90090400  0.33058600  0.41717100  1
  O  O3  1  0.90090400  0.66941400  0.41717100  1
  O  O4  1  0.09909700  0.33058600  0.58282900  1
  O  O5  1  0.92039100  0.66344500  0.60138600  1
  O  O6  1  0.07960900  0.33655500  0.39861300  1
  O  O7  1  0.07960900  0.66344500  0.39861300  1
  O  O8  1  0.92039100  0.33655500  0.60138600  1
  O  O9  1  0.99307200  0.28133300  0.80733800  1
  O  O10  1  0.00692800  0.71866700  0.19266200  1
  O  O11  1  0.00692800  0.28133300  0.19266200  1
  O  O12  1  0.99307200  0.71866700  0.80733800  1
