# generated using pymatgen
data_Zn2H17C31N3O8
_symmetry_space_group_name_H-M   'P 1'
_cell_length_a   13.40848400
_cell_length_b   8.56108700
_cell_length_c   10.75258500
_cell_angle_alpha   90.00000000
_cell_angle_beta   97.85681100
_cell_angle_gamma   90.00000000
_symmetry_Int_Tables_number   1
_chemical_formula_structural   Zn2H17C31N3O8
_chemical_formula_sum   'Zn2 H17 C31 N3 O8'
_cell_volume   1222.71545655
_cell_formula_units_Z   1
loop_
 _symmetry_equiv_pos_site_id
 _symmetry_equiv_pos_as_xyz
  1  'x, y, z'
loop_
 _atom_site_type_symbol
 _atom_site_label
 _atom_site_symmetry_multiplicity
 _atom_site_fract_x
 _atom_site_fract_y
 _atom_site_fract_z
 _atom_site_occupancy
  Zn  Zn1  1  0.11052000  0.49908600  0.49489700  1
  Zn  Zn2  1  0.88848100  0.49907800  0.50064000  1
  H  H1  1  0.06840600  0.36791800  0.91259400  1
  H  H2  1  0.00147000  0.61262900  0.88323900  1
  H  H3  1  0.06498400  0.35145500  0.11677300  1
  H  H4  1  0.10531100  0.71531700  0.07092100  1
  H  H5  1  0.05615200  0.99757500  0.58978700  1
  H  H6  1  0.94254300  0.99758100  0.40560800  1
  H  H7  1  0.93338900  0.35137800  0.87844600  1
  H  H8  1  0.89301500  0.71552500  0.92430700  1
  H  H9  1  0.92995700  0.36787700  0.08263900  1
  H  H10  1  0.99676900  0.61260000  0.11193300  1
  H  H11  1  0.77426700  0.49895800  0.69990500  1
  H  H12  1  0.23584800  0.49898600  0.29749200  1
  H  H13  1  0.38164400  0.49910900  0.19282700  1
  H  H14  1  0.59749000  0.49909900  0.71058900  1
  H  H15  1  0.44347800  0.49932700  0.70779200  1
  H  H16  1  0.72371700  0.49912900  0.30592100  1
  H  H17  1  0.26462700  0.49924200  0.69110900  1
  C  C1  1  0.04428600  0.99835900  0.68704700  1
  C  C2  1  0.03048500  0.13836500  0.74509300  1
  C  C3  1  0.02917000  0.85943000  0.74590300  1
  C  C4  1  0.01460100  0.14104200  0.86905900  1
  C  C5  1  0.00689500  0.86192800  0.86798600  1
  C  C6  1  0.00244700  0.29581000  0.92758700  1
  C  C7  1  0.97618300  0.71753800  0.92954700  1
  C  C8  1  0.99594000  0.29582000  0.06765700  1
  C  C9  1  0.02214400  0.71748100  0.06567200  1
  C  C10  1  0.00698500  0.00221000  0.93202800  1
  C  C11  1  0.99143000  0.00220400  0.06326500  1
  C  C12  1  0.98384400  0.14105800  0.12623200  1
  C  C13  1  0.99152700  0.86189400  0.12729500  1
  C  C14  1  0.96804800  0.13842700  0.25023400  1
  C  C15  1  0.96935300  0.85936800  0.24942400  1
  C  C16  1  0.95433500  0.99836200  0.30832300  1
  C  C17  1  0.02052800  0.27999600  0.66832700  1
  C  C18  1  0.02009000  0.71810500  0.66846100  1
  C  C19  1  0.97801300  0.28017600  0.32695900  1
  C  C20  1  0.97844300  0.71792600  0.32682600  1
  C  C21  1  0.69428800  0.49911900  0.39462300  1
  C  C22  1  0.72239400  0.49903400  0.61360900  1
  C  C23  1  0.62025900  0.49911700  0.61862000  1
  C  C24  1  0.55267200  0.49917300  0.50846800  1
  C  C25  1  0.59147500  0.49915300  0.39572900  1
  C  C26  1  0.40246400  0.49922900  0.61471400  1
  C  C27  1  0.44829600  0.49918400  0.50669200  1
  C  C28  1  0.38709100  0.49912200  0.39229300  1
  C  C29  1  0.42930300  0.49913100  0.28244300  1
  C  C30  1  0.29914700  0.49917900  0.60600700  1
  C  C31  1  0.28340300  0.49905200  0.38718500  1
  N  N1  1  0.75796200  0.49906900  0.50273800  1
  N  N2  1  0.52985600  0.49915100  0.28592700  1
  N  N3  1  0.24115600  0.49908400  0.49365500  1
  O  O1  1  0.92929700  0.33041600  0.62813200  1
  O  O2  1  0.92916900  0.66731500  0.62842000  1
  O  O3  1  0.10116000  0.33543000  0.62751800  1
  O  O4  1  0.10097100  0.66316300  0.62728200  1
  O  O5  1  0.06942200  0.33061800  0.36701100  1
  O  O6  1  0.06954200  0.66711100  0.36671300  1
  O  O7  1  0.89718800  0.33569900  0.36761400  1
  O  O8  1  0.89737200  0.66289100  0.36785600  1
