# generated using pymatgen
data_Cu3H34(C7O2)8
_symmetry_space_group_name_H-M   'P 1'
_cell_length_a   43.70483000
_cell_length_b   38.60634000
_cell_length_c   21.55744200
_cell_angle_alpha   90.00000000
_cell_angle_beta   61.62775900
_cell_angle_gamma   90.00000000
_symmetry_Int_Tables_number   1
_chemical_formula_structural   Cu3H34(C7O2)8
_chemical_formula_sum   'Cu12 H136 C224 O64'
_cell_volume   32004.29002250
_cell_formula_units_Z   4
loop_
 _symmetry_equiv_pos_site_id
 _symmetry_equiv_pos_as_xyz
  1  'x, y, z'
loop_
 _atom_site_type_symbol
 _atom_site_label
 _atom_site_symmetry_multiplicity
 _atom_site_fract_x
 _atom_site_fract_y
 _atom_site_fract_z
 _atom_site_occupancy
  Cu  Cu1  1  0.00000000  0.53731300  0.50000000  1
  Cu  Cu2  1  0.50000000  0.03731300  0.50000000  1
  Cu  Cu3  1  0.00000000  0.46977600  0.50000000  1
  Cu  Cu4  1  0.50000000  0.96977600  0.50000000  1
  Cu  Cu5  1  0.96545000  0.50132100  0.02921300  1
  Cu  Cu6  1  0.03455000  0.50132100  0.97078600  1
  Cu  Cu7  1  0.46545000  0.00132100  0.02921300  1
  Cu  Cu8  1  0.53455000  0.00132100  0.97078600  1
  Cu  Cu9  1  0.49999600  0.50153100  0.06049300  1
  Cu  Cu10  1  0.50000400  0.50153100  0.93950700  1
  Cu  Cu11  1  0.99999600  0.00153100  0.06049300  1
  Cu  Cu12  1  0.00000400  0.00153100  0.93950700  1
  H  H1  1  0.96240800  0.53347500  0.72969700  1
  H  H2  1  0.03759200  0.53347500  0.27030200  1
  H  H3  1  0.46240800  0.03347500  0.72969700  1
  H  H4  1  0.53759200  0.03347500  0.27030200  1
  H  H5  1  0.06895300  0.47818800  0.57077800  1
  H  H6  1  0.93104700  0.47818800  0.42922200  1
  H  H7  1  0.56895300  0.97818800  0.57077800  1
  H  H8  1  0.43104700  0.97818800  0.42922200  1
  H  H9  1  0.11057900  0.44315000  0.58537000  1
  H  H10  1  0.88942100  0.44315000  0.41463000  1
  H  H11  1  0.61057900  0.94315000  0.58537000  1
  H  H12  1  0.38942100  0.94315000  0.41463000  1
  H  H13  1  0.10286100  0.43056900  0.70347600  1
  H  H14  1  0.89713900  0.43056900  0.29652300  1
  H  H15  1  0.60286100  0.93056900  0.70347600  1
  H  H16  1  0.39713900  0.93056900  0.29652300  1
  H  H17  1  0.05466600  0.45454200  0.80621400  1
  H  H18  1  0.94533400  0.45454200  0.19378600  1
  H  H19  1  0.55466600  0.95454200  0.80621400  1
  H  H20  1  0.44533400  0.95454200  0.19378600  1
  H  H21  1  0.96145400  0.53143000  0.84262400  1
  H  H22  1  0.03854600  0.53143000  0.15737600  1
  H  H23  1  0.46145400  0.03143000  0.84262400  1
  H  H24  1  0.53854600  0.03143000  0.15737600  1
  H  H25  1  0.39066400  0.46580500  0.03151200  1
  H  H26  1  0.60933600  0.46580500  0.96848800  1
  H  H27  1  0.89066400  0.96580500  0.03151200  1
  H  H28  1  0.10933600  0.96580500  0.96848800  1
  H  H29  1  0.32753500  0.46700800  0.09342300  1
  H  H30  1  0.67246500  0.46700800  0.90657600  1
  H  H31  1  0.82753500  0.96700800  0.09342300  1
  H  H32  1  0.17246500  0.96700800  0.90657600  1
  H  H33  1  0.39329200  0.54131800  0.17286600  1
  H  H34  1  0.60670800  0.54131800  0.82713400  1
  H  H35  1  0.89329200  0.04131800  0.17286600  1
  H  H36  1  0.10670800  0.04131800  0.82713400  1
  H  H37  1  0.28225400  0.49733400  0.30774500  1
  H  H38  1  0.71774600  0.49733400  0.69225500  1
  H  H39  1  0.78225400  0.99733400  0.30774500  1
  H  H40  1  0.21774600  0.99733400  0.69225500  1
  H  H41  1  0.21889600  0.49687000  0.37063000  1
  H  H42  1  0.78110400  0.49687000  0.62936900  1
  H  H43  1  0.71889600  0.99687000  0.37063000  1
  H  H44  1  0.28110400  0.99687000  0.62936900  1
  H  H45  1  0.21694500  0.50552600  0.17523300  1
  H  H46  1  0.78305500  0.50552600  0.82476700  1
  H  H47  1  0.71694500  0.00552600  0.17523300  1
  H  H48  1  0.28305500  0.00552600  0.82476700  1
  H  H49  1  0.28031900  0.50810400  0.11247000  1
  H  H50  1  0.71968100  0.50810400  0.88753000  1
  H  H51  1  0.78031900  0.00810400  0.11247000  1
  H  H52  1  0.21968100  0.00810400  0.88753000  1
  H  H53  1  0.16974200  0.46225700  0.25246100  1
  H  H54  1  0.83025900  0.46225700  0.74753900  1
  H  H55  1  0.66974200  0.96225700  0.25246100  1
  H  H56  1  0.33025900  0.96225700  0.74753900  1
  H  H57  1  0.10630500  0.46276000  0.31738300  1
  H  H58  1  0.89369500  0.46276000  0.68261700  1
  H  H59  1  0.60630500  0.96276000  0.31738300  1
  H  H60  1  0.39369500  0.96276000  0.68261700  1
  H  H61  1  0.10976900  0.54307200  0.45038900  1
  H  H62  1  0.89023200  0.54307200  0.54961100  1
  H  H63  1  0.60976900  0.04307200  0.45038900  1
  H  H64  1  0.39023200  0.04307200  0.54961100  1
  H  H65  1  0.17302500  0.54179100  0.38666100  1
  H  H66  1  0.82697500  0.54179100  0.61333900  1
  H  H67  1  0.67302500  0.04179100  0.38666100  1
  H  H68  1  0.32697500  0.04179100  0.61333900  1
  H  H69  1  0.50454400  0.60962500  0.09446600  1
  H  H70  1  0.49545600  0.60962500  0.90553400  1
  H  H71  1  0.00454400  0.10962500  0.09446600  1
  H  H72  1  0.99545600  0.10962500  0.90553400  1
  H  H73  1  0.50352300  0.67220600  0.09570900  1
  H  H74  1  0.49647700  0.67220600  0.90429100  1
  H  H75  1  0.00352300  0.17220600  0.09570900  1
  H  H76  1  0.99647700  0.17220600  0.90429100  1
  H  H77  1  0.46303000  0.71937700  0.96225200  1
  H  H78  1  0.53697000  0.71937700  0.03774800  1
  H  H79  1  0.96303000  0.21937700  0.96225200  1
  H  H80  1  0.03697000  0.21937700  0.03774800  1
  H  H81  1  0.05322100  0.32922300  0.92121400  1
  H  H82  1  0.94677900  0.32922300  0.07878600  1
  H  H83  1  0.55322100  0.82922300  0.92121400  1
  H  H84  1  0.44677900  0.82922300  0.07878600  1
  H  H85  1  0.05359100  0.39238300  0.92157800  1
  H  H86  1  0.94640900  0.39238300  0.07842200  1
  H  H87  1  0.55359100  0.89238300  0.92157800  1
  H  H88  1  0.44640900  0.89238300  0.07842200  1
  H  H89  1  0.51607800  0.39326200  0.88946700  1
  H  H90  1  0.48392200  0.39326200  0.11053300  1
  H  H91  1  0.01607800  0.89326200  0.88946700  1
  H  H92  1  0.98392200  0.89326200  0.11053300  1
  H  H93  1  0.51552600  0.33064200  0.88978400  1
  H  H94  1  0.48447400  0.33064200  0.11021600  1
  H  H95  1  0.01552600  0.83064200  0.88978400  1
  H  H96  1  0.98447400  0.83064200  0.11021600  1
  H  H97  1  0.45365000  0.28322400  0.09946200  1
  H  H98  1  0.54635100  0.28322400  0.90053800  1
  H  H99  1  0.95365000  0.78322400  0.09946200  1
  H  H100  1  0.04635100  0.78322400  0.90053800  1
  H  H101  1  0.95426100  0.72058800  0.10048400  1
  H  H102  1  0.04573900  0.72058800  0.89951600  1
  H  H103  1  0.45426100  0.22058800  0.10048400  1
  H  H104  1  0.54573900  0.22058800  0.89951600  1
  H  H105  1  0.05534900  0.67317100  0.95633500  1
  H  H106  1  0.94465100  0.67317100  0.04366500  1
  H  H107  1  0.55534900  0.17317100  0.95633500  1
  H  H108  1  0.44465100  0.17317100  0.04366500  1
  H  H109  1  0.05544000  0.61054500  0.95526300  1
  H  H110  1  0.94456000  0.61054500  0.04473600  1
  H  H111  1  0.55544000  0.11054500  0.95526300  1
  H  H112  1  0.44456000  0.11054500  0.04473600  1
  H  H113  1  0.96414000  0.35807100  0.86118500  1
  H  H114  1  0.92458900  0.33909100  0.92906300  1
  H  H115  1  0.94966400  0.31666700  0.84580400  1
  H  H116  1  0.03586000  0.35807100  0.13881500  1
  H  H117  1  0.07541100  0.33909100  0.07093700  1
  H  H118  1  0.05033600  0.31666700  0.15419600  1
  H  H119  1  0.46414000  0.85807100  0.86118500  1
  H  H120  1  0.42458900  0.83909100  0.92906300  1
  H  H121  1  0.44966400  0.81666700  0.84580400  1
  H  H122  1  0.53586000  0.85807100  0.13881500  1
  H  H123  1  0.57541100  0.83909100  0.07093700  1
  H  H124  1  0.55033600  0.81666700  0.15419600  1
  H  H125  1  0.25682500  0.60353400  0.30214500  1
  H  H126  1  0.29867400  0.61710600  0.29118000  1
  H  H127  1  0.27378300  0.58415300  0.35580400  1
  H  H128  1  0.74317500  0.60353400  0.69785500  1
  H  H129  1  0.70132600  0.61710600  0.70882000  1
  H  H130  1  0.72621700  0.58415300  0.64419600  1
  H  H131  1  0.75682500  0.10353400  0.30214500  1
  H  H132  1  0.79867400  0.11710600  0.29118000  1
  H  H133  1  0.77378300  0.08415300  0.35580400  1
  H  H134  1  0.24317500  0.10353400  0.69785500  1
  H  H135  1  0.20132600  0.11710600  0.70882000  1
  H  H136  1  0.22621700  0.08415300  0.64419600  1
  C  C1  1  0.06563400  0.50346100  0.42765800  1
  C  C2  1  0.93436600  0.50346100  0.57234200  1
  C  C3  1  0.56563400  0.00346100  0.42765800  1
  C  C4  1  0.43436600  0.00346100  0.57234200  1
  C  C5  1  0.00643200  0.50389500  0.61072500  1
  C  C6  1  0.99356800  0.50389500  0.38927500  1
  C  C7  1  0.50643200  0.00389500  0.61072500  1
  C  C8  1  0.49356800  0.00389500  0.38927500  1
  C  C9  1  0.06415000  0.47307900  0.62380900  1
  C  C10  1  0.93585000  0.47307900  0.37619100  1
  C  C11  1  0.56415000  0.97307900  0.62380900  1
  C  C12  1  0.43585000  0.97307900  0.37619100  1
  C  C13  1  0.08849400  0.45360700  0.63136700  1
  C  C14  1  0.91150600  0.45360700  0.36863300  1
  C  C15  1  0.58849400  0.95360700  0.63136700  1
  C  C16  1  0.41150600  0.95360700  0.36863300  1
  C  C17  1  0.08434700  0.44683800  0.69734600  1
  C  C18  1  0.91565300  0.44683800  0.30265400  1
  C  C19  1  0.58434700  0.94683800  0.69734600  1
  C  C20  1  0.41565300  0.94683800  0.30265400  1
  C  C21  1  0.05703900  0.46129900  0.75563900  1
  C  C22  1  0.94296100  0.46129900  0.24436100  1
  C  C23  1  0.55703900  0.96129900  0.75563900  1
  C  C24  1  0.44296100  0.96129900  0.24436100  1
  C  C25  1  0.03327400  0.48272600  0.74860900  1
  C  C26  1  0.96672600  0.48272600  0.25139100  1
  C  C27  1  0.53327400  0.98272600  0.74860900  1
  C  C28  1  0.46672600  0.98272600  0.25139100  1
  C  C29  1  0.03535400  0.48634300  0.68251900  1
  C  C30  1  0.96464600  0.48634300  0.31748100  1
  C  C31  1  0.53535400  0.98634300  0.68251900  1
  C  C32  1  0.46464600  0.98634300  0.31748100  1
  C  C33  1  0.00907900  0.50381700  0.67603100  1
  C  C34  1  0.99092100  0.50381700  0.32396900  1
  C  C35  1  0.50907900  0.00381700  0.67603100  1
  C  C36  1  0.49092100  0.00381700  0.32396900  1
  C  C37  1  0.98294400  0.51989500  0.73398900  1
  C  C38  1  0.01705600  0.51989500  0.26601100  1
  C  C39  1  0.48294400  0.01989500  0.73398900  1
  C  C40  1  0.51705600  0.01989500  0.26601100  1
  C  C41  1  0.98200600  0.51807700  0.79840300  1
  C  C42  1  0.01799400  0.51807700  0.20159700  1
  C  C43  1  0.48200600  0.01807700  0.79840300  1
  C  C44  1  0.51799400  0.01807700  0.20159700  1
  C  C45  1  0.00688100  0.49967700  0.80658700  1
  C  C46  1  0.99311900  0.49967700  0.19341300  1
  C  C47  1  0.50688100  0.99967700  0.80658700  1
  C  C48  1  0.49311900  0.99967700  0.19341300  1
  C  C49  1  0.37746100  0.48306300  0.07590100  1
  C  C50  1  0.62253900  0.48306300  0.92409900  1
  C  C51  1  0.87746100  0.98306300  0.07590100  1
  C  C52  1  0.12253900  0.98306300  0.92409900  1
  C  C53  1  0.34165400  0.48401800  0.11065300  1
  C  C54  1  0.65834600  0.48401800  0.88934700  1
  C  C55  1  0.84165400  0.98401800  0.11065300  1
  C  C56  1  0.15834600  0.98401800  0.88934700  1
  C  C57  1  0.32390900  0.50561400  0.16796400  1
  C  C58  1  0.67609200  0.50561400  0.83203600  1
  C  C59  1  0.82390900  0.00561400  0.16796400  1
  C  C60  1  0.17609200  0.00561400  0.83203600  1
  C  C61  1  0.34272800  0.52707800  0.18957200  1
  C  C62  1  0.65727200  0.52707800  0.81042800  1
  C  C63  1  0.84272800  0.02707800  0.18957200  1
  C  C64  1  0.15727200  0.02707800  0.81042800  1
  C  C65  1  0.37860200  0.52460400  0.15655200  1
  C  C66  1  0.62139800  0.52460400  0.84344800  1
  C  C67  1  0.87860200  0.02460400  0.15655200  1
  C  C68  1  0.12139800  0.02460400  0.84344800  1
  C  C69  1  0.39605000  0.50289200  0.09953800  1
  C  C70  1  0.60395000  0.50289200  0.90046200  1
  C  C71  1  0.89605000  0.00289200  0.09953800  1
  C  C72  1  0.10395000  0.00289200  0.90046200  1
  C  C73  1  0.26808800  0.49978000  0.27831900  1
  C  C74  1  0.73191200  0.49978000  0.72168100  1
  C  C75  1  0.76808800  0.99978000  0.27831900  1
  C  C76  1  0.23191200  0.99978000  0.72168100  1
  C  C77  1  0.23227100  0.49940900  0.31388600  1
  C  C78  1  0.76772900  0.49940900  0.68611400  1
  C  C79  1  0.73227100  0.99940900  0.31388600  1
  C  C80  1  0.26772900  0.99940900  0.68611400  1
  C  C81  1  0.21367100  0.50148500  0.27720400  1
  C  C82  1  0.78632900  0.50148500  0.72279500  1
  C  C83  1  0.71367100  0.00148500  0.27720400  1
  C  C84  1  0.28632900  0.00148500  0.72279500  1
  C  C85  1  0.23120200  0.50366500  0.20457700  1
  C  C86  1  0.76879800  0.50366500  0.79542300  1
  C  C87  1  0.73120200  0.00366500  0.20457700  1
  C  C88  1  0.26879800  0.00366500  0.79542300  1
  C  C89  1  0.26704100  0.50514000  0.16912700  1
  C  C90  1  0.73295900  0.50514000  0.83087300  1
  C  C91  1  0.76704100  0.00514000  0.16912700  1
  C  C92  1  0.23295900  0.00514000  0.83087300  1
  C  C93  1  0.28569800  0.50388800  0.20590100  1
  C  C94  1  0.71430200  0.50388800  0.79409900  1
  C  C95  1  0.78569800  0.00388800  0.20590100  1
  C  C96  1  0.21430200  0.00388800  0.79409900  1
  C  C97  1  0.15663200  0.48013100  0.29578700  1
  C  C98  1  0.84336800  0.48013100  0.70421200  1
  C  C99  1  0.65663200  0.98013100  0.29578700  1
  C  C100  1  0.34336800  0.98013100  0.70421200  1
  C  C101  1  0.12077400  0.48024800  0.33287200  1
  C  C102  1  0.87922600  0.48024800  0.66712700  1
  C  C103  1  0.62077400  0.98024800  0.33287200  1
  C  C104  1  0.37922600  0.98024800  0.66712700  1
  C  C105  1  0.10365600  0.50305800  0.38817300  1
  C  C106  1  0.89634400  0.50305800  0.61182700  1
  C  C107  1  0.60365600  0.00305800  0.38817300  1
  C  C108  1  0.39634400  0.00305800  0.61182700  1
  C  C109  1  0.12267400  0.52529000  0.40683300  1
  C  C110  1  0.87732600  0.52529000  0.59316700  1
  C  C111  1  0.62267400  0.02529000  0.40683300  1
  C  C112  1  0.37732600  0.02529000  0.59316700  1
  C  C113  1  0.15848500  0.52432700  0.37129200  1
  C  C114  1  0.84151500  0.52432700  0.62870800  1
  C  C115  1  0.65848500  0.02432700  0.37129200  1
  C  C116  1  0.34151500  0.02432700  0.62870800  1
  C  C117  1  0.17561500  0.50192900  0.31534700  1
  C  C118  1  0.82438500  0.50192900  0.68465300  1
  C  C119  1  0.67561500  0.00192900  0.31534700  1
  C  C120  1  0.32438500  0.00192900  0.68465300  1
  C  C121  1  0.00000000  0.43478200  0.00000000  1
  C  C122  1  0.50000000  0.93478200  0.00000000  1
  C  C123  1  0.00470100  0.49981900  0.87667200  1
  C  C124  1  0.99529900  0.49981900  0.12332800  1
  C  C125  1  0.50470100  0.99981900  0.87667200  1
  C  C126  1  0.49529900  0.99981900  0.12332800  1
  C  C127  1  0.00000000  0.56792500  0.00000000  1
  C  C128  1  0.50000000  0.06792500  0.00000000  1
  C  C129  1  0.50000000  0.43589100  0.00000000  1
  C  C130  1  0.00000000  0.93589100  0.00000000  1
  C  C131  1  0.43411300  0.50182400  0.06329600  1
  C  C132  1  0.56588700  0.50182400  0.93670400  1
  C  C133  1  0.93411300  0.00182400  0.06329600  1
  C  C134  1  0.06588700  0.00182400  0.93670400  1
  C  C135  1  0.50000000  0.56714700  0.00000000  1
  C  C136  1  0.00000000  0.06714700  0.00000000  1
  C  C137  1  0.50278000  0.62314200  0.05239300  1
  C  C138  1  0.49722000  0.62314200  0.94760700  1
  C  C139  1  0.00278000  0.12314200  0.05239300  1
  C  C140  1  0.99722000  0.12314200  0.94760700  1
  C  C141  1  0.50249500  0.65884300  0.05271800  1
  C  C142  1  0.49750500  0.65884300  0.94728200  1
  C  C143  1  0.00249500  0.15884300  0.05271800  1
  C  C144  1  0.99750500  0.15884300  0.94728200  1
  C  C145  1  0.50000000  0.67704400  0.00000000  1
  C  C146  1  0.00000000  0.17704400  0.00000000  1
  C  C147  1  0.50000000  0.60509100  0.00000000  1
  C  C148  1  0.00000000  0.10509100  0.00000000  1
  C  C149  1  0.47943200  0.73328900  0.97855000  1
  C  C150  1  0.52056800  0.73328900  0.02145000  1
  C  C151  1  0.97943200  0.23328900  0.97855000  1
  C  C152  1  0.02056800  0.23328900  0.02145000  1
  C  C153  1  0.97993800  0.26905600  0.97648500  1
  C  C154  1  0.02006200  0.26905600  0.02351500  1
  C  C155  1  0.47993800  0.76905600  0.97648500  1
  C  C156  1  0.52006200  0.76905600  0.02351500  1
  C  C157  1  0.00000000  0.28724500  0.00000000  1
  C  C158  1  0.50000000  0.78724500  0.00000000  1
  C  C159  1  0.50000000  0.71519700  0.00000000  1
  C  C160  1  0.00000000  0.21519700  0.00000000  1
  C  C161  1  0.02982900  0.34315600  0.95599500  1
  C  C162  1  0.97017100  0.34315600  0.04400500  1
  C  C163  1  0.52982900  0.84315600  0.95599500  1
  C  C164  1  0.47017100  0.84315600  0.04400500  1
  C  C165  1  0.02995400  0.37884500  0.95645500  1
  C  C166  1  0.97004600  0.37884500  0.04354400  1
  C  C167  1  0.52995400  0.87884500  0.95645500  1
  C  C168  1  0.47004600  0.87884500  0.04354400  1
  C  C169  1  0.00000000  0.39686000  0.00000000  1
  C  C170  1  0.50000000  0.89686000  0.00000000  1
  C  C171  1  0.00000000  0.32520400  0.00000000  1
  C  C172  1  0.50000000  0.82520400  0.00000000  1
  C  C173  1  0.50907300  0.37982500  0.93835900  1
  C  C174  1  0.49092700  0.37982500  0.06164100  1
  C  C175  1  0.00907300  0.87982500  0.93835900  1
  C  C176  1  0.99092700  0.87982500  0.06164100  1
  C  C177  1  0.50906900  0.34412100  0.93838500  1
  C  C178  1  0.49093100  0.34412100  0.06161500  1
  C  C179  1  0.00906900  0.84412100  0.93838500  1
  C  C180  1  0.99093100  0.84412100  0.06161500  1
  C  C181  1  0.50000000  0.32598200  0.00000000  1
  C  C182  1  0.00000000  0.82598200  0.00000000  1
  C  C183  1  0.50000000  0.39790800  0.00000000  1
  C  C184  1  0.00000000  0.89790800  0.00000000  1
  C  C185  1  0.47435500  0.26975600  0.05573900  1
  C  C186  1  0.52564500  0.26975600  0.94426100  1
  C  C187  1  0.97435500  0.76975600  0.05573900  1
  C  C188  1  0.02564500  0.76975600  0.94426100  1
  C  C189  1  0.97432500  0.73405600  0.05568800  1
  C  C190  1  0.02567500  0.73405600  0.94431200  1
  C  C191  1  0.47432500  0.23405600  0.05568800  1
  C  C192  1  0.52567500  0.23405600  0.94431200  1
  C  C193  1  0.00000000  0.71591200  0.00000000  1
  C  C194  1  0.50000000  0.21591200  0.00000000  1
  C  C195  1  0.50000000  0.28790100  0.00000000  1
  C  C196  1  0.00000000  0.78790100  0.00000000  1
  C  C197  1  0.03089200  0.65969200  0.97485300  1
  C  C198  1  0.96910800  0.65969200  0.02514700  1
  C  C199  1  0.53089200  0.15969200  0.97485300  1
  C  C200  1  0.46910800  0.15969200  0.02514700  1
  C  C201  1  0.03090500  0.62398700  0.97484000  1
  C  C202  1  0.96909500  0.62398700  0.02516000  1
  C  C203  1  0.53090500  0.12398700  0.97484000  1
  C  C204  1  0.46909500  0.12398700  0.02516000  1
  C  C205  1  0.00000000  0.60590700  0.00000000  1
  C  C206  1  0.50000000  0.10590700  0.00000000  1
  C  C207  1  0.00000000  0.67783000  0.00000000  1
  C  C208  1  0.50000000  0.17783000  0.00000000  1
  C  C209  1  0.95951500  0.28654600  0.94741500  1
  C  C210  1  0.95113900  0.33339000  0.88614600  1
  C  C211  1  0.04048500  0.28654600  0.05258500  1
  C  C212  1  0.04886100  0.33339000  0.11385400  1
  C  C213  1  0.45951500  0.78654600  0.94741500  1
  C  C214  1  0.45113900  0.83339000  0.88614600  1
  C  C215  1  0.54048500  0.78654600  0.05258500  1
  C  C216  1  0.54886100  0.83339000  0.11385400  1
  C  C217  1  0.32610500  0.55415800  0.24352900  1
  C  C218  1  0.28080900  0.59475600  0.30287900  1
  C  C219  1  0.67389500  0.55415800  0.75647000  1
  C  C220  1  0.71919100  0.59475600  0.69712000  1
  C  C221  1  0.82610500  0.05415800  0.24352900  1
  C  C222  1  0.78080900  0.09475600  0.30287900  1
  C  C223  1  0.17389500  0.05415800  0.75647000  1
  C  C224  1  0.21919100  0.09475600  0.69712000  1
  O  O1  1  0.05017200  0.53200600  0.46213900  1
  O  O2  1  0.94982800  0.53200600  0.53786100  1
  O  O3  1  0.55017200  0.03200600  0.46213900  1
  O  O4  1  0.44982800  0.03200600  0.53786100  1
  O  O5  1  0.04854200  0.47507900  0.42836400  1
  O  O6  1  0.95145800  0.47507900  0.57163600  1
  O  O7  1  0.54854200  0.97507900  0.42836400  1
  O  O8  1  0.45145800  0.97507900  0.57163600  1
  O  O9  1  0.99421100  0.53202100  0.59510500  1
  O  O10  1  0.00578900  0.53202100  0.40489500  1
  O  O11  1  0.49421100  0.03202100  0.59510500  1
  O  O12  1  0.50578900  0.03202100  0.40489500  1
  O  O13  1  0.01391300  0.47508300  0.57318100  1
  O  O14  1  0.98608700  0.47508300  0.42681900  1
  O  O15  1  0.51391300  0.97508300  0.57318100  1
  O  O16  1  0.48608700  0.97508300  0.42681900  1
  O  O17  1  0.97002400  0.45100000  0.02918200  1
  O  O18  1  0.02997600  0.45100000  0.97081800  1
  O  O19  1  0.47002400  0.95100000  0.02918200  1
  O  O20  1  0.52997600  0.95100000  0.97081800  1
  O  O21  1  0.97376400  0.50176200  0.93184000  1
  O  O22  1  0.02623600  0.50176200  0.06816000  1
  O  O23  1  0.47376400  0.00176200  0.93184000  1
  O  O24  1  0.52623600  0.00176200  0.06816000  1
  O  O25  1  0.03335700  0.50322700  0.88146300  1
  O  O26  1  0.96664300  0.50322700  0.11853600  1
  O  O27  1  0.53335700  0.00322700  0.88146300  1
  O  O28  1  0.46664300  0.00322700  0.11853600  1
  O  O29  1  0.97004000  0.55169000  0.02661900  1
  O  O30  1  0.02996000  0.55169000  0.97338100  1
  O  O31  1  0.47004000  0.05169000  0.02661900  1
  O  O32  1  0.52996000  0.05169000  0.97338100  1
  O  O33  1  0.49013000  0.45218100  0.06049100  1
  O  O34  1  0.50987000  0.45218100  0.93950800  1
  O  O35  1  0.99013000  0.95218100  0.06049100  1
  O  O36  1  0.00987000  0.95218100  0.93950800  1
  O  O37  1  0.45046100  0.51139900  0.09867200  1
  O  O38  1  0.54953900  0.51139900  0.90132800  1
  O  O39  1  0.95046100  0.01139900  0.09867200  1
  O  O40  1  0.04953900  0.01139900  0.90132800  1
  O  O41  1  0.45040900  0.49174100  0.99671000  1
  O  O42  1  0.54959100  0.49174100  0.00329000  1
  O  O43  1  0.95040900  0.99174100  0.99671000  1
  O  O44  1  0.04959100  0.99174100  0.00329000  1
  O  O45  1  0.50985500  0.55088400  0.04154600  1
  O  O46  1  0.49014500  0.55088400  0.95845400  1
  O  O47  1  0.00985500  0.05088400  0.04154600  1
  O  O48  1  0.99014500  0.05088400  0.95845400  1
  O  O49  1  0.93392000  0.27225700  0.95061100  1
  O  O50  1  0.96998200  0.31709000  0.91339100  1
  O  O51  1  0.06608000  0.27225700  0.04938900  1
  O  O52  1  0.03001800  0.31709000  0.08660900  1
  O  O53  1  0.43392000  0.77225700  0.95061100  1
  O  O54  1  0.46998200  0.81709000  0.91339100  1
  O  O55  1  0.56608000  0.77225700  0.04938900  1
  O  O56  1  0.53001800  0.81709000  0.08660900  1
  O  O57  1  0.34032800  0.56424500  0.27705000  1
  O  O58  1  0.29649300  0.56951100  0.25289100  1
  O  O59  1  0.65967200  0.56424500  0.72295000  1
  O  O60  1  0.70350700  0.56951100  0.74710900  1
  O  O61  1  0.84032800  0.06424500  0.27705000  1
  O  O62  1  0.79649300  0.06951100  0.25289100  1
  O  O63  1  0.15967200  0.06424500  0.72295000  1
  O  O64  1  0.20350700  0.06951100  0.74710900  1
