# generated using pymatgen
data_Zn3H34C49O15
_symmetry_space_group_name_H-M   'P 1'
_cell_length_a   36.91078600
_cell_length_b   30.12186500
_cell_length_c   21.50952400
_cell_angle_alpha   90.00000000
_cell_angle_beta   54.63254200
_cell_angle_gamma   90.00000000
_symmetry_Int_Tables_number   1
_chemical_formula_structural   Zn3H34C49O15
_chemical_formula_sum   'Zn12 H136 C196 O60'
_cell_volume   19501.44727948
_cell_formula_units_Z   4
loop_
 _symmetry_equiv_pos_site_id
 _symmetry_equiv_pos_as_xyz
  1  'x, y, z'
loop_
 _atom_site_type_symbol
 _atom_site_label
 _atom_site_symmetry_multiplicity
 _atom_site_fract_x
 _atom_site_fract_y
 _atom_site_fract_z
 _atom_site_occupancy
  Zn  Zn1  1  0.00017300  0.54934500  0.49985600  1
  Zn  Zn2  1  0.50017300  0.04934500  0.49985600  1
  Zn  Zn3  1  0.99985500  0.44875100  0.50005100  1
  Zn  Zn4  1  0.49985500  0.94875100  0.50005100  1
  Zn  Zn5  1  0.94968200  0.49790300  0.04901000  1
  Zn  Zn6  1  0.05023600  0.49790900  0.95097000  1
  Zn  Zn7  1  0.44968200  0.99790300  0.04901000  1
  Zn  Zn8  1  0.55023600  0.99790900  0.95097000  1
  Zn  Zn9  1  0.49989500  0.49850500  0.92971400  1
  Zn  Zn10  1  0.50012900  0.49826200  0.07036700  1
  Zn  Zn11  1  0.99989500  0.99850500  0.92971400  1
  Zn  Zn12  1  0.00012900  0.99826200  0.07036700  1
  H  H1  1  0.03415900  0.56104400  0.26341400  1
  H  H2  1  0.96566800  0.55935000  0.73679800  1
  H  H3  1  0.53415900  0.06104400  0.26341400  1
  H  H4  1  0.46566800  0.05935000  0.73679800  1
  H  H5  1  0.97440000  0.56753600  0.32933400  1
  H  H6  1  0.02534100  0.56609600  0.66972300  1
  H  H7  1  0.47440000  0.06753600  0.32933400  1
  H  H8  1  0.52534100  0.06609600  0.66972300  1
  H  H9  1  0.96309400  0.55907400  0.23672900  1
  H  H10  1  0.03798600  0.55730000  0.76082700  1
  H  H11  1  0.46309400  0.05907400  0.23672900  1
  H  H12  1  0.53798600  0.05730000  0.76082700  1
  H  H13  1  0.06948400  0.48705000  0.23805800  1
  H  H14  1  0.93055200  0.48530400  0.76140400  1
  H  H15  1  0.56948400  0.98705000  0.23805800  1
  H  H16  1  0.43055200  0.98530400  0.76140400  1
  H  H17  1  0.07106400  0.49782500  0.13330600  1
  H  H18  1  0.92896200  0.49812800  0.86591200  1
  H  H19  1  0.57106400  0.99782500  0.13330600  1
  H  H20  1  0.42896200  0.99812800  0.86591200  1
  H  H21  1  0.95298000  0.44433200  0.35268300  1
  H  H22  1  0.04731100  0.44291900  0.64710400  1
  H  H23  1  0.45298000  0.94433200  0.35268300  1
  H  H24  1  0.54731100  0.94291900  0.64710400  1
  H  H25  1  0.92770000  0.49841600  0.36991900  1
  H  H26  1  0.07226300  0.49710500  0.63085700  1
  H  H27  1  0.42770000  0.99841600  0.36991900  1
  H  H28  1  0.57226300  0.99710500  0.63085800  1
  H  H29  1  0.92796600  0.48677900  0.26699600  1
  H  H30  1  0.07173200  0.48414900  0.73393500  1
  H  H31  1  0.42796600  0.98677900  0.26699600  1
  H  H32  1  0.57173200  0.98414900  0.73393600  1
  H  H33  1  0.96249700  0.43794900  0.23971600  1
  H  H34  1  0.03613600  0.43618200  0.76143500  1
  H  H35  1  0.46249700  0.93794900  0.23971600  1
  H  H36  1  0.53613600  0.93618200  0.76143500  1
  H  H37  1  0.03509900  0.43824400  0.26385200  1
  H  H38  1  0.96505800  0.43672400  0.73696700  1
  H  H39  1  0.53509900  0.93824400  0.26385200  1
  H  H40  1  0.46505800  0.93672400  0.73696700  1
  H  H41  1  0.04540400  0.44395500  0.15060600  1
  H  H42  1  0.95343500  0.44379600  0.85121100  1
  H  H43  1  0.54540400  0.94395500  0.15060600  1
  H  H44  1  0.45343500  0.94379600  0.85121100  1
  H  H45  1  0.64023600  0.45301100  0.93632400  1
  H  H46  1  0.36012400  0.44991200  0.06651300  1
  H  H47  1  0.14023600  0.95301100  0.93632400  1
  H  H48  1  0.86012400  0.94991200  0.06651300  1
  H  H49  1  0.63994000  0.54481400  0.78661700  1
  H  H50  1  0.35983500  0.54660800  0.21064300  1
  H  H51  1  0.13994000  0.04481300  0.78661700  1
  H  H52  1  0.85983500  0.04660800  0.21064300  1
  H  H53  1  0.70846500  0.57392700  0.67954700  1
  H  H54  1  0.29111900  0.57653100  0.31600800  1
  H  H55  1  0.20846500  0.07392700  0.67954700  1
  H  H56  1  0.79111900  0.07653100  0.31600800  1
  H  H57  1  0.78965300  0.57656300  0.60093700  1
  H  H58  1  0.20991600  0.57856700  0.39450100  1
  H  H59  1  0.28965300  0.07656300  0.60093700  1
  H  H60  1  0.70991600  0.07856700  0.39450100  1
  H  H61  1  0.85899300  0.55098500  0.57360600  1
  H  H62  1  0.14075100  0.55123700  0.42332900  1
  H  H63  1  0.35899300  0.05098500  0.57360600  1
  H  H64  1  0.64075100  0.05123700  0.42332900  1
  H  H65  1  0.86037100  0.44913100  0.70951600  1
  H  H66  1  0.14000200  0.44488000  0.29366300  1
  H  H67  1  0.36037100  0.94913100  0.70951600  1
  H  H68  1  0.64000200  0.94488000  0.29366300  1
  H  H69  1  0.79201300  0.42274800  0.82035500  1
  H  H70  1  0.20854400  0.41750600  0.18441500  1
  H  H71  1  0.29201300  0.92274800  0.82035500  1
  H  H72  1  0.70854400  0.91750600  0.18441500  1
  H  H73  1  0.53373200  0.35760900  0.87782200  1
  H  H74  1  0.46687700  0.35769900  0.11900100  1
  H  H75  1  0.03373200  0.85760900  0.87782200  1
  H  H76  1  0.96687700  0.85769900  0.11900100  1
  H  H77  1  0.44617300  0.28913600  0.18689600  1
  H  H78  1  0.55461900  0.28900300  0.81002500  1
  H  H79  1  0.94617300  0.78913600  0.18689500  1
  H  H80  1  0.05461900  0.78900300  0.81002500  1
  H  H81  1  0.94361700  0.70874900  0.18835800  1
  H  H82  1  0.05744500  0.70862700  0.80866900  1
  H  H83  1  0.44361700  0.20874900  0.18835800  1
  H  H84  1  0.55744500  0.20862700  0.80866900  1
  H  H85  1  0.54693900  0.63885300  0.02843100  1
  H  H86  1  0.45234100  0.63843000  0.97504300  1
  H  H87  1  0.04693900  0.13885300  0.02843100  1
  H  H88  1  0.95234100  0.13843000  0.97504300  1
  H  H89  1  0.42297700  0.70722300  0.96603300  1
  H  H90  1  0.57604300  0.70789700  0.03725400  1
  H  H91  1  0.92297700  0.20722300  0.96603300  1
  H  H92  1  0.07604300  0.20789700  0.03725400  1
  H  H93  1  0.92089400  0.28838900  0.97048600  1
  H  H94  1  0.07783300  0.28906400  0.03253200  1
  H  H95  1  0.42089400  0.78838900  0.97048600  1
  H  H96  1  0.57783300  0.78906400  0.03253200  1
  H  H97  1  0.94738400  0.35743300  0.98549800  1
  H  H98  1  0.05106400  0.35789600  0.01733300  1
  H  H99  1  0.44738400  0.85743300  0.98549800  1
  H  H100  1  0.55106400  0.85789600  0.01733300  1
  H  H101  1  0.71226300  0.47694900  0.96215600  1
  H  H102  1  0.73611600  0.42784700  0.97395900  1
  H  H103  1  0.67644100  0.43519100  0.03072500  1
  H  H104  1  0.28790500  0.47011600  0.03948300  1
  H  H105  1  0.26439000  0.41972800  0.03058400  1
  H  H106  1  0.32401300  0.42756200  0.97334800  1
  H  H107  1  0.21226300  0.97694900  0.96215600  1
  H  H108  1  0.23611600  0.92784700  0.97395900  1
  H  H109  1  0.17644100  0.93519100  0.03072500  1
  H  H110  1  0.78790500  0.97011600  0.03948300  1
  H  H111  1  0.76439000  0.91972800  0.03058400  1
  H  H112  1  0.82401300  0.92756200  0.97334800  1
  H  H113  1  0.90759700  0.64265500  0.10893900  1
  H  H114  1  0.88835500  0.65469300  0.20594200  1
  H  H115  1  0.89629600  0.59786800  0.17369700  1
  H  H116  1  0.09376100  0.64318300  0.88834700  1
  H  H117  1  0.11300700  0.65508100  0.79129800  1
  H  H118  1  0.10542500  0.59829000  0.82355800  1
  H  H119  1  0.40759700  0.14265500  0.10893900  1
  H  H120  1  0.38835500  0.15469300  0.20594200  1
  H  H121  1  0.39629600  0.09786800  0.17369700  1
  H  H122  1  0.59376100  0.14318300  0.88834700  1
  H  H123  1  0.61300700  0.15508100  0.79129800  1
  H  H124  1  0.60542500  0.09829000  0.82355800  1
  H  H125  1  0.04539500  0.62687100  0.19301300  1
  H  H126  1  0.98834000  0.62426600  0.22358000  1
  H  H127  1  0.03191700  0.63694000  0.12638000  1
  H  H128  1  0.95703400  0.62594000  0.80277100  1
  H  H129  1  0.01386200  0.62307700  0.77354000  1
  H  H130  1  0.96990700  0.63685400  0.86993700  1
  H  H131  1  0.54539500  0.12687100  0.19301300  1
  H  H132  1  0.48834000  0.12426600  0.22358000  1
  H  H133  1  0.53191700  0.13694000  0.12638000  1
  H  H134  1  0.45703400  0.12594000  0.80277100  1
  H  H135  1  0.51386200  0.12307700  0.77354000  1
  H  H136  1  0.46990700  0.13685400  0.86993700  1
  C  C1  1  0.91312900  0.50015000  0.58764400  1
  C  C2  1  0.08692900  0.49800100  0.41227500  1
  C  C3  1  0.41312900  0.00015000  0.58764400  1
  C  C4  1  0.58692900  0.99800100  0.41227500  1
  C  C5  1  0.99896100  0.50000500  0.37929100  1
  C  C6  1  0.00107500  0.49813100  0.62056900  1
  C  C7  1  0.49896100  0.00000500  0.37929100  1
  C  C8  1  0.50107500  0.99813100  0.62056900  1
  C  C9  1  0.00147300  0.54695200  0.28258700  1
  C  C10  1  0.99856000  0.54548200  0.71688500  1
  C  C11  1  0.50147300  0.04695200  0.28258700  1
  C  C12  1  0.49856000  0.04548200  0.71688500  1
  C  C13  1  0.99641300  0.54666700  0.21723100  1
  C  C14  1  0.00430500  0.54546600  0.78145700  1
  C  C15  1  0.49641300  0.04666700  0.21723100  1
  C  C16  1  0.50430500  0.04546600  0.78145700  1
  C  C17  1  0.03865300  0.47372300  0.24749600  1
  C  C18  1  0.96131600  0.47233800  0.75265200  1
  C  C19  1  0.53865300  0.97372300  0.24749600  1
  C  C20  1  0.46131600  0.97233800  0.75265200  1
  C  C21  1  0.95682400  0.47781300  0.32815200  1
  C  C22  1  0.04315400  0.47631700  0.67208500  1
  C  C23  1  0.45682400  0.97781300  0.32815200  1
  C  C24  1  0.54315400  0.97631700  0.67208500  1
  C  C25  1  0.99885600  0.49974200  0.31002800  1
  C  C26  1  0.00115700  0.49817300  0.68985300  1
  C  C27  1  0.49885600  0.99974200  0.31002800  1
  C  C28  1  0.50115700  0.99817300  0.68985300  1
  C  C29  1  0.99932900  0.49901500  0.19176700  1
  C  C30  1  0.00063100  0.49799500  0.80816400  1
  C  C31  1  0.49932900  0.99901500  0.19176700  1
  C  C32  1  0.50063100  0.99799500  0.80816400  1
  C  C33  1  0.04150800  0.47760200  0.17470300  1
  C  C34  1  0.95813400  0.47713500  0.82565000  1
  C  C35  1  0.54150800  0.97760200  0.17470300  1
  C  C36  1  0.45813400  0.97713500  0.82565000  1
  C  C37  1  0.95926900  0.47347900  0.25567800  1
  C  C38  1  0.04025000  0.47168300  0.74494500  1
  C  C39  1  0.45926900  0.97347900  0.25567800  1
  C  C40  1  0.54025000  0.97168300  0.74494500  1
  C  C41  1  0.65852700  0.47334100  0.88566000  1
  C  C42  1  0.34170200  0.47118300  0.11595200  1
  C  C43  1  0.15852700  0.97334100  0.88566000  1
  C  C44  1  0.84170200  0.97118300  0.11595200  1
  C  C45  1  0.63540000  0.49874700  0.86623400  1
  C  C46  1  0.36466700  0.49813200  0.13381200  1
  C  C47  1  0.13540000  0.99874700  0.86623400  1
  C  C48  1  0.86466700  0.99813200  0.13381200  1
  C  C49  1  0.65808800  0.52442800  0.80122600  1
  C  C50  1  0.34181600  0.52504100  0.19728200  1
  C  C51  1  0.15808800  0.02442800  0.80122600  1
  C  C52  1  0.84181600  0.02504100  0.19728200  1
  C  C53  1  0.70387900  0.52559300  0.75669200  1
  C  C54  1  0.29601700  0.52586100  0.24178900  1
  C  C55  1  0.20387900  0.02559300  0.75669200  1
  C  C56  1  0.79601700  0.02586100  0.24178900  1
  C  C57  1  0.72709400  0.49932300  0.77493500  1
  C  C58  1  0.27297100  0.49808500  0.22516200  1
  C  C59  1  0.22709400  0.99932300  0.77493500  1
  C  C60  1  0.77297100  0.99808500  0.22516200  1
  C  C61  1  0.70448400  0.47272000  0.83902700  1
  C  C62  1  0.29575100  0.47028000  0.16266200  1
  C  C63  1  0.20448400  0.97272000  0.83902700  1
  C  C64  1  0.79575100  0.97028000  0.16266200  1
  C  C65  1  0.72647700  0.55311400  0.69390800  1
  C  C66  1  0.27324300  0.55454300  0.30292400  1
  C  C67  1  0.22647700  0.05311400  0.69390800  1
  C  C68  1  0.77324300  0.05454300  0.30292400  1
  C  C69  1  0.77220500  0.55462500  0.64965100  1
  C  C70  1  0.22750600  0.55571400  0.34711600  1
  C  C71  1  0.27220500  0.05462500  0.64965100  1
  C  C72  1  0.72750600  0.05571400  0.34711600  1
  C  C73  1  0.79549600  0.52773900  0.66688500  1
  C  C74  1  0.20439000  0.52735900  0.33152300  1
  C  C75  1  0.29549600  0.02773900  0.66688500  1
  C  C76  1  0.70439000  0.02735900  0.33152300  1
  C  C77  1  0.77294300  0.49967900  0.72893500  1
  C  C78  1  0.22712000  0.49814900  0.27117400  1
  C  C79  1  0.27294300  0.99967900  0.72893500  1
  C  C80  1  0.72712000  0.99814900  0.27117400  1
  C  C81  1  0.79627600  0.47184900  0.74473700  1
  C  C82  1  0.20396200  0.46889700  0.25707400  1
  C  C83  1  0.29627600  0.97184900  0.74473700  1
  C  C84  1  0.70396200  0.96889700  0.25707400  1
  C  C85  1  0.77380400  0.44464400  0.80784800  1
  C  C86  1  0.22661100  0.44051300  0.19559500  1
  C  C87  1  0.27380400  0.94464400  0.80784800  1
  C  C88  1  0.72661100  0.94051300  0.19559500  1
  C  C89  1  0.72803500  0.44572100  0.85602800  1
  C  C90  1  0.27237300  0.44180800  0.14731600  1
  C  C91  1  0.22803500  0.94572100  0.85602800  1
  C  C92  1  0.77237300  0.94180800  0.14731600  1
  C  C93  1  0.84132400  0.52879700  0.62195100  1
  C  C94  1  0.15856000  0.52812600  0.37637300  1
  C  C95  1  0.34132400  0.02879700  0.62195100  1
  C  C96  1  0.65856000  0.02812600  0.37637300  1
  C  C97  1  0.86464800  0.50010500  0.63660400  1
  C  C98  1  0.13541200  0.49807000  0.36345900  1
  C  C99  1  0.36464800  0.00010500  0.63660400  1
  C  C100  1  0.63541200  0.99807000  0.36345900  1
  C  C101  1  0.84208900  0.47121700  0.69743800  1
  C  C102  1  0.15814900  0.46804600  0.30441200  1
  C  C103  1  0.34208900  0.97121700  0.69743800  1
  C  C104  1  0.65814900  0.96804600  0.30441200  1
  C  C105  1  0.00087000  0.58484600  0.99857900  1
  C  C106  1  0.50087000  0.08484600  0.99857900  1
  C  C107  1  0.00002400  0.49825900  0.12165900  1
  C  C108  1  0.99993900  0.49763200  0.87826700  1
  C  C109  1  0.50002400  0.99825900  0.12165900  1
  C  C110  1  0.49993900  0.99763200  0.87826700  1
  C  C111  1  0.99904600  0.41109500  0.00141300  1
  C  C112  1  0.49904600  0.91109500  0.00141300  1
  C  C113  1  0.50023000  0.41147400  0.99838100  1
  C  C114  1  0.00023000  0.91147400  0.99838100  1
  C  C115  1  0.58689700  0.49858300  0.91474900  1
  C  C116  1  0.41317100  0.49824500  0.08530200  1
  C  C117  1  0.08689700  0.99858300  0.91474900  1
  C  C118  1  0.91317100  0.99824500  0.08530200  1
  C  C119  1  0.49976700  0.58516500  0.00173400  1
  C  C120  1  0.99976700  0.08516500  0.00173400  1
  C  C121  1  0.51875400  0.33988200  0.93102000  1
  C  C122  1  0.48190500  0.33993300  0.06582700  1
  C  C123  1  0.01875400  0.83988200  0.93102000  1
  C  C124  1  0.98190500  0.83993300  0.06582700  1
  C  C125  1  0.50030400  0.36293100  0.99840600  1
  C  C126  1  0.00030400  0.86293100  0.99840600  1
  C  C127  1  0.48113900  0.29413700  0.06598000  1
  C  C128  1  0.51964000  0.29408900  0.93093400  1
  C  C129  1  0.98113900  0.79413700  0.06598000  1
  C  C130  1  0.01964000  0.79408900  0.93093400  1
  C  C131  1  0.50042100  0.27112300  0.99847300  1
  C  C132  1  0.00042100  0.77112300  0.99847300  1
  C  C133  1  0.46118200  0.27134200  0.13374200  1
  C  C134  1  0.53966300  0.27124900  0.86320300  1
  C  C135  1  0.96118200  0.77134200  0.13374200  1
  C  C136  1  0.03966300  0.77124900  0.86320300  1
  C  C137  1  0.95961400  0.72568600  0.13431100  1
  C  C138  1  0.04138600  0.72560100  0.86269400  1
  C  C139  1  0.45961400  0.22568600  0.13431100  1
  C  C140  1  0.54138600  0.22560100  0.86269400  1
  C  C141  1  0.97888400  0.70236900  0.06670500  1
  C  C142  1  0.02220000  0.70233600  0.93032900  1
  C  C143  1  0.47888400  0.20236900  0.06670500  1
  C  C144  1  0.52220000  0.20233600  0.93032900  1
  C  C145  1  0.00049400  0.72523600  0.99850400  1
  C  C146  1  0.50049400  0.22523600  0.99850400  1
  C  C147  1  0.97647900  0.65643700  0.06683400  1
  C  C148  1  0.02481500  0.65642400  0.93025400  1
  C  C149  1  0.47647900  0.15643700  0.06683400  1
  C  C150  1  0.52481500  0.15642400  0.93025400  1
  C  C151  1  0.00068800  0.63346200  0.99855300  1
  C  C152  1  0.50068800  0.13346200  0.99855300  1
  C  C153  1  0.52586100  0.65668400  0.01725200  1
  C  C154  1  0.47334000  0.65644700  0.98619900  1
  C  C155  1  0.02586100  0.15668400  0.01725200  1
  C  C156  1  0.97334000  0.15644700  0.98619900  1
  C  C157  1  0.49964300  0.63363100  0.00175500  1
  C  C158  1  0.99964300  0.13363100  0.00175500  1
  C  C159  1  0.47241800  0.70223300  0.98804200  1
  C  C160  1  0.52661600  0.70247300  0.01527200  1
  C  C161  1  0.97241800  0.20223300  0.98804200  1
  C  C162  1  0.02661600  0.20247300  0.01527200  1
  C  C163  1  0.49947700  0.72524800  0.00161900  1
  C  C164  1  0.99947700  0.22524800  0.00161900  1
  C  C165  1  0.44441500  0.72504100  0.97640000  1
  C  C166  1  0.55454000  0.72552500  0.02683100  1
  C  C167  1  0.94441500  0.22504100  0.97640000  1
  C  C168  1  0.05454000  0.22552500  0.02683100  1
  C  C169  1  0.94322900  0.27076000  0.97893800  1
  C  C170  1  0.05556300  0.27124600  0.02413700  1
  C  C171  1  0.44322900  0.77076000  0.97893800  1
  C  C172  1  0.55556300  0.77124600  0.02413700  1
  C  C173  1  0.97084900  0.29380800  0.99121500  1
  C  C174  1  0.02786200  0.29405800  0.01178400  1
  C  C175  1  0.47084900  0.79380800  0.99121500  1
  C  C176  1  0.52786200  0.79405800  0.01178400  1
  C  C177  1  0.99939700  0.27103800  0.00153800  1
  C  C178  1  0.49939700  0.77103800  0.00153800  1
  C  C179  1  0.96997200  0.33959000  0.99309000  1
  C  C180  1  0.02855700  0.33984800  0.00978000  1
  C  C181  1  0.46997200  0.83959000  0.99309000  1
  C  C182  1  0.52855700  0.83984800  0.00978000  1
  C  C183  1  0.99921200  0.36264300  0.00141100  1
  C  C184  1  0.49921200  0.86264300  0.00141100  1
  C  C185  1  0.70798800  0.44077700  0.97394800  1
  C  C186  1  0.29243200  0.43376400  0.02979300  1
  C  C187  1  0.20798800  0.94077700  0.97394800  1
  C  C188  1  0.79243200  0.93376400  0.02979300  1
  C  C189  1  0.90922300  0.63221100  0.15671600  1
  C  C190  1  0.09225900  0.63255800  0.84051400  1
  C  C191  1  0.40922300  0.13221100  0.15671600  1
  C  C192  1  0.59225900  0.13255800  0.84051400  1
  C  C193  1  0.02323000  0.61676500  0.17635900  1
  C  C194  1  0.97877300  0.61608200  0.82044000  1
  C  C195  1  0.52323000  0.11676500  0.17635900  1
  C  C196  1  0.47877300  0.11608200  0.82044000  1
  O  O1  1  0.93376800  0.53844900  0.56444100  1
  O  O2  1  0.06620600  0.53632500  0.43271900  1
  O  O3  1  0.43376800  0.03844900  0.56444100  1
  O  O4  1  0.56620600  0.03632500  0.43271900  1
  O  O5  1  0.93380400  0.46183500  0.56905300  1
  O  O6  1  0.06633100  0.45963600  0.43350700  1
  O  O7  1  0.43380400  0.96183500  0.56905300  1
  O  O8  1  0.56633100  0.95963600  0.43350700  1
  O  O9  1  0.99906300  0.53835200  0.40807800  1
  O  O10  1  0.99929400  0.53634100  0.59313000  1
  O  O11  1  0.49906300  0.03835200  0.40807800  1
  O  O12  1  0.49929400  0.03634100  0.59313000  1
  O  O13  1  0.99949100  0.46173300  0.40793700  1
  O  O14  1  0.00224600  0.45976600  0.59056500  1
  O  O15  1  0.49949100  0.96173300  0.40793700  1
  O  O16  1  0.50224600  0.95976600  0.59056500  1
  O  O17  1  0.96266500  0.56392500  0.03449100  1
  O  O18  1  0.03922200  0.56427000  0.96282900  1
  O  O19  1  0.46266500  0.06392500  0.03449100  1
  O  O20  1  0.53922200  0.06427000  0.96282900  1
  O  O21  1  0.96209100  0.49699100  0.12927200  1
  O  O22  1  0.03787400  0.49868700  0.87064900  1
  O  O23  1  0.46209100  0.99699100  0.12927200  1
  O  O24  1  0.53787400  0.99868700  0.87064900  1
  O  O25  1  0.03865500  0.49953600  0.05518900  1
  O  O26  1  0.96129400  0.49685200  0.94474700  1
  O  O27  1  0.53865500  0.99953600  0.05518900  1
  O  O28  1  0.46129400  0.99685200  0.94474700  1
  O  O29  1  0.96065000  0.43156700  0.03657200  1
  O  O30  1  0.03730300  0.43191200  0.96605700  1
  O  O31  1  0.46065000  0.93156700  0.03657200  1
  O  O32  1  0.53730300  0.93191200  0.96605700  1
  O  O33  1  0.50009900  0.43211600  0.94480600  1
  O  O34  1  0.50027200  0.43223500  0.05198500  1
  O  O35  1  0.00009900  0.93211600  0.94480600  1
  O  O36  1  0.00027200  0.93223500  0.05198500  1
  O  O37  1  0.56598600  0.49878000  0.88198200  1
  O  O38  1  0.43407100  0.50020400  0.11801800  1
  O  O39  1  0.06598600  0.99878000  0.88198200  1
  O  O40  1  0.93407100  0.00020400  0.11801800  1
  O  O41  1  0.56646200  0.49834100  0.98889100  1
  O  O42  1  0.43360700  0.49632300  0.01122600  1
  O  O43  1  0.06646200  0.99834100  0.98889100  1
  O  O44  1  0.93360700  0.99632300  0.01122600  1
  O  O45  1  0.49767400  0.56445500  0.95020700  1
  O  O46  1  0.50205500  0.56458500  0.05311500  1
  O  O47  1  0.99767400  0.06445500  0.95020700  1
  O  O48  1  0.00205500  0.06458500  0.05311500  1
  O  O49  1  0.70629600  0.41863300  0.91862500  1
  O  O50  1  0.29428500  0.41354000  0.08632800  1
  O  O51  1  0.20629600  0.91863300  0.91862500  1
  O  O52  1  0.79428500  0.91354000  0.08632800  1
  O  O53  1  0.95314800  0.63350100  0.13429400  1
  O  O54  1  0.04834900  0.63347400  0.86281800  1
  O  O55  1  0.45314800  0.13350100  0.13429400  1
  O  O56  1  0.54834900  0.13347400  0.86281900  1
  O  O57  1  0.03012100  0.57177800  0.15544800  1
  O  O58  1  0.97136700  0.57134900  0.84288800  1
  O  O59  1  0.53012100  0.07177800  0.15544800  1
  O  O60  1  0.47136700  0.07134900  0.84288800  1
