# generated using pymatgen
data_Zn3H24C46O13
_symmetry_space_group_name_H-M   'P 1'
_cell_length_a   18.77308700
_cell_length_b   18.98341800
_cell_length_c   19.03307100
_cell_angle_alpha   109.53135400
_cell_angle_beta   109.69422800
_cell_angle_gamma   108.84350000
_symmetry_Int_Tables_number   1
_chemical_formula_structural   Zn3H24C46O13
_chemical_formula_sum   'Zn6 H48 C92 O26'
_cell_volume   5243.36483388
_cell_formula_units_Z   2
loop_
 _symmetry_equiv_pos_site_id
 _symmetry_equiv_pos_as_xyz
  1  'x, y, z'
loop_
 _atom_site_type_symbol
 _atom_site_label
 _atom_site_symmetry_multiplicity
 _atom_site_fract_x
 _atom_site_fract_y
 _atom_site_fract_z
 _atom_site_occupancy
  Zn  Zn1  1  0.50285300  0.43449100  0.43039500  1
  Zn  Zn2  1  0.49449200  0.56691900  0.56523700  1
  Zn  Zn3  1  0.93334600  0.43334400  0.00538100  1
  Zn  Zn4  1  0.07097600  0.56766400  0.00209000  1
  Zn  Zn5  1  0.07340000  0.00238000  0.57211400  1
  Zn  Zn6  1  0.93256400  0.00165700  0.43423700  1
  H  H1  1  0.18314000  0.57016400  0.30980600  1
  H  H2  1  0.36114400  0.64457500  0.35983600  1
  H  H3  1  0.31388900  0.57274900  0.18467000  1
  H  H4  1  0.31783900  0.42611000  0.18596900  1
  H  H5  1  0.14022600  0.35172900  0.13640500  1
  H  H6  1  0.18799900  0.42359800  0.31199700  1
  H  H7  1  0.85364800  0.56041200  0.52032400  1
  H  H8  1  0.54707100  0.71309700  0.47811400  1
  H  H9  1  0.54245100  0.84160300  0.49289500  1
  H  H10  1  0.66902900  0.96604500  0.52549900  1
  H  H11  1  0.79739000  0.95911100  0.53686800  1
  H  H12  1  0.92817000  0.76761300  0.47474000  1
  H  H13  1  0.94677500  0.65254600  0.48728200  1
  H  H14  1  0.73814300  0.57980100  0.53424900  1
  H  H15  1  0.54217800  0.21120700  0.55869900  1
  H  H16  1  0.73194000  0.66227800  0.70938500  1
  H  H17  1  0.84659100  0.79432400  0.83713000  1
  H  H18  1  0.94191700  0.79393400  0.96206500  1
  H  H19  1  0.92570500  0.66148500  0.95686700  1
  H  H20  1  0.79381200  0.34287500  0.77239000  1
  H  H21  1  0.66688700  0.21087700  0.65609400  1
  H  H22  1  0.54712300  0.34359900  0.57454000  1
  H  H23  1  0.14236900  0.16322100  0.20423200  1
  H  H24  1  0.46036400  0.41497200  0.64942000  1
  H  H25  1  0.35013500  0.34607100  0.79253600  1
  H  H26  1  0.21789200  0.23402300  0.66313900  1
  H  H27  1  0.07327700  0.04602100  0.34129500  1
  H  H28  1  0.05025000  0.03997200  0.20724200  1
  H  H29  1  0.26098700  0.28972300  0.33515400  1
  H  H30  1  0.70786200  0.55117800  0.05937100  1
  H  H31  1  0.16630400  0.71102100  0.23430000  1
  H  H32  1  0.29925500  0.84066800  0.34405900  1
  H  H33  1  0.29781700  0.96539300  0.43708900  1
  H  H34  1  0.16359700  0.95762800  0.42399500  1
  H  H35  1  0.84687600  0.76535300  0.30811500  1
  H  H36  1  0.71183000  0.64621700  0.18664700  1
  H  H37  1  0.83923400  0.57305500  0.05553400  1
  H  H38  1  0.02828500  0.16969000  0.96415700  1
  H  H39  1  0.96033100  0.42004300  0.76513900  1
  H  H40  1  0.96695200  0.43697200  0.64783700  1
  H  H41  1  0.00098000  0.34608500  0.55367200  1
  H  H42  1  0.02188900  0.23462100  0.57336100  1
  H  H43  1  0.97787100  0.04871400  0.70942000  1
  H  H44  1  0.99647400  0.04487800  0.83871600  1
  H  H45  1  0.03491800  0.29526900  0.95753900  1
  H  H46  1  0.64490800  0.54119000  0.91950900  1
  H  H47  1  0.63781500  0.63821700  0.93868300  1
  H  H48  1  0.67450000  0.59793100  0.86545700  1
  C  C1  1  0.61925300  0.62219500  0.50115300  1
  C  C2  1  0.37857000  0.49848200  0.37536600  1
  C  C3  1  0.37842500  0.37920000  0.49481300  1
  C  C4  1  0.61897100  0.50288400  0.62057400  1
  C  C5  1  0.31015300  0.57808700  0.30835000  1
  C  C6  1  0.21459800  0.53742100  0.28268000  1
  C  C7  1  0.19128500  0.49819600  0.18954300  1
  C  C8  1  0.28572200  0.53886400  0.21414400  1
  C  C9  1  0.28667400  0.45883300  0.21366000  1
  C  C10  1  0.19114700  0.41821800  0.18794800  1
  C  C11  1  0.21556700  0.45750200  0.28222000  1
  C  C12  1  0.30999300  0.49812100  0.30680700  1
  C  C13  1  0.60482800  0.76563700  0.49273100  1
  C  C14  1  0.60067500  0.83842100  0.49960000  1
  C  C15  1  0.67114700  0.90771300  0.51717900  1
  C  C16  1  0.74370400  0.90225900  0.52199500  1
  C  C17  1  0.74697500  0.82708200  0.50993000  1
  C  C18  1  0.67989200  0.76097400  0.50273600  1
  C  C19  1  0.81622400  0.81762400  0.50525700  1
  C  C20  1  0.82149600  0.74491500  0.50138300  1
  C  C21  1  0.76166000  0.68580400  0.50837400  1
  C  C22  1  0.68822200  0.69116100  0.50479600  1
  C  C23  1  0.88552900  0.72961300  0.48972200  1
  C  C24  1  0.89599000  0.66291000  0.49519000  1
  C  C25  1  0.84354800  0.61102800  0.51298500  1
  C  C26  1  0.77659400  0.62189600  0.51918800  1
  C  C27  1  0.77144900  0.65796600  0.76227800  1
  C  C28  1  0.83774900  0.73419600  0.83460500  1
  C  C29  1  0.89138300  0.73398300  0.90421100  1
  C  C30  1  0.88219500  0.65756900  0.89978400  1
  C  C31  1  0.81825500  0.57975800  0.82532100  1
  C  C32  1  0.75821200  0.57992200  0.75844500  1
  C  C33  1  0.81353200  0.50247300  0.81764000  1
  C  C34  1  0.74450300  0.42525600  0.74515800  1
  C  C35  1  0.67820600  0.42542400  0.68411100  1
  C  C36  1  0.68627900  0.50274000  0.68873400  1
  C  C37  1  0.74100100  0.34722000  0.73207400  1
  C  C38  1  0.66918200  0.27099100  0.66482900  1
  C  C39  1  0.59972700  0.27117300  0.61005800  1
  C  C40  1  0.60404100  0.34758900  0.61914100  1
  C  C41  1  0.40387700  0.37736700  0.65008200  1
  C  C42  1  0.41246200  0.38908400  0.72865900  1
  C  C43  1  0.34442200  0.33667300  0.73124800  1
  C  C44  1  0.26940000  0.27151300  0.65630700  1
  C  C45  1  0.26122200  0.25702400  0.57657600  1
  C  C46  1  0.32628200  0.31516100  0.57390900  1
  C  C47  1  0.18939600  0.18574400  0.50017600  1
  C  C48  1  0.18123700  0.17663600  0.42149100  1
  C  C49  1  0.23980100  0.24193100  0.41942100  1
  C  C50  1  0.31397300  0.31044400  0.49567400  1
  C  C51  1  0.11535000  0.10249400  0.34415600  1
  C  C52  1  0.10234800  0.09749500  0.26674900  1
  C  C53  1  0.15419200  0.16612300  0.26504600  1
  C  C54  1  0.22273400  0.23774900  0.34060100  1
  C  C55  1  0.00257300  0.62012500  0.12355800  1
  C  C56  1  0.12211100  0.49822500  0.12195200  1
  C  C57  1  0.00151900  0.38087300  0.88374300  1
  C  C58  1  0.88196800  0.50265300  0.88507600  1
  C  C59  1  0.00466500  0.88253600  0.38540100  1
  C  C60  1  0.88298500  0.88382300  0.50385300  1
  C  C61  1  0.00127100  0.12139900  0.62094400  1
  C  C62  1  0.12290000  0.12010400  0.50242900  1
  C  C63  1  0.16133200  0.76382900  0.27246400  1
  C  C64  1  0.23825200  0.83723600  0.33625100  1
  C  C65  1  0.23749600  0.90669700  0.38864100  1
  C  C66  1  0.16016600  0.90083900  0.38125300  1
  C  C67  1  0.08202200  0.82515500  0.32021100  1
  C  C68  1  0.08203400  0.75878400  0.26046600  1
  C  C69  1  0.00447600  0.81532900  0.31838600  1
  C  C70  1  0.92652800  0.74146200  0.25285200  1
  C  C71  1  0.92532700  0.68166400  0.18558000  1
  C  C72  1  0.00338900  0.68829000  0.19060800  1
  C  C73  1  0.84922200  0.72600200  0.25388100  1
  C  C74  1  0.77143600  0.65718400  0.18531000  1
  C  C75  1  0.76928300  0.60385000  0.11433600  1
  C  C76  1  0.84535800  0.61597700  0.11395100  1
  C  C77  1  0.97603800  0.37858100  0.72624700  1
  C  C78  1  0.97804700  0.38801100  0.65833200  1
  C  C79  1  0.99640000  0.33681900  0.60534000  1
  C  C80  1  0.00669600  0.27217500  0.61649000  1
  C  C81  1  0.99936900  0.25830700  0.68173900  1
  C  C82  1  0.99169100  0.31680700  0.74159700  1
  C  C83  1  0.00028800  0.18750300  0.68808700  1
  C  C84  1  0.99975600  0.17933200  0.75811700  1
  C  C85  1  0.00633400  0.24520600  0.82477500  1
  C  C86  1  0.99929800  0.31284500  0.81545400  1
  C  C87  1  0.99226700  0.10569700  0.76254800  1
  C  C88  1  0.00122000  0.10196700  0.83570700  1
  C  C89  1  0.01834900  0.17143800  0.90555800  1
  C  C90  1  0.02054200  0.24248400  0.90031000  1
  C  C91  1  0.53862200  0.52721600  0.81743900  1
  C  C92  1  0.62978600  0.57955000  0.88996700  1
  O  O1  1  0.59095300  0.54242100  0.44582100  1
  O  O2  1  0.58938000  0.64271500  0.55376000  1
  O  O3  1  0.41085300  0.44879300  0.35239500  1
  O  O4  1  0.40347500  0.54843700  0.45579500  1
  O  O5  1  0.41032000  0.35855400  0.44420500  1
  O  O6  1  0.40404500  0.45901700  0.54757600  1
  O  O7  1  0.59589200  0.45527500  0.54001600  1
  O  O8  1  0.58418300  0.55018800  0.64293200  1
  O  O9  1  0.95263500  0.54008900  0.09925500  1
  O  O10  1  0.05159700  0.64173700  0.09058700  1
  O  O11  1  0.04085300  0.44773900  0.09598700  1
  O  O12  1  0.14550900  0.54907700  0.09175800  1
  O  O13  1  0.94994900  0.35909700  0.91425000  1
  O  O14  1  0.05455000  0.46094900  0.91082500  1
  O  O15  1  0.85912800  0.45453300  0.91816400  1
  O  O16  1  0.96334900  0.55056600  0.90906500  1
  O  O17  1  0.05749200  0.91038600  0.46629600  1
  O  O18  1  0.95148500  0.91156500  0.36153600  1
  O  O19  1  0.96528400  0.91336500  0.55651900  1
  O  O20  1  0.85759300  0.91083300  0.44992500  1
  O  O21  1  0.05820300  0.09618400  0.64451300  1
  O  O22  1  0.94453800  0.08950700  0.54017400  1
  O  O23  1  0.14821300  0.08899000  0.55220000  1
  O  O24  1  0.04070000  0.09448500  0.45380500  1
  O  O25  1  0.48721200  0.44919400  0.80298800  1
  O  O26  1  0.50951200  0.55752000  0.77534100  1
