# Generated by REPEAT Assigner based on pymatgen
data_DB0-m9_o17_o23_f0_sra.sym.74_sqe
_audit_creation_date              2022-05-24
_audit_creation_method            REPEAT_Assigner
_cell_length_a                    23.641800
_cell_length_b                    6.818000
_cell_length_c                    19.943603
_cell_angle_alpha                 90.000000
_cell_angle_beta                  94.274803
_cell_angle_gamma                 90.000000
_cell_volume                      3205.761934
_symmetry_space_group_name_H-M    P1
_symmetry_Int_Tables_number       1
loop_
    _symmetry_equiv_pos_site_id
    _symmetry_equiv_pos_as_xyz
    1  x,y,z
loop_
    _atom_site_type_symbol
    _atom_site_label
    _atom_site_fract_x
    _atom_site_fract_y
    _atom_site_fract_z
    _atom_type_partial_charge
    O  O1   0.436365  0.483698  0.443669  -0.504280
    O  O2   0.563635  0.983698  0.556331  -0.504285
    O  O3   0.555424  0.830793  0.428281  -0.536783
    O  O4   0.444576  0.330793  0.571718  -0.536755
    C  C1   0.577606  0.651514  0.421617  0.698183
    C  C2   0.422394  0.151514  0.578383  0.698174
    O  O5   0.439952  0.831024  0.423741  -0.500097
    O  O6   0.560048  0.331024  0.576259  -0.500082
    O  O7   0.440317  0.983714  0.551508  -0.544676
    O  O8   0.559683  0.483713  0.448492  -0.544688
    C  C3   0.417324  0.652195  0.415661  0.552974
    C  C4   0.582676  0.152195  0.584338  0.552833
    O  O9   0.501404  0.664575  0.540369  -0.477918
    O  O10  0.498596  0.164574  0.459630  -0.477819
    V  V1   0.499769  0.934280  0.488950  1.386991
    V  V2   0.500231  0.434280  0.511051  1.386978
    C  C5   0.837312  0.263636  0.856697  -0.252836
    C  C6   0.162688  0.763636  0.143303  -0.252785
    C  C7   0.867863  0.090944  0.865679  0.067392
    C  C8   0.132137  0.590944  0.134321  0.067367
    C  C9   0.850732  0.928329  0.827683  -0.316057
    C  C10  0.149268  0.428329  0.172317  -0.315863
    C  C11  0.804055  0.938278  0.781254  0.243405
    C  C12  0.195945  0.438278  0.218746  0.243585
    C  C13  0.773579  0.110105  0.772930  -0.002747
    C  C14  0.226421  0.610105  0.227070  -0.003092
    C  C15  0.790173  0.272578  0.810770  0.137072
    C  C16  0.209827  0.772578  0.189229  0.137148
    C  C17  0.787669  0.776143  0.743017  -0.276964
    C  C18  0.212331  0.276143  0.256982  -0.277544
    C  C19  0.740843  0.785355  0.697142  -0.203951
    C  C20  0.259157  0.285355  0.302858  -0.202883
    C  C21  0.709935  0.956793  0.689098  0.217591
    C  C22  0.290065  0.456793  0.310902  0.217077
    C  C23  0.726547  0.119299  0.726915  -0.069193
    C  C24  0.273453  0.619299  0.273085  -0.068793
    C  C25  0.696058  0.291098  0.718612  0.233795
    C  C26  0.303942  0.791099  0.281388  0.233408
    C  C27  0.712446  0.453235  0.756846  -0.247437
    C  C28  0.287554  0.953235  0.243154  -0.247346
    C  C29  0.759270  0.444017  0.802723  -0.152338
    C  C30  0.240730  0.944017  0.197277  -0.152298
    C  C31  0.662758  0.965677  0.643225  -0.247135
    C  C32  0.337242  0.465677  0.356775  -0.247111
    C  C33  0.632193  0.138355  0.634261  0.054914
    C  C34  0.367808  0.638355  0.365739  0.054551
    C  C35  0.649345  0.300994  0.672232  -0.305035
    C  C36  0.350655  0.800994  0.327768  -0.304417
    H  H1   0.849835  0.391614  0.886167  0.117764
    H  H2   0.150165  0.891614  0.113833  0.117739
    H  H3   0.874045  0.792412  0.834167  0.164814
    H  H4   0.125955  0.292411  0.165833  0.164789
    H  H5   0.811639  0.641417  0.748838  0.168559
    H  H6   0.188361  0.141417  0.251162  0.168578
    H  H7   0.728463  0.657843  0.667340  0.138801
    H  H8   0.271537  0.157843  0.332660  0.138424
    H  H9   0.650206  0.837655  0.613793  0.121958
    H  H10  0.349795  0.337655  0.386207  0.122004
    H  H11  0.626011  0.436874  0.665783  0.161142
    H  H12  0.373989  0.936874  0.334217  0.161012
    H  H13  0.688460  0.587923  0.751053  0.154951
    H  H14  0.311540  0.087923  0.248947  0.154894
    H  H15  0.771633  0.571486  0.832553  0.154532
    H  H16  0.228367  0.071486  0.167447  0.154530
    C  C37  0.248536  0.282316  0.807487  -0.366169
    C  C38  0.751464  0.782316  0.192513  -0.366290
    C  C39  0.244370  0.923125  0.796295  0.104249
    C  C40  0.755631  0.423125  0.203705  0.104303
    C  C41  0.293201  0.931828  0.750116  0.018497
    C  C42  0.706799  0.431828  0.249884  0.018292
    H  H17  0.337399  0.286063  0.787996  -0.014837
    H  H18  0.662602  0.786063  0.212004  -0.014908
    H  H19  0.216798  0.796102  0.781844  -0.053434
    H  H20  0.783202  0.296102  0.218155  -0.053416
    H  H21  0.261949  0.904159  0.849017  -0.068684
    H  H22  0.738051  0.404159  0.150983  -0.068708
    H  H23  0.334131  0.924154  0.781015  -0.022469
    H  H24  0.665869  0.424154  0.218985  -0.022449
    H  H25  0.290049  0.805065  0.715192  0.000221
    H  H26  0.709951  0.305065  0.284808  0.000269
    C  C43  0.376533  0.136178  0.624530  -0.165562
    C  C44  0.623467  0.636178  0.375470  -0.165317
    C  C45  0.209218  0.109966  0.790815  0.514377
    C  C46  0.790783  0.609966  0.209185  0.514578
    C  C47  0.295596  0.291586  0.758874  0.109718
    C  C48  0.704404  0.791586  0.241126  0.109914
    C  C49  0.291015  0.120937  0.709702  0.486037
    C  C50  0.708986  0.620937  0.290297  0.486324
    C  C51  0.233426  0.132400  0.670572  -0.399270
    C  C52  0.766574  0.632400  0.329428  -0.399447
    C  C53  0.185581  0.131356  0.718210  0.118123
    C  C54  0.814419  0.631355  0.281789  0.117985
    C  C55  0.338168  0.127957  0.662847  -0.237579
    C  C56  0.661832  0.627957  0.337153  -0.237942
    C  C57  0.162029  0.102902  0.837622  -0.251131
    C  C58  0.837971  0.602902  0.162378  -0.251157
    C  C59  0.123614  0.094535  0.875863  -0.173342
    C  C60  0.876386  0.594535  0.124136  -0.173353
    H  H27  0.161540  0.270781  0.712532  -0.019828
    H  H28  0.838460  0.770781  0.287468  -0.019812
    H  H29  0.156579  0.007127  0.705001  -0.021871
    H  H30  0.843421  0.507127  0.294999  -0.021842
    H  H31  0.230971  0.269375  0.640505  0.199663
    H  H32  0.769029  0.769375  0.359495  0.199704
    H  H33  0.223711  0.420409  0.803745  0.172719
    H  H34  0.776289  0.920409  0.196255  0.172723
    H  H35  0.292087  0.431364  0.730433  -0.026093
    H  H36  0.707913  0.931364  0.269567  -0.026139
    O  O11  0.940345  0.746655  0.051264  -0.536502
    O  O12  0.059655  0.246655  0.948736  -0.536587
    O  O13  0.059959  0.398310  0.076372  -0.487201
    O  O14  0.940041  0.898310  0.923628  -0.487132
    C  C61  0.082648  0.577081  0.084365  0.524665
    C  C62  0.917352  0.077081  0.915635  0.524764
    O  O15  0.944466  0.399566  0.071532  -0.525037
    O  O16  0.055534  0.899566  0.928468  -0.524928
    O  O17  0.936368  0.245590  0.943666  -0.482127
    O  O18  0.063632  0.745589  0.056334  -0.482074
    C  C63  0.922312  0.578948  0.078092  0.692162
    C  C64  0.077688  0.078948  0.921907  0.692120
    O  O19  0.998859  0.565140  0.959341  -0.470702
    O  O20  0.001141  0.065140  0.040659  -0.470824
    V  V3   0.000175  0.295035  0.011124  1.360306
    V  V4   0.999825  0.795035  0.988875  1.359999
    I  I1   0.285629  0.251131  0.907679  -0.044831
    I  I2   0.714371  0.751131  0.092321  -0.044824
    I  I3   0.223663  0.887243  0.604361  -0.071336
    I  I4   0.776337  0.387242  0.395639  -0.071279
