# generated using pymatgen
data_ZnH36C31(NO)4
_symmetry_space_group_name_H-M   'P 1'
_cell_length_a   24.07182100
_cell_length_b   24.25308900
_cell_length_c   15.92139800
_cell_angle_alpha   90.00000000
_cell_angle_beta   91.26674700
_cell_angle_gamma   90.00000000
_symmetry_Int_Tables_number   1
_chemical_formula_structural   ZnH36C31(NO)4
_chemical_formula_sum   'Zn4 H144 C124 N16 O16'
_cell_volume   9292.89550349
_cell_formula_units_Z   4
loop_
 _symmetry_equiv_pos_site_id
 _symmetry_equiv_pos_as_xyz
  1  'x, y, z'
loop_
 _atom_site_type_symbol
 _atom_site_label
 _atom_site_symmetry_multiplicity
 _atom_site_fract_x
 _atom_site_fract_y
 _atom_site_fract_z
 _atom_site_occupancy
  Zn  Zn1  1  0.49696700  0.99221900  0.59518300  1
  Zn  Zn2  1  0.50303300  0.99221900  0.40481700  1
  Zn  Zn3  1  0.99696700  0.49221800  0.59518300  1
  Zn  Zn4  1  0.00303300  0.49221900  0.40481700  1
  H  H1  1  0.32931200  0.22309700  0.58600300  1
  H  H2  1  0.73174000  0.82025100  0.41743300  1
  H  H3  1  0.67068800  0.22309700  0.41399700  1
  H  H4  1  0.26826000  0.82025100  0.58256700  1
  H  H5  1  0.82931200  0.72309700  0.58600300  1
  H  H6  1  0.23174000  0.32025100  0.41743300  1
  H  H7  1  0.17068800  0.72309700  0.41399700  1
  H  H8  1  0.76826000  0.32025100  0.58256600  1
  H  H9  1  0.58568300  0.84049800  0.62462700  1
  H  H10  1  0.34761100  0.07828100  0.37371700  1
  H  H11  1  0.41431700  0.84049800  0.37537300  1
  H  H12  1  0.65238900  0.07828100  0.62628300  1
  H  H13  1  0.08568300  0.34049800  0.62462700  1
  H  H14  1  0.84761100  0.57828100  0.37371700  1
  H  H15  1  0.91431700  0.34049800  0.37537300  1
  H  H16  1  0.15238900  0.57828100  0.62628300  1
  H  H17  1  0.57871600  0.98528500  0.74012700  1
  H  H18  1  0.42128500  0.98528500  0.25987300  1
  H  H19  1  0.07871600  0.48528400  0.74012700  1
  H  H20  1  0.92128500  0.48528400  0.25987300  1
  H  H21  1  0.57369400  0.98521900  0.89166100  1
  H  H22  1  0.42630600  0.98521900  0.10833900  1
  H  H23  1  0.07369400  0.48521900  0.89166100  1
  H  H24  1  0.92630600  0.48521900  0.10833900  1
  H  H25  1  0.60348100  0.99945600  0.13158000  1
  H  H26  1  0.39652000  0.99945600  0.86842000  1
  H  H27  1  0.10348100  0.49945600  0.13158000  1
  H  H28  1  0.89652000  0.49945600  0.86842000  1
  H  H29  1  0.59477500  0.99976900  0.28469900  1
  H  H30  1  0.40522500  0.99976900  0.71530000  1
  H  H31  1  0.09477500  0.49976900  0.28469900  1
  H  H32  1  0.90522500  0.49976900  0.71530000  1
  H  H33  1  0.46033900  0.14210700  0.59948600  1
  H  H34  1  0.41223600  0.25434900  0.63697800  1
  H  H35  1  0.44709400  0.23842500  0.53992400  1
  H  H36  1  0.48265600  0.22986100  0.63993600  1
  H  H37  1  0.36711100  0.18088800  0.71406500  1
  H  H38  1  0.43645500  0.15890100  0.74418900  1
  H  H39  1  0.38761600  0.10999100  0.69922100  1
  H  H40  1  0.65238700  0.95108100  0.40367700  1
  H  H41  1  0.76386900  0.90091700  0.36632300  1
  H  H42  1  0.74966900  0.93520300  0.46503000  1
  H  H43  1  0.74080000  0.97128800  0.36662200  1
  H  H44  1  0.68722700  0.85530500  0.28973900  1
  H  H45  1  0.67061900  0.92500000  0.25836300  1
  H  H46  1  0.61733800  0.88107100  0.30046500  1
  H  H47  1  0.53966100  0.14210700  0.40051400  1
  H  H48  1  0.58776400  0.25434900  0.36302200  1
  H  H49  1  0.55290600  0.23842500  0.46007600  1
  H  H50  1  0.51734400  0.22986100  0.36006400  1
  H  H51  1  0.63288900  0.18088800  0.28593400  1
  H  H52  1  0.56354500  0.15890100  0.25581000  1
  H  H53  1  0.61238400  0.10999100  0.30077900  1
  H  H54  1  0.34761300  0.95108100  0.59632200  1
  H  H55  1  0.23613100  0.90091800  0.63367700  1
  H  H56  1  0.25033100  0.93520300  0.53497000  1
  H  H57  1  0.25920000  0.97128800  0.63337800  1
  H  H58  1  0.31277300  0.85530500  0.71026100  1
  H  H59  1  0.32938100  0.92500000  0.74163700  1
  H  H60  1  0.38266300  0.88107200  0.69953500  1
  H  H61  1  0.96033900  0.64210700  0.59948600  1
  H  H62  1  0.91223600  0.75434900  0.63697800  1
  H  H63  1  0.94709400  0.73842500  0.53992400  1
  H  H64  1  0.98265600  0.72986100  0.63993600  1
  H  H65  1  0.86711100  0.68088800  0.71406500  1
  H  H66  1  0.93645500  0.65890100  0.74418900  1
  H  H67  1  0.88761600  0.60999100  0.69922100  1
  H  H68  1  0.15238700  0.45108100  0.40367700  1
  H  H69  1  0.26386900  0.40091700  0.36632300  1
  H  H70  1  0.24966900  0.43520300  0.46503000  1
  H  H71  1  0.24080000  0.47128800  0.36662200  1
  H  H72  1  0.18722700  0.35530500  0.28973900  1
  H  H73  1  0.17061900  0.42500000  0.25836300  1
  H  H74  1  0.11733800  0.38107200  0.30046500  1
  H  H75  1  0.03966100  0.64210600  0.40051400  1
  H  H76  1  0.08776400  0.75434900  0.36302200  1
  H  H77  1  0.05290600  0.73842500  0.46007600  1
  H  H78  1  0.01734400  0.72986100  0.36006400  1
  H  H79  1  0.13288900  0.68088800  0.28593400  1
  H  H80  1  0.06354500  0.65890100  0.25581000  1
  H  H81  1  0.11238400  0.60999100  0.30077900  1
  H  H82  1  0.84761300  0.45108000  0.59632300  1
  H  H83  1  0.73613100  0.40091800  0.63367700  1
  H  H84  1  0.75033100  0.43520300  0.53497000  1
  H  H85  1  0.75920000  0.47128800  0.63337800  1
  H  H86  1  0.81277300  0.35530500  0.71026100  1
  H  H87  1  0.82938100  0.42500000  0.74163700  1
  H  H88  1  0.88266300  0.38107200  0.69953400  1
  H  H89  1  0.61585100  0.76986800  0.70062000  1
  H  H90  1  0.67386700  0.67571400  0.60969100  1
  H  H91  1  0.60357800  0.69819700  0.58601100  1
  H  H92  1  0.62244000  0.67347200  0.68972600  1
  H  H93  1  0.73656300  0.73205100  0.69394000  1
  H  H94  1  0.69160100  0.73949600  0.78173200  1
  H  H95  1  0.71613500  0.80015100  0.72829000  1
  H  H96  1  0.27612400  0.10882200  0.29735500  1
  H  H97  1  0.18210600  0.16667700  0.38873000  1
  H  H98  1  0.20443900  0.09670300  0.40979600  1
  H  H99  1  0.17902400  0.11601600  0.30639600  1
  H  H100  1  0.23850700  0.22869700  0.30755300  1
  H  H101  1  0.24573800  0.18421800  0.21830600  1
  H  H102  1  0.30703100  0.20835900  0.27439800  1
  H  H103  1  0.38414900  0.76986800  0.29938000  1
  H  H104  1  0.32613400  0.67571400  0.39030900  1
  H  H105  1  0.39642200  0.69819700  0.41398800  1
  H  H106  1  0.37756000  0.67347200  0.31027300  1
  H  H107  1  0.26343800  0.73205100  0.30605900  1
  H  H108  1  0.30839900  0.73949600  0.21826800  1
  H  H109  1  0.28386500  0.80015100  0.27171000  1
  H  H110  1  0.72387600  0.10882200  0.70264500  1
  H  H111  1  0.81789400  0.16667700  0.61127000  1
  H  H112  1  0.79556100  0.09670300  0.59020300  1
  H  H113  1  0.82097600  0.11601600  0.69360400  1
  H  H114  1  0.76149300  0.22869700  0.69244600  1
  H  H115  1  0.75426200  0.18421800  0.78169400  1
  H  H116  1  0.69296900  0.20835900  0.72560200  1
  H  H117  1  0.11585100  0.26986800  0.70062000  1
  H  H118  1  0.17386700  0.17571400  0.60969100  1
  H  H119  1  0.10357800  0.19819700  0.58601100  1
  H  H120  1  0.12244000  0.17347200  0.68972600  1
  H  H121  1  0.23656300  0.23205100  0.69394000  1
  H  H122  1  0.19160200  0.23949600  0.78173200  1
  H  H123  1  0.21613500  0.30015100  0.72829000  1
  H  H124  1  0.77612400  0.60882200  0.29735500  1
  H  H125  1  0.68210600  0.66666667  0.38873000  1
  H  H126  1  0.70443900  0.59670300  0.40979600  1
  H  H127  1  0.67902400  0.61601600  0.30639600  1
  H  H128  1  0.73850700  0.72869700  0.30755300  1
  H  H129  1  0.74573800  0.68421800  0.21830600  1
  H  H130  1  0.80703100  0.70835900  0.27439800  1
  H  H131  1  0.88414900  0.26986800  0.29938000  1
  H  H132  1  0.82613400  0.17571400  0.39030900  1
  H  H133  1  0.89642200  0.19819700  0.41398800  1
  H  H134  1  0.87756000  0.17347200  0.31027300  1
  H  H135  1  0.76343800  0.23205100  0.30605900  1
  H  H136  1  0.80839900  0.23949600  0.21826800  1
  H  H137  1  0.78386500  0.30015100  0.27170900  1
  H  H138  1  0.22387600  0.60882200  0.70264500  1
  H  H139  1  0.31789400  0.66666667  0.61127000  1
  H  H140  1  0.29556100  0.59670300  0.59020300  1
  H  H141  1  0.32097600  0.61601600  0.69360400  1
  H  H142  1  0.26149300  0.72869700  0.69244600  1
  H  H143  1  0.25426200  0.68421800  0.78169400  1
  H  H144  1  0.19296900  0.70835900  0.72560200  1
  C  C1  1  0.57597100  0.06946500  0.50874300  1
  C  C2  1  0.42265600  0.91618600  0.49117800  1
  C  C3  1  0.42403000  0.06946500  0.49125700  1
  C  C4  1  0.57734500  0.91618600  0.50882200  1
  C  C5  1  0.07597100  0.56946500  0.50874300  1
  C  C6  1  0.92265600  0.41618600  0.49117800  1
  C  C7  1  0.92403000  0.56946500  0.49125700  1
  C  C8  1  0.07734500  0.41618600  0.50882200  1
  C  C9  1  0.62095800  0.87362300  0.51419400  1
  C  C10  1  0.38153300  0.11293600  0.48617800  1
  C  C11  1  0.37904200  0.87362300  0.48580600  1
  C  C12  1  0.61846700  0.11293600  0.51382200  1
  C  C13  1  0.12095800  0.37362300  0.51419400  1
  C  C14  1  0.88153300  0.61293600  0.48617800  1
  C  C15  1  0.87904200  0.37362300  0.48580600  1
  C  C16  1  0.11846700  0.61293600  0.51382200  1
  C  C17  1  0.66384100  0.86912500  0.45684100  1
  C  C18  1  0.37770500  0.15531100  0.54505000  1
  C  C19  1  0.33615900  0.86912500  0.54315800  1
  C  C20  1  0.62229500  0.15531100  0.45495000  1
  C  C21  1  0.16384100  0.36912500  0.45684100  1
  C  C22  1  0.87770500  0.65531100  0.54505000  1
  C  C23  1  0.83615900  0.36912500  0.54315800  1
  C  C24  1  0.12229500  0.65531100  0.45495000  1
  C  C25  1  0.69919000  0.82417500  0.46251200  1
  C  C26  1  0.33270100  0.19079800  0.53982500  1
  C  C27  1  0.30081000  0.82417500  0.53748700  1
  C  C28  1  0.66729900  0.19079800  0.46017500  1
  C  C29  1  0.19919000  0.32417500  0.46251200  1
  C  C30  1  0.83270100  0.69079800  0.53982500  1
  C  C31  1  0.80081000  0.32417500  0.53748700  1
  C  C32  1  0.16729900  0.69079800  0.46017500  1
  C  C33  1  0.69611800  0.78680300  0.52793600  1
  C  C34  1  0.29462400  0.18804500  0.47347800  1
  C  C35  1  0.30388200  0.78680300  0.47206400  1
  C  C36  1  0.70537600  0.18804500  0.52652200  1
  C  C37  1  0.19611800  0.28680300  0.52793600  1
  C  C38  1  0.79462400  0.68804500  0.47347700  1
  C  C39  1  0.80388200  0.28680300  0.47206400  1
  C  C40  1  0.20537600  0.68804500  0.52652200  1
  C  C41  1  0.65627100  0.79379800  0.58862300  1
  C  C42  1  0.30106800  0.14856700  0.41138800  1
  C  C43  1  0.34372900  0.79379800  0.41137700  1
  C  C44  1  0.69893300  0.14856700  0.58861200  1
  C  C45  1  0.15627100  0.29379800  0.58862300  1
  C  C46  1  0.80106800  0.64856700  0.41138800  1
  C  C47  1  0.84372900  0.29379800  0.41137700  1
  C  C48  1  0.19893300  0.64856700  0.58861200  1
  C  C49  1  0.61849200  0.83644700  0.57985600  1
  C  C50  1  0.34384100  0.11081900  0.41956700  1
  C  C51  1  0.38150800  0.83644700  0.42014300  1
  C  C52  1  0.65615900  0.11081900  0.58043200  1
  C  C53  1  0.11849200  0.33644700  0.57985600  1
  C  C54  1  0.84384100  0.61081900  0.41956700  1
  C  C55  1  0.88150800  0.33644700  0.42014300  1
  C  C56  1  0.15615900  0.61081900  0.58043200  1
  C  C57  1  0.46140000  0.98838900  0.23105200  1
  C  C58  1  0.53860000  0.98838900  0.76894800  1
  C  C59  1  0.96140000  0.48838900  0.23105200  1
  C  C60  1  0.03860000  0.48838900  0.76894800  1
  C  C61  1  0.46465900  0.98853300  0.14459500  1
  C  C62  1  0.53534100  0.98853300  0.85540400  1
  C  C63  1  0.96465900  0.48853300  0.14459500  1
  C  C64  1  0.03534100  0.48853300  0.85540400  1
  C  C65  1  0.51621500  0.99244300  0.10782500  1
  C  C66  1  0.48378600  0.99244300  0.89217500  1
  C  C67  1  0.01621500  0.49244300  0.10782500  1
  C  C68  1  0.98378600  0.49244300  0.89217500  1
  C  C69  1  0.56291600  0.99626600  0.15895700  1
  C  C70  1  0.43708500  0.99626600  0.84104200  1
  C  C71  1  0.06291600  0.49626600  0.15895700  1
  C  C72  1  0.93708500  0.49626600  0.84104200  1
  C  C73  1  0.55799800  0.99632400  0.24494400  1
  C  C74  1  0.44200200  0.99632400  0.75505500  1
  C  C75  1  0.05799800  0.49632400  0.24494400  1
  C  C76  1  0.94200200  0.49632400  0.75505500  1
  C  C77  1  0.42261500  0.16663100  0.61042800  1
  C  C78  1  0.44193900  0.22623400  0.60644800  1
  C  C79  1  0.40199800  0.15339100  0.69757000  1
  C  C80  1  0.67604000  0.91297200  0.39253600  1
  C  C81  1  0.73656500  0.93078200  0.39814300  1
  C  C82  1  0.66200800  0.89211800  0.30467300  1
  C  C83  1  0.57738500  0.16663100  0.38957200  1
  C  C84  1  0.55806200  0.22623400  0.39355200  1
  C  C85  1  0.59800200  0.15339100  0.30243000  1
  C  C86  1  0.32396000  0.91297200  0.60746400  1
  C  C87  1  0.26343500  0.93078200  0.60185700  1
  C  C88  1  0.33799200  0.89211800  0.69532700  1
  C  C89  1  0.92261500  0.66666667  0.61042800  1
  C  C90  1  0.94193900  0.72623400  0.60644800  1
  C  C91  1  0.90199800  0.65339100  0.69757000  1
  C  C92  1  0.17604000  0.41297200  0.39253600  1
  C  C93  1  0.23656500  0.43078200  0.39814300  1
  C  C94  1  0.16200800  0.39211800  0.30467300  1
  C  C95  1  0.07738500  0.66666667  0.38957200  1
  C  C96  1  0.05806200  0.72623400  0.39355200  1
  C  C97  1  0.09800200  0.65339100  0.30243000  1
  C  C98  1  0.82396000  0.41297200  0.60746400  1
  C  C99  1  0.76343500  0.43078200  0.60185700  1
  C  C100  1  0.83799200  0.39211800  0.69532700  1
  C  C101  1  0.65095400  0.75556000  0.66243600  1
  C  C102  1  0.63713400  0.69704800  0.63483600  1
  C  C103  1  0.70230500  0.75686100  0.71973000  1
  C  C104  1  0.26210200  0.14366200  0.33655500  1
  C  C105  1  0.20321000  0.13020900  0.36239700  1
  C  C106  1  0.26339600  0.19470400  0.28120700  1
  C  C107  1  0.34904600  0.75556000  0.33756300  1
  C  C108  1  0.36286600  0.69704800  0.36516400  1
  C  C109  1  0.29769600  0.75686100  0.28027000  1
  C  C110  1  0.73789900  0.14366200  0.66344400  1
  C  C111  1  0.79679100  0.13020900  0.63760200  1
  C  C112  1  0.73660400  0.19470400  0.71879300  1
  C  C113  1  0.15095400  0.25556000  0.66243600  1
  C  C114  1  0.13713400  0.19704800  0.63483600  1
  C  C115  1  0.20230500  0.25686100  0.71973000  1
  C  C116  1  0.76210200  0.64366200  0.33655500  1
  C  C117  1  0.70321000  0.63020900  0.36239700  1
  C  C118  1  0.76339600  0.69470400  0.28120700  1
  C  C119  1  0.84904600  0.25556000  0.33756300  1
  C  C120  1  0.86286600  0.19704800  0.36516400  1
  C  C121  1  0.79769600  0.25686100  0.28027000  1
  C  C122  1  0.23789900  0.64366200  0.66344400  1
  C  C123  1  0.29679100  0.63020900  0.63760200  1
  C  C124  1  0.23660400  0.69470400  0.71879300  1
  N  N1  1  0.73600100  0.74427400  0.53555000  1
  N  N2  1  0.25208700  0.22796600  0.46612100  1
  N  N3  1  0.26399900  0.74427400  0.46445000  1
  N  N4  1  0.74791300  0.22796600  0.53387800  1
  N  N5  1  0.23600100  0.24427400  0.53555000  1
  N  N6  1  0.75208700  0.72796600  0.46612100  1
  N  N7  1  0.76399900  0.24427400  0.46445000  1
  N  N8  1  0.24791300  0.72796600  0.53387800  1
  N  N9  1  0.50772900  0.99210600  0.27962400  1
  N  N10  1  0.49227100  0.99210600  0.72037500  1
  N  N11  1  0.00772900  0.49210600  0.27962400  1
  N  N12  1  0.99227100  0.49210600  0.72037500  1
  N  N13  1  0.52258100  0.99256000  0.01971500  1
  N  N14  1  0.47741900  0.99256000  0.98028400  1
  N  N15  1  0.02258100  0.49256000  0.01971500  1
  N  N16  1  0.97741900  0.49256000  0.98028400  1
  O  O1  1  0.55595600  0.05063600  0.57919300  1
  O  O2  1  0.44359800  0.93426100  0.42095400  1
  O  O3  1  0.44404400  0.05063600  0.42080700  1
  O  O4  1  0.55640200  0.93426100  0.57904600  1
  O  O5  1  0.05595600  0.55063600  0.57919300  1
  O  O6  1  0.94359800  0.43426100  0.42095400  1
  O  O7  1  0.94404400  0.55063600  0.42080700  1
  O  O8  1  0.05640200  0.43426100  0.57904600  1
  O  O9  1  0.56076300  0.05015100  0.43474200  1
  O  O10  1  0.44009600  0.93346400  0.56522200  1
  O  O11  1  0.43923700  0.05015100  0.56525700  1
  O  O12  1  0.55990400  0.93346400  0.43477800  1
  O  O13  1  0.06076300  0.55015100  0.43474200  1
  O  O14  1  0.94009600  0.43346400  0.56522200  1
  O  O15  1  0.93923700  0.55015100  0.56525700  1
  O  O16  1  0.05990400  0.43346400  0.43477800  1
