# generated using pymatgen
data_FeH16C35S4O11
_symmetry_space_group_name_H-M   'P 1'
_cell_length_a   15.66297800
_cell_length_b   20.15275700
_cell_length_c   20.99811900
_cell_angle_alpha   84.01845800
_cell_angle_beta   83.63505200
_cell_angle_gamma   70.85802100
_symmetry_Int_Tables_number   1
_chemical_formula_structural   FeH16C35S4O11
_chemical_formula_sum   'Fe2 H32 C70 S8 O22'
_cell_volume   6206.75643563
_cell_formula_units_Z   2
loop_
 _symmetry_equiv_pos_site_id
 _symmetry_equiv_pos_as_xyz
  1  'x, y, z'
loop_
 _atom_site_type_symbol
 _atom_site_label
 _atom_site_symmetry_multiplicity
 _atom_site_fract_x
 _atom_site_fract_y
 _atom_site_fract_z
 _atom_site_occupancy
  Fe  Fe1  1  0.52372000  0.00047900  0.10851800  1
  Fe  Fe2  1  0.53971600  0.01008900  0.81996100  1
  H  H1  1  0.93726000  0.03700000  0.86542600  1
  H  H2  1  0.21488300  0.00297900  0.86535500  1
  H  H3  1  0.06911600  0.00299300  0.89052500  1
  H  H4  1  0.79718500  0.03678500  0.83574800  1
  H  H5  1  0.26212900  0.98749500  0.09402600  1
  H  H6  1  0.95068400  0.99208500  0.14655900  1
  H  H7  1  0.80815600  0.99771200  0.11594200  1
  H  H8  1  0.97962900  0.48058200  0.36235200  1
  H  H9  1  0.99699400  0.48416500  0.59209900  1
  H  H10  1  0.17132600  0.19188400  0.41127300  1
  H  H11  1  0.34448200  0.28134100  0.54127700  1
  H  H12  1  0.66492500  0.70652400  0.58025400  1
  H  H13  1  0.79297800  0.77143000  0.37389600  1
  H  H14  1  0.37657300  0.22921600  0.15982300  1
  H  H15  1  0.25938300  0.32114000  0.22577700  1
  H  H16  1  0.72958600  0.63014400  0.22837100  1
  H  H17  1  0.63552800  0.71735700  0.14653800  1
  H  H18  1  0.83479800  0.79546400  0.78583100  1
  H  H19  1  0.89493700  0.69046600  0.71941500  1
  H  H20  1  0.19435800  0.34324100  0.75049400  1
  H  H21  1  0.74377700  0.61555300  0.49990800  1
  H  H22  1  0.23422300  0.35285500  0.46241500  1
  H  H23  1  0.07628100  0.28449400  0.48555700  1
  H  H24  1  0.26803800  0.27875900  0.96191100  1
  H  H25  1  0.16628600  0.25347300  0.97316400  1
  H  H26  1  0.15828000  0.34481500  0.95303200  1
  H  H27  1  0.94467500  0.73620900  0.55578100  1
  H  H28  1  0.90666500  0.82597600  0.52113800  1
  H  H29  1  0.02414400  0.77236200  0.50728900  1
  H  H30  1  0.13090300  0.98767000  0.25080500  1
  H  H31  1  0.04785400  0.07405800  0.25908700  1
  H  H32  1  0.16605800  0.06544700  0.23760800  1
  C  C1  1  0.89202600  0.02469000  0.90360200  1
  C  C2  1  0.30824200  0.99911200  0.93369500  1
  C  C3  1  0.22559500  0.99983900  0.91566300  1
  C  C4  1  0.15528300  0.99823500  0.96107700  1
  C  C5  1  0.07244900  0.00228900  0.94139600  1
  C  C6  1  0.99894100  0.00328100  0.98575300  1
  C  C7  1  0.80940900  0.02693000  0.88603600  1
  C  C8  1  0.74569300  0.01214500  0.93043800  1
  C  C9  1  0.91288100  0.00917800  0.96721200  1
  C  C10  1  0.84491200  0.00165400  0.01345700  1
  C  C11  1  0.76177200  0.00075100  0.99500500  1
  C  C12  1  0.32052900  0.99500300  0.99878700  1
  C  C13  1  0.25123700  0.98994400  0.04384300  1
  C  C14  1  0.16769400  0.99342500  0.02523400  1
  C  C15  1  0.09606800  0.99325800  0.07014500  1
  C  C16  1  0.01269100  0.99703300  0.05044100  1
  C  C17  1  0.94248400  0.99559900  0.09580800  1
  C  C18  1  0.86015300  0.99746100  0.07776800  1
  C  C19  1  0.69090600  0.98811300  0.04262000  1
  C  C20  1  0.59233900  0.86191300  0.15852800  1
  C  C21  1  0.39988200  0.00470800  0.02250700  1
  C  C22  1  0.41067300  0.08625400  0.19730000  1
  C  C23  1  0.66482400  0.89091500  0.77079800  1
  C  C24  1  0.66560000  0.00418500  0.90625000  1
  C  C25  1  0.44182600  0.14458400  0.78671700  1
  C  C26  1  0.37934200  0.00365800  0.88291000  1
  C  C27  1  0.87845300  0.59822000  0.40659200  1
  C  C28  1  0.86818500  0.66798600  0.41467500  1
  C  C29  1  0.77739200  0.62352400  0.53930000  1
  C  C30  1  0.86697700  0.58733300  0.55058000  1
  C  C31  1  0.92955000  0.53853700  0.51117700  1
  C  C32  1  0.92845800  0.54012500  0.44444800  1
  C  C33  1  0.99461400  0.48391700  0.54145000  1
  C  C34  1  0.05556600  0.42906700  0.50904200  1
  C  C35  1  0.04440900  0.42551900  0.44448300  1
  C  C36  1  0.98357400  0.48207600  0.41300500  1
  C  C37  1  0.12894300  0.38381700  0.54186800  1
  C  C38  1  0.21408300  0.34901900  0.51314000  1
  C  C39  1  0.10049000  0.29760800  0.43721500  1
  C  C40  1  0.08675400  0.36567800  0.41076100  1
  C  C41  1  0.15096000  0.24742100  0.39648500  1
  C  C42  1  0.17743400  0.27598000  0.33807300  1
  C  C43  1  0.24086200  0.31866000  0.61909900  1
  C  C44  1  0.27540800  0.31116500  0.55616400  1
  C  C45  1  0.73380700  0.67203400  0.58365000  1
  C  C46  1  0.78854600  0.67354300  0.63022300  1
  C  C47  1  0.78479300  0.68230800  0.32794600  1
  C  C48  1  0.81282400  0.71501600  0.37224900  1
  C  C49  1  0.23987900  0.23611100  0.29326200  1
  C  C50  1  0.28929900  0.28612000  0.67122000  1
  C  C51  1  0.76528100  0.72291600  0.67581800  1
  C  C52  1  0.72887900  0.71885500  0.28039500  1
  C  C53  1  0.35396300  0.14813000  0.22987400  1
  C  C54  1  0.34150900  0.21597900  0.20410200  1
  C  C55  1  0.27704800  0.26540300  0.23935300  1
  C  C56  1  0.70703500  0.68630200  0.23274800  1
  C  C57  1  0.65604000  0.73326300  0.18842200  1
  C  C58  1  0.63652200  0.80227800  0.20204900  1
  C  C59  1  0.70745400  0.82417500  0.74152600  1
  C  C60  1  0.79454600  0.78339400  0.75285900  1
  C  C61  1  0.82672100  0.72631200  0.71673500  1
  C  C62  1  0.25410900  0.30024500  0.73714900  1
  C  C63  1  0.30844400  0.25391600  0.78028700  1
  C  C64  1  0.38421200  0.20625700  0.75135800  1
  C  C65  1  0.20805900  0.27772400  0.87587900  1
  C  C66  1  0.19960800  0.28945300  0.94544400  1
  C  C67  1  0.93109400  0.74716600  0.45495100  1
  C  C68  1  0.95306600  0.77198400  0.51352100  1
  C  C69  1  0.09572200  0.04864600  0.16274000  1
  C  C70  1  0.11108900  0.04364800  0.23200400  1
  S  S1  1  0.13034100  0.37008600  0.32824900  1
  S  S2  1  0.12604500  0.37449900  0.62822700  1
  S  S3  1  0.89806300  0.60872700  0.62366200  1
  S  S4  1  0.82941400  0.58816200  0.33625100  1
  S  S5  1  0.28415900  0.14176100  0.30222000  1
  S  S6  1  0.68152600  0.81311200  0.27348800  1
  S  S7  1  0.65796800  0.79187500  0.68342000  1
  S  S8  1  0.39501300  0.21623400  0.66509600  1
  O  O1  1  0.60499500  0.02562100  0.03800400  1
  O  O2  1  0.58332100  0.85149300  0.09937600  1
  O  O3  1  0.71275600  0.93641200  0.08734400  1
  O  O4  1  0.57009900  0.92614000  0.17721800  1
  O  O5  1  0.44145400  0.96121100  0.06877600  1
  O  O6  1  0.41819200  0.06358800  0.00639900  1
  O  O7  1  0.47157600  0.09178300  0.15054700  1
  O  O8  1  0.39700700  0.02554800  0.21262600  1
  O  O9  1  0.57644300  0.92111500  0.77411600  1
  O  O10  1  0.71627000  0.92011900  0.79479600  1
  O  O11  1  0.63439800  0.04129600  0.85362300  1
  O  O12  1  0.63689600  0.95138500  0.92899400  1
  O  O13  1  0.35745900  0.02481400  0.82393800  1
  O  O14  1  0.48947900  0.08899500  0.75608100  1
  O  O15  1  0.46450100  0.98655400  0.89541400  1
  O  O16  1  0.43823300  0.14113100  0.84965700  1
  O  O17  1  0.29143800  0.25425300  0.84475200  1
  O  O18  1  0.14018900  0.28413700  0.84922500  1
  O  O19  1  0.90934500  0.68715600  0.45952000  1
  O  O20  1  0.93953700  0.77838700  0.40290500  1
  O  O21  1  0.10714400  0.98968100  0.13318800  1
  O  O22  1  0.07324300  0.10598400  0.13275000  1
