# generated using pymatgen
data_ZnH15C28NO4F3
_symmetry_space_group_name_H-M   'P 1'
_cell_length_a   19.42201000
_cell_length_b   18.26440500
_cell_length_c   15.07217600
_cell_angle_alpha   90.00000000
_cell_angle_beta   90.01638600
_cell_angle_gamma   90.00000000
_symmetry_Int_Tables_number   1
_chemical_formula_structural   ZnH15C28NO4F3
_chemical_formula_sum   'Zn2 H30 C56 N2 O8 F6'
_cell_volume   5346.57472727
_cell_formula_units_Z   2
loop_
 _symmetry_equiv_pos_site_id
 _symmetry_equiv_pos_as_xyz
  1  'x, y, z'
loop_
 _atom_site_type_symbol
 _atom_site_label
 _atom_site_symmetry_multiplicity
 _atom_site_fract_x
 _atom_site_fract_y
 _atom_site_fract_z
 _atom_site_occupancy
  Zn  Zn1  1  0.49992700  0.58329300  0.49992000  1
  Zn  Zn2  1  0.50007300  0.41670700  0.50008100  1
  H  H1  1  0.40307700  0.50241600  0.77213500  1
  H  H2  1  0.59692300  0.49758400  0.22786500  1
  H  H3  1  0.33502900  0.50382700  0.90112800  1
  H  H4  1  0.66497100  0.49617300  0.09887100  1
  H  H5  1  0.32263700  0.50382800  0.05741500  1
  H  H6  1  0.67736300  0.49617200  0.94258300  1
  H  H7  1  0.71931500  0.38297200  0.48659700  1
  H  H8  1  0.28068500  0.61702800  0.51340300  1
  H  H9  1  0.28085500  0.38264900  0.51469800  1
  H  H10  1  0.71914500  0.61735100  0.48530200  1
  H  H11  1  0.84376900  0.38319100  0.49126000  1
  H  H12  1  0.15623200  0.61680900  0.50874000  1
  H  H13  1  0.15629300  0.38267500  0.51236900  1
  H  H14  1  0.84370700  0.61732500  0.48763100  1
  H  H15  1  0.93413800  0.58952800  0.58710000  1
  H  H16  1  0.06586200  0.41047200  0.41290000  1
  H  H17  1  0.05857000  0.58911600  0.59602300  1
  H  H18  1  0.94143000  0.41088400  0.40397600  1
  H  H19  1  0.58464900  0.69923600  0.58648800  1
  H  H20  1  0.41535100  0.30076400  0.41351200  1
  H  H21  1  0.41513100  0.69932000  0.41318700  1
  H  H22  1  0.58487000  0.30067900  0.58681300  1
  H  H23  1  0.58682000  0.83272300  0.58711200  1
  H  H24  1  0.41318000  0.16727700  0.41288800  1
  H  H25  1  0.41305900  0.83282700  0.41262500  1
  H  H26  1  0.58694100  0.16717300  0.58737400  1
  H  H27  1  0.47706400  0.93385600  0.36118100  1
  H  H28  1  0.52293600  0.06614400  0.63881900  1
  H  H29  1  0.52286700  0.93369600  0.63872200  1
  H  H30  1  0.47713300  0.06630400  0.36127800  1
  C  C1  1  0.36549900  0.49992000  0.51207900  1
  C  C2  1  0.63450100  0.50008000  0.48792000  1
  C  C3  1  0.49033700  0.49989800  0.32692000  1
  C  C4  1  0.50966300  0.50010200  0.67307900  1
  C  C5  1  0.57288000  0.49900900  0.82026500  1
  C  C6  1  0.42712100  0.50099100  0.17973500  1
  C  C7  1  0.51209900  0.50020000  0.77008900  1
  C  C8  1  0.48790100  0.49980000  0.22991100  1
  C  C9  1  0.44937400  0.50145700  0.81194300  1
  C  C10  1  0.55062600  0.49854300  0.18805700  1
  C  C11  1  0.44473400  0.50141500  0.90266900  1
  C  C12  1  0.55526600  0.49858500  0.09733000  1
  C  C13  1  0.50314000  0.50004800  0.95401000  1
  C  C14  1  0.49686000  0.49995200  0.04599100  1
  C  C15  1  0.56753500  0.49879800  0.91346400  1
  C  C16  1  0.43246500  0.50120200  0.08653500  1
  C  C17  1  0.38092400  0.50271600  0.94168100  1
  C  C18  1  0.61907600  0.49728400  0.05831900  1
  C  C19  1  0.37447100  0.50265100  0.03232200  1
  C  C20  1  0.62552900  0.49734900  0.96767800  1
  C  C21  1  0.74600000  0.43487700  0.48622400  1
  C  C22  1  0.25400000  0.56512300  0.51377600  1
  C  C23  1  0.25409800  0.43451200  0.51401500  1
  C  C24  1  0.74590200  0.56548800  0.48598500  1
  C  C25  1  0.81696900  0.43496500  0.48819400  1
  C  C26  1  0.18303100  0.56503500  0.51180500  1
  C  C27  1  0.18313300  0.43448900  0.51175200  1
  C  C28  1  0.81686700  0.56551100  0.48824800  1
  C  C29  1  0.85294700  0.50027000  0.48990700  1
  C  C30  1  0.14705300  0.49973000  0.51009300  1
  C  C31  1  0.71000200  0.50015200  0.48556600  1
  C  C32  1  0.28999800  0.49984800  0.51443300  1
  C  C33  1  0.96257400  0.55060500  0.54747300  1
  C  C34  1  0.03742600  0.44939500  0.45252700  1
  C  C35  1  0.03344400  0.55032000  0.55265200  1
  C  C36  1  0.96655600  0.44968000  0.44734800  1
  C  C37  1  0.07144100  0.49969300  0.50524800  1
  C  C38  1  0.92855900  0.50030700  0.49475200  1
  C  C39  1  0.54696000  0.72924300  0.54823900  1
  C  C40  1  0.45304000  0.27075700  0.45176100  1
  C  C41  1  0.45283700  0.72929000  0.45145200  1
  C  C42  1  0.54716300  0.27071000  0.54854800  1
  C  C43  1  0.54767200  0.80472000  0.54912400  1
  C  C44  1  0.45232900  0.19528000  0.45087600  1
  C  C45  1  0.45218200  0.80477400  0.45060400  1
  C  C46  1  0.54781800  0.19522600  0.54939600  1
  C  C47  1  0.49993600  0.84338800  0.49988500  1
  C  C48  1  0.50006400  0.15661200  0.50011500  1
  C  C49  1  0.48623600  0.96230500  0.42290800  1
  C  C50  1  0.51376400  0.03769500  0.57709100  1
  C  C51  1  0.51372500  0.96221500  0.57703500  1
  C  C52  1  0.48627500  0.03778500  0.42296500  1
  C  C53  1  0.50003900  0.07610000  0.50005700  1
  C  C54  1  0.49996100  0.92390000  0.49994300  1
  C  C55  1  0.64347700  0.49817500  0.77713500  1
  C  C56  1  0.35652300  0.50182500  0.22286400  1
  N  N1  1  0.49988000  0.69279700  0.49984900  1
  N  N2  1  0.50012000  0.30720300  0.50015000  1
  O  O1  1  0.39760100  0.56311300  0.50905100  1
  O  O2  1  0.60239900  0.43688700  0.49094900  1
  O  O3  1  0.60227300  0.56320700  0.49082200  1
  O  O4  1  0.39772700  0.43679300  0.50917800  1
  O  O5  1  0.49280400  0.56315700  0.36803300  1
  O  O6  1  0.50719600  0.43684300  0.63196700  1
  O  O7  1  0.50701000  0.56328700  0.63183600  1
  O  O8  1  0.49299000  0.43671300  0.36816300  1
  F  F1  1  0.64150500  0.49914700  0.68585000  1
  F  F2  1  0.67828100  0.43536100  0.80206100  1
  F  F3  1  0.68019500  0.55925400  0.80378800  1
  F  F4  1  0.35849600  0.50085300  0.31415000  1
  F  F5  1  0.31980500  0.44074700  0.19621100  1
  F  F6  1  0.32171900  0.56463900  0.19793900  1
