# Generated by REPEAT Assigner based on pymatgen
data_DB0-m3_o9_o14_f0_nbo.sym.37
_audit_creation_date              2022-05-24
_audit_creation_method            REPEAT_Assigner
_cell_length_a                    19.119340
_cell_length_b                    18.887839
_cell_length_c                    18.887599
_cell_angle_alpha                 109.223589
_cell_angle_beta                  109.721658
_cell_angle_gamma                 109.715013
_cell_volume                      5234.475394
_symmetry_space_group_name_H-M    P1
_symmetry_Int_Tables_number       1
loop_
    _symmetry_equiv_pos_site_id
    _symmetry_equiv_pos_as_xyz
    1  x,y,z
loop_
    _atom_site_type_symbol
    _atom_site_label
    _atom_site_fract_x
    _atom_site_fract_y
    _atom_site_fract_z
    _atom_type_partial_charge
    C   C1    0.378241  0.507419  0.387234  0.607515
    C   C2    0.786965  0.826045  0.829404  -0.177601
    C   C3    0.335418  0.340222  0.817901  -0.248007
    C   C4    0.072505  0.322932  0.814637  -0.226424
    C   C5    0.994343  0.308141  0.808206  0.237749
    C   C6    0.919948  0.231022  0.740138  -0.178446
    C   C7    0.925675  0.170877  0.680091  -0.180050
    C   C8    0.004256  0.184889  0.688055  0.116570
    C   C9    0.078465  0.261310  0.756795  -0.109203
    C   C10   0.781206  0.137350  0.721099  -0.251271
    C   C11   0.699738  0.118468  0.706601  -0.065452
    C   C12   0.670592  0.174023  0.696710  -0.220581
    C   C13   0.818975  0.823701  0.576136  -0.215088
    C   C14   0.722796  0.248295  0.700903  0.034579
    C   C15   0.804326  0.267320  0.715595  -0.189255
    C   C16   0.834253  0.212486  0.726861  0.280715
    C   C17   0.427756  0.375556  0.849215  0.797653
    C   C18   0.561648  0.489718  0.891455  0.489581
    C   C19   0.596559  0.576591  0.895331  -0.228240
    C   C20   0.812454  0.811295  0.497579  0.144438
    C   C21   0.740289  0.739341  0.421146  -0.124866
    C   C22   0.679066  0.678996  0.425625  -0.205089
    C   C23   0.685760  0.691089  0.504238  0.214764
    C   C24   0.755560  0.765729  0.580387  -0.145611
    C   C25   0.650070  0.706982  0.273252  -0.134495
    C   C26   0.634928  0.688070  0.190707  -0.137724
    C   C27   0.695863  0.684001  0.168859  -0.091357
    C   C28   0.617213  0.624691  0.503441  0.576301
    C   C29   0.771927  0.698833  0.229606  -0.126817
    C   C30   0.787396  0.718410  0.312374  -0.042587
    C   C31   0.726802  0.723156  0.334807  0.146967
    C   C32   0.438520  0.811004  0.504097  -0.142424
    C   C33   0.371113  0.728473  0.440442  -0.150087
    C   C34   0.385872  0.668365  0.392215  0.218245
    C   C35   0.468216  0.692191  0.406408  -0.104039
    C   C36   0.535466  0.774939  0.469736  -0.134420
    C   C37   0.520726  0.834186  0.518880  -0.132693
    C   C38   0.248251  0.575695  0.255757  -0.167852
    C   C39   0.619466  0.499498  0.616305  0.681213
    C   C40   0.179940  0.495967  0.186419  0.124822
    C   C41   0.176749  0.420715  0.184145  -0.160661
    C   C42   0.242269  0.426855  0.250599  -0.197597
    C   C43   0.310437  0.506483  0.320049  0.219487
    C   C44   0.313338  0.581799  0.322794  -0.184835
    C   C45   0.059907  0.273876  0.126262  -0.169368
    C   C46   0.997121  0.191125  0.058581  -0.109762
    C   C47   0.983277  0.167705  0.975756  -0.128591
    C   C48   0.032467  0.226963  0.960684  -0.116108
    C   C49   0.094842  0.309989  0.028179  -0.170261
    C   C50   0.379724  0.381313  0.501564  0.579319
    C   C51   0.108152  0.333999  0.111135  0.279271
    C   C52   0.203777  0.502348  0.572032  -0.066296
    C   C53   0.222546  0.438492  0.574219  -0.315015
    C   C54   0.229797  0.388993  0.507603  0.342522
    C   C55   0.215750  0.402208  0.437512  -0.141334
    C   C56   0.196221  0.465627  0.435082  -0.139842
    C   C57   0.190729  0.516015  0.502521  -0.125435
    C   C58   0.188097  0.253894  0.511597  -0.211859
    C   C59   0.198055  0.184629  0.510653  0.217095
    C   C60   0.268220  0.180652  0.507652  -0.167903
    C   C61   0.785408  0.883395  0.799736  -0.075099
    C   C62   0.325804  0.245132  0.503787  -0.208310
    C   C63   0.315425  0.314129  0.504115  0.182122
    C   C64   0.246271  0.319006  0.509119  -0.203781
    C   C65   0.357078  0.123771  0.567292  -0.170801
    C   C66   0.372055  0.056404  0.562929  -0.160994
    C   C67   0.312283  0.973190  0.494635  -0.101332
    C   C68   0.237665  0.957417  0.430590  -0.092959
    C   C69   0.222173  0.024585  0.435295  -0.147645
    C   C70   0.281581  0.107942  0.504184  0.249433
    C   C71   0.771467  0.511699  0.606932  -0.211334
    C   C72   0.774972  0.863357  0.718431  -0.255267
    C   C73   0.839248  0.510114  0.597588  -0.131603
    C   C74   0.896207  0.498598  0.653271  -0.035824
    C   C75   0.887667  0.492259  0.720665  -0.247050
    C   C76   0.821518  0.497316  0.733352  0.101846
    C   C77   0.760090  0.502499  0.673045  0.118075
    C   C78   0.689590  0.500600  0.681014  0.019635
    C   C79   0.682752  0.496159  0.749808  -0.273319
    C   C80   0.744239  0.492725  0.810355  -0.032537
    C   C81   0.814382  0.494674  0.803723  0.099308
    C   C82   0.006991  0.875321  0.387660  0.433417
    C   C83   0.765756  0.785708  0.666327  0.269734
    C   C84   0.880880  0.877564  0.498401  0.650433
    C   C85   0.005971  0.119181  0.621602  0.587179
    C   C86   0.131282  0.116360  0.509593  0.593886
    C   C87   0.993915  0.374159  0.875824  0.590262
    C   C88   0.113044  0.494122  0.117359  0.657536
    C   C89   0.998247  0.617866  0.115187  0.618001
    C   C90   0.880564  0.496720  0.873654  0.633687
    C   C91   0.105633  0.755050  0.540910  -0.050671
    C   C92   0.096912  0.771633  0.473513  -0.241246
    C   C93   0.018646  0.723991  0.397213  0.313497
    C   C94   0.769601  0.729516  0.697229  -0.188134
    C   C95   0.950861  0.656099  0.386862  -0.127457
    C   C96   0.959496  0.639601  0.454297  -0.174164
    C   C97   0.036724  0.689451  0.531558  -0.109987
    C   C98   0.002782  0.674510  0.253694  -0.161056
    C   C99   0.998931  0.684110  0.183464  0.105452
    C   C100  0.000189  0.757467  0.181857  -0.105170
    C   C101  0.002344  0.817982  0.249216  -0.218082
    C   C102  0.007885  0.809367  0.320365  0.430062
    C   C103  0.010549  0.737702  0.323593  -0.229950
    C   C104  0.058667  0.850031  0.126776  -0.157916
    C   C105  0.778983  0.749110  0.778059  0.024868
    C   C106  0.055570  0.865933  0.059911  -0.127324
    C   C107  0.990405  0.804650  0.975769  -0.096533
    C   C108  0.928096  0.727752  0.958674  -0.025093
    C   C109  0.930787  0.711844  0.025440  -0.158531
    C   C110  0.996928  0.772470  0.109730  0.195617
    C   C111  0.291428  0.273985  0.829352  -0.035650
    C   C112  0.206511  0.245998  0.806562  -0.194258
    C   C113  0.164106  0.281778  0.769465  0.332436
    C   C114  0.207603  0.346971  0.756861  -0.230345
    C   C115  0.292899  0.376084  0.780838  -0.000752
    H   H1    0.794636  0.841451  0.892933  0.097149
    H   H2    0.683845  0.668735  0.104037  0.108853
    H   H3    0.819221  0.694580  0.212096  0.064435
    H   H4    0.846674  0.729068  0.359340  0.079344
    H   H5    0.573519  0.898992  0.568529  0.107997
    H   H6    0.426857  0.857653  0.542251  0.123493
    H   H7    0.306747  0.710742  0.429042  0.104755
    H   H8    0.480090  0.646497  0.367255  0.095104
    H   H9    0.599758  0.793618  0.480577  0.120434
    H   H10   0.251221  0.634442  0.257458  0.122425
    H   H11   0.240140  0.368065  0.247897  0.129497
    H   H12   0.791871  0.943887  0.840012  0.111196
    H   H13   0.070666  0.291768  0.191155  0.087156
    H   H14   0.958993  0.144464  0.070556  0.108134
    H   H15   0.934361  0.102692  0.922759  0.102676
    H   H16   0.022428  0.208044  0.895949  0.110372
    H   H17   0.133987  0.355728  0.016059  0.098216
    H   H18   0.175475  0.565728  0.500536  0.094410
    H   H19   0.198830  0.541392  0.624650  0.097204
    H   H20   0.232296  0.427836  0.628739  0.188817
    H   H21   0.218650  0.362047  0.383765  0.106119
    H   H22   0.184556  0.475528  0.379996  0.131145
    H   H23   0.772834  0.908244  0.695209  0.137738
    H   H24   0.133308  0.256951  0.513603  0.125298
    H   H25   0.379829  0.241344  0.500359  0.132502
    H   H26   0.404418  0.189014  0.620760  0.129614
    H   H27   0.430916  0.068932  0.612827  0.127135
    H   H28   0.324202  0.920415  0.490892  0.100351
    H   H29   0.191613  0.892361  0.376368  0.066794
    H   H30   0.164121  0.011972  0.384149  0.111106
    H   H31   0.627737  0.493646  0.755381  0.191766
    H   H32   0.729436  0.522033  0.561943  0.160590
    H   H33   0.847031  0.516925  0.545677  0.120029
    H   H34   0.764901  0.669905  0.657995  0.075989
    H   H35   0.948280  0.495191  0.644616  0.088831
    H   H36   0.933171  0.481317  0.761104  0.154187
    H   H37   0.738176  0.490531  0.864563  0.082100
    H   H38   0.043590  0.676294  0.584313  0.103992
    H   H39   0.166714  0.793113  0.600884  0.081914
    H   H40   0.151607  0.821936  0.480472  0.129752
    H   H41   0.890576  0.615992  0.325927  0.079252
    H   H42   0.905848  0.587177  0.446371  0.121892
    H   H43   0.004205  0.618634  0.256213  0.117222
    H   H44   0.000549  0.873649  0.246509  0.104892
    H   H45   0.779831  0.703945  0.801012  0.074155
    H   H46   0.110370  0.898250  0.192563  0.097773
    H   H47   0.104362  0.926445  0.073498  0.110004
    H   H48   0.987917  0.816998  0.923251  0.082284
    H   H49   0.876961  0.679899  0.892813  0.039934
    H   H50   0.880645  0.651978  0.011443  0.103748
    H   H51   0.323762  0.246006  0.859552  0.118215
    H   H52   0.173882  0.197602  0.820151  0.097586
    H   H53   0.175433  0.377042  0.730256  0.098521
    H   H54   0.326206  0.428163  0.771653  0.069126
    H   H55   0.130821  0.382174  0.867992  0.131877
    H   H56   0.874061  0.880779  0.635421  0.132459
    H   H57   0.867684  0.111761  0.626044  0.131652
    H   H58   0.803719  0.093579  0.728993  0.136237
    H   H59   0.658669  0.060017  0.702935  0.105914
    H   H60   0.606659  0.159096  0.685168  0.135957
    H   H61   0.699682  0.291463  0.692295  0.030431
    H   H62   0.844414  0.324850  0.717420  0.077288
    H   H63   0.577157  0.447153  0.850888  -0.061074
    H   H64   0.591733  0.500397  0.958338  -0.050688
    H   H65   0.564751  0.567096  0.829168  0.044966
    H   H66   0.667008  0.606451  0.921668  0.023060
    H   H67   0.624112  0.621853  0.366320  0.138793
    H   H68   0.583288  0.619928  0.938089  0.065162
    H   H69   0.601777  0.709864  0.289719  0.091808
    H   H70   0.575037  0.676031  0.142973  0.107169
    O   O1    0.410686  0.561776  0.469634  -0.612580
    O   O2    0.956212  0.905388  0.362575  -0.648196
    O   O3    0.961256  0.905283  0.552796  -0.695995
    O   O4    0.859213  0.907945  0.446591  -0.642813
    O   O5    0.058225  0.090809  0.646578  -0.611907
    O   O6    0.951947  0.088413  0.539618  -0.653549
    O   O7    0.153230  0.085176  0.560794  -0.633836
    O   O8    0.051131  0.091028  0.457995  -0.679529
    O   O9    0.047004  0.456118  0.905610  -0.702471
    O   O10   0.942434  0.349195  0.905072  -0.577623
    O   O11   0.137757  0.549619  0.091444  -0.688579
    O   O12   0.402449  0.451474  0.361030  -0.704167
    O   O13   0.031846  0.439026  0.085669  -0.654905
    O   O14   0.050012  0.642813  0.086310  -0.627637
    O   O15   0.947522  0.535998  0.087842  -0.678991
    O   O16   0.961700  0.552369  0.905961  -0.658701
    O   O17   0.855560  0.443588  0.901996  -0.688882
    O   O18   0.463343  0.338250  0.873010  -0.580341
    O   O19   0.474161  0.451808  0.856032  -0.472135
    O   O20   0.589572  0.649421  0.556558  -0.587411
    O   O21   0.586618  0.542684  0.449332  -0.701622
    O   O22   0.592803  0.553176  0.643192  -0.677054
    O   O23   0.586171  0.444626  0.534162  -0.678328
    O   O24   0.408749  0.463195  0.553967  -0.637802
    O   O25   0.407731  0.356522  0.448787  -0.652972
    O   O26   0.059086  0.904555  0.469499  -0.568893
    Zn  Zn1   0.501162  0.572473  0.573807  1.250566
    Zn  Zn2   0.495023  0.433321  0.430307  1.304352
    Zn  Zn3   0.072696  0.995940  0.575004  1.256054
    Zn  Zn4   0.939892  0.998594  0.434027  1.285935
    Zn  Zn5   0.066552  0.565699  0.997367  1.283784
    Zn  Zn6   0.926879  0.426413  0.995006  1.271422
