data_DB0-m29_o96_o1490_f0_pts.sym.100_repeat
_audit_creation_date              2024-02-24
_audit_creation_method            'Materials Studio'
_symmetry_space_group_name_H-M    'P1'
_symmetry_Int_Tables_number       1
_symmetry_cell_setting            triclinic
loop_
_symmetry_equiv_pos_as_xyz
  x,y,z
_cell_length_a                    17.3233
_cell_length_b                    11.9325
_cell_length_c                    18.9732
_cell_angle_alpha                 88.7698
_cell_angle_beta                  90.6189
_cell_angle_gamma                 108.7734
loop_
_atom_site_label
_atom_site_type_symbol
_atom_site_fract_x
_atom_site_fract_y
_atom_site_fract_z
_atom_site_U_iso_or_equiv
_atom_site_adp_type
_atom_site_occupancy
C1     C     0.22291   0.01187   0.10364   0.00000  Uiso   1.00
C2     C     0.16838   0.97235   0.15675   0.00000  Uiso   1.00
C3     C     0.09309   0.96823   0.13066   0.00000  Uiso   1.00
N1     N     0.09927   0.00019   0.06173   0.00000  Uiso   1.00
C4     C     0.17892   0.02613   0.04489   0.00000  Uiso   1.00
C5     C     0.02558   0.94444   0.16930   0.00000  Uiso   1.00
C6     C     0.94881   0.95866   0.14386   0.00000  Uiso   1.00
C7     C     0.89407   0.98720   0.18619   0.00000  Uiso   1.00
C8     C     0.82992   0.98918   0.14537   0.00000  Uiso   1.00
C9     C     0.84679   0.96302   0.07758   0.00000  Uiso   1.00
N2     N     0.91938   0.94282   0.07739   0.00000  Uiso   1.00
C10    C     0.79519   0.96227   0.01521   0.00000  Uiso   1.00
C11    C     0.82524   0.98979   0.95016   0.00000  Uiso   1.00
C12    C     0.78150   0.00603   0.89165   0.00000  Uiso   1.00
C13    C     0.83594   0.04462   0.83836   0.00000  Uiso   1.00
C14    C     0.91097   0.04614   0.86407   0.00000  Uiso   1.00
N3     N     0.90465   0.01370   0.93296   0.00000  Uiso   1.00
C15    C     0.97823   0.06745   0.82516   0.00000  Uiso   1.00
C16    C     0.05469   0.05200   0.85086   0.00000  Uiso   1.00
C17    C     0.10916   0.02119   0.80919   0.00000  Uiso   1.00
C18    C     0.17314   0.01959   0.85049   0.00000  Uiso   1.00
C19    C     0.15665   0.04874   0.91763   0.00000  Uiso   1.00
N4     N     0.08434   0.06981   0.91722   0.00000  Uiso   1.00
C20    C     0.20886   0.05292   0.97987   0.00000  Uiso   1.00
H1     H     0.02920   0.92547   0.22495   0.00000  Uiso   1.00
H2     H     0.73161   0.95164   0.02404   0.00000  Uiso   1.00
H3     H     0.97460   0.08581   0.76942   0.00000  Uiso   1.00
H4     H     0.27264   0.06486   0.97112   0.00000  Uiso   1.00
H5     H     0.94582   0.91397   0.03541   0.00000  Uiso   1.00
H6     H     0.05847   0.10091   0.95867   0.00000  Uiso   1.00
C21    C     0.10478   0.99161   0.73954   0.00000  Uiso   1.00
C22    C     0.16855   0.96150   0.71108   0.00000  Uiso   1.00
C23    C     0.23765   0.96640   0.75223   0.00000  Uiso   1.00
C24    C     0.23870   0.99277   0.82357   0.00000  Uiso   1.00
C25    C     0.30516   0.03181   0.11417   0.00000  Uiso   1.00
C26    C     0.32976   0.00530   0.18048   0.00000  Uiso   1.00
C27    C     0.27275   0.95957   0.23353   0.00000  Uiso   1.00
C28    C     0.19142   0.94469   0.22250   0.00000  Uiso   1.00
C29    C     0.89921   0.01637   0.25590   0.00000  Uiso   1.00
C30    C     0.83513   0.04404   0.28574   0.00000  Uiso   1.00
C31    C     0.76589   0.04005   0.24497   0.00000  Uiso   1.00
C32    C     0.76444   0.01481   0.17331   0.00000  Uiso   1.00
C33    C     0.69934   0.98738   0.88130   0.00000  Uiso   1.00
C34    C     0.67459   0.01443   0.81512   0.00000  Uiso   1.00
C35    C     0.73161   0.06018   0.76206   0.00000  Uiso   1.00
C36    C     0.81290   0.07360   0.77285   0.00000  Uiso   1.00
H7     H     0.05229   0.98923   0.70761   0.00000  Uiso   1.00
H8     H     0.29058   0.99602   0.85652   0.00000  Uiso   1.00
H9     H     0.34930   0.06680   0.07285   0.00000  Uiso   1.00
H10    H     0.29191   0.93978   0.28538   0.00000  Uiso   1.00
H11    H     0.14842   0.91180   0.26484   0.00000  Uiso   1.00
H12    H     0.95295   0.02156   0.28681   0.00000  Uiso   1.00
H13    H     0.71257   0.01246   0.14058   0.00000  Uiso   1.00
H14    H     0.65522   0.95177   0.92255   0.00000  Uiso   1.00
H15    H     0.71235   0.08011   0.71027   0.00000  Uiso   1.00
H16    H     0.85589   0.10589   0.73043   0.00000  Uiso   1.00
O1     O     0.62758   0.04763   0.23885   0.00000  Uiso   1.00
C37    C     0.69176   0.05188   0.27755   0.00000  Uiso   1.00
O2     O     0.55825   0.80647   0.31980   0.00000  Uiso   1.00
O3     O     0.68430   0.04916   0.34632   0.00000  Uiso   1.00
O4     O     0.51280   0.92695   0.38673   0.00000  Uiso   1.00
C38    C     0.52533   0.82511   0.37849   0.00000  Uiso   1.00
Fe1    Fe    0.53448   0.03217   0.30212   0.00000  Uiso   1.00
O5     O     0.43220   0.95921   0.24636   0.00000  Uiso   1.00
O6     O     0.46974   0.13043   0.18113   0.00000  Uiso   1.00
C39    C     0.41548   0.02857   0.19835   0.00000  Uiso   1.00
O7     O     0.56118   0.19825   0.33664   0.00000  Uiso   1.00
O8     O     0.42495   0.13114   0.35125   0.00000  Uiso   1.00
C40    C     0.49512   0.21288   0.36300   0.00000  Uiso   1.00
C41    C     0.50113   0.20898   0.48947   0.00000  Uiso   1.00
C42    C     0.49881   0.25538   0.55466   0.00000  Uiso   1.00
C43    C     0.50063   0.37134   0.56014   0.00000  Uiso   1.00
C44    C     0.50288   0.27536   0.42956   0.00000  Uiso   1.00
C45    C     0.50244   0.39068   0.43429   0.00000  Uiso   1.00
C46    C     0.50256   0.44144   0.49970   0.00000  Uiso   1.00
C47    C     0.50369   0.55983   0.50242   0.00000  Uiso   1.00
C48    C     0.50222   0.61619   0.56627   0.00000  Uiso   1.00
C49    C     0.50552   0.73273   0.56663   0.00000  Uiso   1.00
N5     N     0.49916   0.45157   0.37482   0.00000  Uiso   1.00
C50    C     0.50006   0.56433   0.37590   0.00000  Uiso   1.00
C51    C     0.50662   0.62351   0.43910   0.00000  Uiso   1.00
C52    C     0.51393   0.74414   0.44055   0.00000  Uiso   1.00
C53    C     0.51269   0.79549   0.50468   0.00000  Uiso   1.00
H17    H     0.49357   0.60500   0.32613   0.00000  Uiso   1.00
H18    H     0.49897   0.11816   0.48381   0.00000  Uiso   1.00
H19    H     0.51934   0.88832   0.50804   0.00000  Uiso   1.00
H20    H     0.49918   0.40248   0.61253   0.00000  Uiso   1.00
H21    H     0.50015   0.57461   0.61726   0.00000  Uiso   1.00
O9     O     0.56925   0.05244   0.74776   0.00000  Uiso   1.00
O10    O     0.53589   0.88514   0.81630   0.00000  Uiso   1.00
C54    C     0.58841   0.98737   0.79715   0.00000  Uiso   1.00
O11    O     0.44667   0.80048   0.66423   0.00000  Uiso   1.00
O12    O     0.57823   0.89326   0.63703   0.00000  Uiso   1.00
C55    C     0.51312   0.79980   0.63143   0.00000  Uiso   1.00
O13    O     0.48649   0.21582   0.68048   0.00000  Uiso   1.00
O14    O     0.37406   0.94932   0.75817   0.00000  Uiso   1.00
C56    C     0.31156   0.95395   0.71960   0.00000  Uiso   1.00
O15    O     0.48323   0.06612   0.60694   0.00000  Uiso   1.00
C57    C     0.49073   0.17757   0.61676   0.00000  Uiso   1.00
O16    O     0.31991   0.96207   0.65089   0.00000  Uiso   1.00
Fe2    Fe    0.46721   0.96793   0.69431   0.00000  Uiso   1.00
N6     N     0.16241   0.92818   0.63974   0.00000  Uiso   1.00
C58    C     0.13832   0.80991   0.63061   0.00000  Uiso   1.00
O17    O     0.14367   0.74396   0.67905   0.00000  Uiso   1.00
C59    C     0.10458   0.75873   0.56139   0.00000  Uiso   1.00
H22    H     0.13423   0.97217   0.60637   0.00000  Uiso   1.00
H23    H     0.10571   0.82978   0.52239   0.00000  Uiso   1.00
H24    H     0.04086   0.69996   0.56860   0.00000  Uiso   1.00
H25    H     0.14184   0.70628   0.54127   0.00000  Uiso   1.00
N7     N     0.84475   0.08526   0.35566   0.00000  Uiso   1.00
C60    C     0.84120   0.00348   0.40700   0.00000  Uiso   1.00
O18    O     0.84138   0.90471   0.39200   0.00000  Uiso   1.00
C61    C     0.83564   0.03255   0.48248   0.00000  Uiso   1.00
H26    H     0.82867   0.15824   0.36818   0.00000  Uiso   1.00
H27    H     0.83704   0.12558   0.48747   0.00000  Uiso   1.00
H28    H     0.88789   0.01998   0.51209   0.00000  Uiso   1.00
H29    H     0.77795   0.97257   0.50504   0.00000  Uiso   1.00
