# Generated by REPEAT Assigner based on pymatgen
data_DB0-m29_o89_o53_f0_pts.sym.53
_audit_creation_date              2022-05-24
_audit_creation_method            REPEAT_Assigner
_cell_length_a                    14.064727
_cell_length_b                    9.399902
_cell_length_c                    24.118760
_cell_angle_alpha                 84.418104
_cell_angle_beta                  89.510156
_cell_angle_gamma                 113.116239
_cell_volume                      2914.939506
_symmetry_space_group_name_H-M    P1
_symmetry_Int_Tables_number       1
loop_
    _symmetry_equiv_pos_site_id
    _symmetry_equiv_pos_as_xyz
    1  x,y,z
loop_
    _atom_site_type_symbol
    _atom_site_label
    _atom_site_fract_x
    _atom_site_fract_y
    _atom_site_fract_z
    _atom_type_partial_charge
    C   C1   0.840847  0.008805  0.067015  -0.248107
    C   C2   0.753836  0.018256  0.043817  0.154058
    C   C3   0.749434  0.032857  0.986354  -0.110122
    C   C4   0.833825  0.047461  0.953362  -0.025027
    C   C5   0.922529  0.041115  0.976443  -0.074677
    C   C6   0.923156  0.012444  0.033816  0.250031
    C   C7   0.008315  0.055846  0.943078  -0.014379
    C   C8   0.086610  0.018373  0.967085  0.096020
    C   C9   0.086736  0.988935  0.024375  0.205686
    C   C10  0.006296  0.989824  0.057898  -0.253829
    C   C11  0.165674  0.010719  0.934178  -0.211724
    C   C12  0.249512  0.990941  0.957585  0.132534
    C   C13  0.252460  0.971727  0.015081  -0.007265
    C   C14  0.169136  0.962643  0.047851  -0.265344
    H   H1   0.842625  0.998122  0.111788  0.151554
    H   H2   0.823076  0.046396  0.909255  0.085022
    H   H3   0.163181  0.018768  0.889444  0.167189
    H   H4   0.174703  0.945857  0.092347  0.163550
    N   N1   0.072625  0.056353  0.151067  -0.199827
    C   C15  0.049974  0.987873  0.203854  -0.108791
    C   C16  0.968670  0.844466  0.205024  -0.147814
    C   C17  0.940985  0.825460  0.150627  -0.223490
    C   C18  0.006587  0.958205  0.118593  0.297620
    H   H5   0.130444  0.165147  0.137848  0.288324
    H   H6   0.090301  0.039237  0.239512  0.149841
    H   H7   0.933580  0.762883  0.241468  0.157132
    H   H8   0.880131  0.726219  0.136039  0.163421
    O   O1   0.591279  0.042736  0.062582  -0.411305
    C   C19  0.667528  0.007422  0.081273  0.441296
    O   O2   0.484366  0.710460  0.114973  -0.414767
    O   O3   0.667350  0.964408  0.134690  -0.505345
    O   O4   0.466950  0.836608  0.187280  -0.435594
    C   C20  0.474502  0.714130  0.168915  0.459008
    Fe  Fe1  0.483682  0.994005  0.123032  1.380237
    O   O5   0.346085  0.901286  0.088889  -0.630778
    O   O6   0.432704  0.110894  0.026525  -0.489354
    C   C21  0.348101  0.988216  0.042396  0.662748
    O   O7   0.525907  0.200801  0.152968  -0.586610
    O   O8   0.418098  0.054426  0.226619  -0.540075
    C   C22  0.477208  0.190768  0.200870  0.568981
    O   O9   0.474730  0.796312  0.848727  -0.579384
    O   O10  0.582113  0.943149  0.774988  -0.521743
    C   C23  0.523437  0.806652  0.800784  0.560648
    O   O11  0.653575  0.097328  0.912730  -0.604526
    O   O12  0.569538  0.886072  0.975077  -0.487902
    C   C24  0.652951  0.010563  0.959026  0.663406
    O   O13  0.335310  0.039831  0.866808  -0.499610
    O   O14  0.532839  0.160217  0.813946  -0.436881
    C   C25  0.527979  0.284408  0.832351  0.449808
    O   O15  0.408223  0.954496  0.938734  -0.417303
    C   C26  0.334028  0.995145  0.920150  0.423229
    O   O16  0.520266  0.289388  0.886333  -0.409722
    Fe  Fe2  0.516182  0.003462  0.878404  1.383379
    C   C27  0.561997  0.454310  0.386282  0.417790
    N   N2   0.486135  0.481641  0.359297  -0.117304
    C   C28  0.416273  0.516962  0.387279  0.412383
    C   C29  0.421179  0.524733  0.444252  -0.076385
    C   C30  0.497787  0.496028  0.472285  0.088006
    C   C31  0.568730  0.460729  0.443196  -0.104618
    C   C32  0.349585  0.559649  0.473461  -0.070532
    C   C33  0.355203  0.566099  0.530253  -0.053282
    C   C34  0.432494  0.537805  0.558220  -0.101985
    C   C35  0.503463  0.502581  0.529124  0.089515
    C   C36  0.580088  0.473918  0.557152  -0.075530
    C   C37  0.651694  0.439028  0.527943  -0.067622
    C   C38  0.646037  0.432479  0.471158  -0.052185
    C   C39  0.439164  0.544059  0.615147  0.421654
    N   N3   0.515051  0.516774  0.642128  -0.118975
    C   C40  0.584997  0.481674  0.614122  0.405737
    O   O17  0.632878  0.424349  0.357384  -0.460236
    O   O18  0.339933  0.540190  0.359881  -0.470561
    H   H9   0.288574  0.582392  0.452522  0.136342
    H   H10  0.298448  0.593871  0.552151  0.124863
    O   O19  0.368187  0.573781  0.644055  -0.464056
    O   O20  0.661422  0.458631  0.641495  -0.462729
    H   H11  0.712718  0.416315  0.548878  0.135456
    H   H12  0.702778  0.404672  0.449262  0.123451
    C   C41  0.524811  0.405244  0.736603  -0.251768
    H   H13  0.523723  0.301836  0.720081  0.195075
    C   C42  0.525308  0.413136  0.793607  0.141038
    C   C43  0.520205  0.542147  0.814416  -0.216731
    C   C44  0.520148  0.665734  0.778582  0.160624
    C   C45  0.522455  0.659191  0.721836  -0.276987
    H   H14  0.523581  0.757048  0.693884  0.182085
    C   C46  0.521552  0.527324  0.700715  0.239388
    C   C47  0.476737  0.593063  0.264752  -0.247193
    H   H15  0.478003  0.696653  0.281206  0.196865
    C   C48  0.476669  0.585193  0.207747  0.112764
    C   C49  0.481559  0.455911  0.187050  -0.182151
    C   C50  0.480906  0.332017  0.222983  0.148158
    C   C51  0.478398  0.338709  0.279713  -0.268200
    H   H16  0.476922  0.240766  0.307739  0.180028
    C   C52  0.479593  0.470863  0.300728  0.227103
    H   H17  0.520216  0.549945  0.858811  0.145638
    H   H18  0.481748  0.448078  0.142659  0.126701
    C   C53  0.023384  0.126312  0.883052  0.293320
    O   O21  0.121241  0.247006  0.874554  -0.516935
    H   H19  0.967815  0.178495  0.870913  0.018661
    H   H20  0.016397  0.035998  0.855149  -0.021805
    H   H21  0.132257  0.269280  0.833494  0.361695
