# Generated by REPEAT Assigner based on pymatgen
data_DB0-m2_o1_o24_f0_pcu.sym.53_sqe
_audit_creation_date              2022-05-24
_audit_creation_method            REPEAT_Assigner
_cell_length_a                    11.011128
_cell_length_b                    9.464672
_cell_length_c                    10.693325
_cell_angle_alpha                 90.000000
_cell_angle_beta                  90.012273
_cell_angle_gamma                 90.000000
_cell_volume                      1114.423161
_symmetry_space_group_name_H-M    P1
_symmetry_Int_Tables_number       1
loop_
    _symmetry_equiv_pos_site_id
    _symmetry_equiv_pos_as_xyz
    1  x,y,z
loop_
    _atom_site_type_symbol
    _atom_site_label
    _atom_site_fract_x
    _atom_site_fract_y
    _atom_site_fract_z
    _atom_type_partial_charge
    O   O1   0.324462  0.623186  0.493244  -0.483852
    O   O2   0.675516  0.377042  0.507221  -0.464293
    O   O3   0.677474  0.618725  0.495711  -0.418390
    O   O4   0.322451  0.381510  0.504605  -0.432620
    C   C1   0.870663  0.497373  0.496962  -0.121560
    C   C2   0.128332  0.502780  0.503634  -0.112961
    C   C3   0.264535  0.502936  0.501059  0.605440
    C   C4   0.734760  0.497230  0.499279  0.600708
    O   O5   0.502033  0.618258  0.316801  -0.537922
    O   O6   0.501196  0.381153  0.683309  -0.531695
    O   O7   0.498576  0.623157  0.680131  -0.627778
    O   O8   0.504608  0.376098  0.319880  -0.636836
    C   C5   0.501475  0.496303  0.260081  0.625433
    C   C6   0.498257  0.502882  0.740260  0.602937
    Cu  Cu1  0.501139  0.641506  0.498053  0.756779
    Cu  Cu2  0.499002  0.358625  0.502818  0.751945
    N   N1   0.502882  0.853544  0.495988  -0.031702
    N   N2   0.496954  0.146834  0.504004  -0.026931
    C   C7   0.394335  0.548003  0.042244  -0.106684
    C   C8   0.605528  0.451800  0.957811  -0.126602
    C   C9   0.482968  0.632441  0.961536  -0.104307
    C   C10  0.516912  0.367360  0.038420  -0.077680
    C   C11  0.413396  0.421194  0.958400  0.189808
    C   C12  0.586557  0.578599  0.041664  0.220237
    H   H1   0.304946  0.583311  0.077891  0.079219
    H   H2   0.695174  0.416813  0.922560  0.082504
    H   H3   0.470890  0.742806  0.928822  0.082473
    H   H4   0.529502  0.257303  0.071254  0.078425
    C   C13  0.500271  0.503960  0.879273  0.147610
    C   C14  0.499605  0.495684  0.121060  0.114780
    C   C15  0.432756  0.074478  0.418124  0.102859
    C   C16  0.569547  0.926029  0.580606  0.095576
    C   C17  0.567003  0.071924  0.584828  0.067634
    C   C18  0.434776  0.928629  0.414282  0.077421
    C   C19  0.063608  0.378421  0.523321  -0.036758
    C   C20  0.935662  0.621635  0.477082  -0.028343
    C   C21  0.938545  0.374998  0.516736  0.143742
    C   C22  0.060711  0.625056  0.483688  0.133691
    C   C23  0.352981  0.146242  0.332932  0.346932
    N   N3   0.288625  0.204660  0.264877  -0.346914
    C   C24  0.648666  0.853853  0.666225  0.348724
    N   N4   0.712481  0.795598  0.735030  -0.345917
    C   C25  0.635972  0.139378  0.681375  0.291863
    N   N5   0.692956  0.190698  0.760253  -0.316594
    C   C26  0.364692  0.861061  0.318414  0.285380
    N   N6   0.307124  0.808362  0.240796  -0.313977
    C   C27  0.315492  0.333706  0.907881  0.141266
    N   N7   0.237950  0.264758  0.867778  -0.367922
    C   C28  0.684525  0.666087  0.092097  0.135334
    N   N8   0.761939  0.735173  0.132288  -0.367420
    C   C29  0.121705  0.249007  0.559347  0.382134
    N   N9   0.169181  0.145590  0.589906  -0.382561
    C   C30  0.877821  0.751276  0.440628  0.371884
    N   N10  0.831243  0.855309  0.409908  -0.377186
    C   C31  0.885395  0.237209  0.525248  0.194244
    N   N11  0.845654  0.124497  0.530382  -0.266396
    C   C32  0.113768  0.762722  0.474571  0.204894
    N   N12  0.153249  0.875511  0.469010  -0.270075
