# Generated by REPEAT Assigner based on pymatgen
data_DB0-m3_o2_o15_f0_pcu.sym.38_sqe
_audit_creation_date              2022-05-24
_audit_creation_method            REPEAT_Assigner
_cell_length_a                    15.192753
_cell_length_b                    14.149400
_cell_length_c                    11.003366
_cell_angle_alpha                 90.000000
_cell_angle_beta                  89.999584
_cell_angle_gamma                 90.000000
_cell_volume                      2365.375390
_symmetry_space_group_name_H-M    P1
_symmetry_Int_Tables_number       1
loop_
    _symmetry_equiv_pos_site_id
    _symmetry_equiv_pos_as_xyz
    1  x,y,z
loop_
    _atom_site_type_symbol
    _atom_site_label
    _atom_site_fract_x
    _atom_site_fract_y
    _atom_site_fract_z
    _atom_type_partial_charge
    O   O1   0.369171  0.581037  0.486688  -0.676251
    O   O2   0.630835  0.418728  0.511418  -0.609500
    O   O3   0.630829  0.581037  0.513313  -0.676254
    O   O4   0.369165  0.418728  0.488582  -0.609502
    C   C1   0.327906  0.499818  0.484498  0.645455
    C   C2   0.672094  0.499818  0.515502  0.645454
    O   O5   0.510640  0.580409  0.319550  -0.569773
    O   O6   0.490786  0.419001  0.680572  -0.626661
    O   O7   0.489360  0.580409  0.680451  -0.569768
    O   O8   0.509214  0.419001  0.319428  -0.626670
    C   C3   0.516254  0.499628  0.260864  0.768550
    C   C4   0.483746  0.499628  0.739136  0.768534
    Zn  Zn1  0.500000  0.607089  0.500000  0.997134
    Zn  Zn2  0.500000  0.392528  0.500000  0.982117
    H   H1   0.545417  0.178561  0.092340  0.090824
    H   H2   0.452963  0.819813  0.909187  0.064585
    H   H3   0.454588  0.178560  0.907660  0.090820
    H   H4   0.547032  0.819814  0.090813  0.064580
    C   C5   0.545752  0.669604  0.106608  -0.256751
    C   C6   0.455609  0.328787  0.892320  -0.207456
    C   C7   0.454246  0.669603  0.893392  -0.256735
    C   C8   0.544394  0.328788  0.107681  -0.207726
    C   C9   0.525605  0.753822  0.051122  0.012463
    C   C10  0.475372  0.244552  0.947991  -0.082884
    C   C11  0.474392  0.753822  0.948878  0.012454
    C   C12  0.524632  0.244553  0.052009  -0.082818
    C   C13  0.483593  0.584057  0.941072  0.169269
    C   C14  0.516029  0.414517  0.059187  0.187883
    C   C15  0.516406  0.584057  0.058928  0.169337
    C   C16  0.483972  0.414517  0.940814  0.187588
    C   C17  0.476797  0.499377  0.875827  -0.315435
    C   C18  0.523203  0.499378  0.124174  -0.315542
    H   H5   0.588113  0.672708  0.185094  0.113851
    H   H6   0.413888  0.325459  0.813220  0.109962
    H   H7   0.411884  0.672706  0.814906  0.113848
    H   H8   0.586115  0.325461  0.186780  0.110043
    C   C19  0.093951  0.580316  0.461540  -0.146455
    C   C20  0.904210  0.419075  0.475540  -0.140139
    C   C21  0.906049  0.580316  0.538461  -0.146457
    C   C22  0.095790  0.419075  0.524460  -0.140145
    H   H9   0.059372  0.643919  0.435740  0.113218
    H   H10  0.936894  0.355767  0.444418  0.113232
    H   H11  0.940628  0.643919  0.564260  0.113220
    H   H12  0.063106  0.355767  0.555582  0.113233
    C   C23  0.184737  0.580350  0.456896  -0.116856
    C   C24  0.813661  0.418646  0.482563  -0.124625
    C   C25  0.815263  0.580350  0.543104  -0.116859
    C   C26  0.186339  0.418645  0.517437  -0.124616
    H   H13  0.218531  0.644240  0.430097  0.112141
    H   H14  0.778708  0.354905  0.458157  0.133220
    H   H15  0.781469  0.644240  0.569903  0.112140
    H   H16  0.221291  0.354905  0.541843  0.133221
    C   C27  0.231414  0.499423  0.484548  0.002290
    C   C28  0.768586  0.499423  0.515452  0.002304
    C   C29  0.048514  0.499840  0.496384  0.085693
    C   C30  0.951486  0.499840  0.503616  0.085690
    C   C31  0.434500  0.103368  0.443252  -0.154835
    C   C32  0.540178  0.896743  0.590986  -0.065621
    C   C33  0.565500  0.103368  0.556748  -0.154811
    C   C34  0.459821  0.896743  0.409015  -0.065626
    H   H17  0.380738  0.067178  0.399610  0.139295
    H   H18  0.569557  0.933634  0.666308  0.129031
    H   H19  0.619261  0.067177  0.600390  0.139286
    H   H20  0.430443  0.933634  0.333692  0.129031
    C   C35  0.437620  0.201045  0.437667  0.141268
    C   C36  0.544149  0.798910  0.587374  0.084221
    C   C37  0.562380  0.201044  0.562332  0.141249
    C   C38  0.455851  0.798910  0.412627  0.084239
    N   N1   0.500000  0.250543  0.500000  -0.231192
    N   N2   0.500000  0.749137  0.500000  -0.233334
    C   C39  0.500000  0.052587  0.500000  0.127679
    C   C40  0.500000  0.947428  0.500000  0.012450
    C   C41  0.372161  0.247486  0.359487  0.401187
    H   H21  0.385386  0.314764  0.317861  0.051169
    O   O9   0.303469  0.207500  0.334163  -0.441409
    C   C42  0.599002  0.753191  0.681062  0.462506
    H   H22  0.612548  0.679061  0.680716  0.050403
    O   O10  0.634099  0.800469  0.760019  -0.474250
    C   C43  0.627839  0.247486  0.640513  0.401162
    H   H23  0.614614  0.314763  0.682139  0.051176
    O   O11  0.696532  0.207500  0.665836  -0.441397
    C   C44  0.400998  0.753191  0.318939  0.462495
    H   H24  0.387451  0.679061  0.319284  0.050404
    O   O12  0.365900  0.800470  0.239983  -0.474248
