# Generated by REPEAT Assigner based on pymatgen
data_DB0-m2_o6_o23_f0_pcu.sym.95
_audit_creation_date              2022-05-24
_audit_creation_method            REPEAT_Assigner
_cell_length_a                    16.038225
_cell_length_b                    14.618149
_cell_length_c                    15.867584
_cell_angle_alpha                 90.000000
_cell_angle_beta                  89.988864
_cell_angle_gamma                 90.000000
_cell_volume                      3720.141746
_symmetry_space_group_name_H-M    P1
_symmetry_Int_Tables_number       1
loop_
    _symmetry_equiv_pos_site_id
    _symmetry_equiv_pos_as_xyz
    1  x,y,z
loop_
    _atom_site_type_symbol
    _atom_site_label
    _atom_site_fract_x
    _atom_site_fract_y
    _atom_site_fract_z
    _atom_type_partial_charge
    O   O1   0.370665  0.580152  0.500067  -0.606232
    O   O2   0.370641  0.422604  0.506399  -0.611146
    C   C1   0.331843  0.501376  0.503060  0.864729
    O   O3   0.489847  0.580048  0.381135  -0.605721
    O   O4   0.489907  0.422628  0.381661  -0.626502
    C   C2   0.492511  0.501175  0.342193  0.779659
    Cu  Cu1  0.491823  0.592962  0.503621  0.960964
    Cu  Cu2  0.491831  0.409809  0.504146  0.955214
    O   O5   0.612994  0.580018  0.501318  -0.621774
    O   O6   0.612970  0.422766  0.507754  -0.627347
    O   O7   0.488545  0.580128  0.626092  -0.626162
    O   O8   0.488498  0.422741  0.626588  -0.609215
    C   C3   0.651838  0.501394  0.504703  0.823276
    C   C4   0.490665  0.501564  0.665591  0.803149
    C   C5   0.458144  0.583848  0.053432  -0.090446
    C   C6   0.450089  0.416607  0.050795  -0.121899
    C   C7   0.440314  0.422803  0.956195  -0.064265
    C   C8   0.459375  0.588708  0.958221  -0.119189
    H   H1   0.394694  0.598115  0.935128  0.033228
    H   H2   0.374072  0.436014  0.940310  0.009729
    H   H3   0.392294  0.581861  0.074649  0.015665
    H   H4   0.387373  0.418607  0.080155  0.026776
    H   H5   0.477972  0.349593  0.065649  0.004682
    H   H6   0.486481  0.646236  0.080809  0.018019
    H   H7   0.459569  0.357240  0.926910  0.018949
    H   H8   0.496545  0.647666  0.936231  0.007481
    C   C9   0.490634  0.501744  0.756005  -0.164353
    C   C10  0.501913  0.497175  0.083617  0.729976
    C   C11  0.494088  0.500022  0.924038  0.587143
    C   C12  0.583428  0.483851  0.952741  -0.076743
    C   C13  0.592916  0.494986  0.048626  -0.435754
    C   C14  0.491608  0.501315  0.831923  -0.351825
    C   C15  0.497829  0.499258  0.175925  -0.420678
    C   C16  0.494542  0.500579  0.251822  -0.112421
    H   H9   0.628040  0.523770  0.914658  0.033319
    H   H10  0.597391  0.411547  0.937071  0.022013
    H   H11  0.068533  0.647102  0.502626  0.144463
    H   H12  0.068542  0.355671  0.504359  0.144113
    C   C17  0.948852  0.583074  0.503550  -0.179097
    C   C18  0.948857  0.419697  0.504523  -0.188176
    H   H13  0.915138  0.647100  0.503312  0.140081
    H   H14  0.915148  0.355669  0.505048  0.142166
    C   C19  0.905877  0.501385  0.504249  0.267144
    C   C20  0.034829  0.419697  0.504118  -0.176558
    C   C21  0.034823  0.583075  0.503147  -0.181106
    C   C22  0.077804  0.501386  0.503425  0.249224
    C   C23  0.816421  0.501384  0.504563  -0.102272
    C   C24  0.167259  0.501388  0.503136  -0.069010
    C   C25  0.242385  0.501385  0.503011  -0.278469
    C   C26  0.741296  0.501386  0.504717  -0.223189
    H   H15  0.585818  0.085299  0.598835  0.161156
    H   H16  0.585833  0.917008  0.598465  0.161594
    C   C27  0.544510  0.954095  0.556897  -0.168890
    C   C28  0.544497  0.048418  0.557111  -0.173057
    C   C29  0.491802  0.907068  0.503653  0.237843
    C   C30  0.491768  0.095702  0.504087  0.251788
    C   C31  0.439073  0.954352  0.450628  -0.174236
    C   C32  0.439059  0.048676  0.450843  -0.171305
    H   H17  0.397753  0.917470  0.408903  0.165412
    H   H18  0.397738  0.085763  0.409273  0.161256
    C   C33  0.491790  0.808919  0.503483  0.054774
    C   C34  0.491788  0.193851  0.504256  0.048647
    N   N1   0.491806  0.272994  0.504338  -0.133025
    N   N2   0.491788  0.729777  0.503406  -0.140767
    C   C35  0.639485  0.581749  0.075525  0.374630
    C   C36  0.671971  0.585963  0.156844  -0.287902
    C   C37  0.715592  0.661413  0.184495  0.001850
    C   C38  0.728508  0.734412  0.131697  -0.075701
    Br  Br1  0.788859  0.838711  0.170071  -0.069345
    C   C39  0.697874  0.731653  0.050947  -0.004233
    C   C40  0.654185  0.656417  0.022690  -0.281014
    H   H19  0.664110  0.530269  0.200777  0.170511
    H   H20  0.739888  0.663016  0.248014  0.089532
    H   H21  0.708061  0.788964  0.009155  0.072691
    H   H22  0.631966  0.659943  0.958959  0.148953
    C   C41  0.648950  0.415687  0.075566  0.296013
    C   C42  0.628807  0.348525  0.134669  -0.267121
    C   C43  0.685143  0.280785  0.155136  0.040255
    C   C44  0.762653  0.278639  0.118345  -0.137203
    Br  Br2  0.840041  0.184829  0.147314  -0.041146
    C   C45  0.784310  0.345041  0.061217  0.031623
    C   C46  0.728398  0.412930  0.040416  -0.257842
    H   H23  0.570214  0.346172  0.167227  0.152636
    H   H24  0.668277  0.229169  0.200839  0.067171
    H   H25  0.845486  0.344207  0.032636  0.074428
    H   H26  0.748062  0.464373  0.995706  0.128416
