# generated using pymatgen
data_Cu3H28C34NO13
_symmetry_space_group_name_H-M   'P 1'
_cell_length_a   18.45151700
_cell_length_b   18.84578400
_cell_length_c   18.73781100
_cell_angle_alpha   109.92128800
_cell_angle_beta   109.51587400
_cell_angle_gamma   108.76445100
_symmetry_Int_Tables_number   1
_chemical_formula_structural   Cu3H28C34NO13
_chemical_formula_sum   'Cu6 H56 C68 N2 O26'
_cell_volume   5028.52289001
_cell_formula_units_Z   2
loop_
 _symmetry_equiv_pos_site_id
 _symmetry_equiv_pos_as_xyz
  1  'x, y, z'
loop_
 _atom_site_type_symbol
 _atom_site_label
 _atom_site_symmetry_multiplicity
 _atom_site_fract_x
 _atom_site_fract_y
 _atom_site_fract_z
 _atom_site_occupancy
  Cu  Cu1  1  0.48570200  0.42219000  0.43672500  1
  Cu  Cu2  1  0.48521200  0.54368700  0.56155900  1
  Cu  Cu3  1  0.91891600  0.42587900  0.99266200  1
  Cu  Cu4  1  0.04634000  0.53619400  0.99087800  1
  Cu  Cu5  1  0.04986300  0.97879700  0.55594400  1
  Cu  Cu6  1  0.92204700  0.98097900  0.43783400  1
  H  H1  1  0.73537900  0.45588900  0.60084400  1
  H  H2  1  0.66272700  0.36293800  0.59526300  1
  H  H3  1  0.76240400  0.36234200  0.69362600  1
  H  H4  1  0.78174900  0.60689400  0.71962900  1
  H  H5  1  0.88927500  0.60936400  0.82578700  1
  H  H6  1  0.61787400  0.48238000  0.76344400  1
  H  H7  1  0.58693400  0.37664000  0.68126000  1
  H  H8  1  0.69195000  0.37183200  0.77825400  1
  H  H9  1  0.72138900  0.47594700  0.86217900  1
  H  H10  1  0.72792800  0.61411200  0.78403100  1
  H  H11  1  0.83073100  0.61087700  0.88555700  1
  H  H12  1  0.32071300  0.38345100  0.62456200  1
  H  H13  1  0.17723800  0.03311600  0.35227300  1
  H  H14  1  0.09404000  0.06077400  0.29556100  1
  H  H15  1  0.29180400  0.14347800  0.35313900  1
  H  H16  1  0.20879300  0.17165400  0.29708600  1
  H  H17  1  0.22654700  0.50734100  0.38760000  1
  H  H18  1  0.10973300  0.50363400  0.27148200  1
  H  H19  1  0.21697000  0.38662800  0.05429200  1
  H  H20  1  0.28928800  0.50699100  0.10561500  1
  H  H21  1  0.32972400  0.38519200  0.16673800  1
  H  H22  1  0.40161200  0.50571400  0.21845000  1
  H  H23  1  0.60520300  0.74263200  0.49258100  1
  H  H24  1  0.71818700  0.85205400  0.48869500  1
  H  H25  1  0.86994800  0.66151000  0.44876800  1
  H  H26  1  0.92750700  0.72445800  0.57214500  1
  H  H27  1  0.75525700  0.54977000  0.44634600  1
  H  H28  1  0.81218700  0.61311500  0.56962600  1
  H  H29  1  0.12441300  0.34945900  0.88126600  1
  H  H30  1  0.12663000  0.23370600  0.77150800  1
  H  H31  1  0.78715000  0.10102200  0.56881800  1
  H  H32  1  0.78603700  0.03731100  0.62768500  1
  H  H33  1  0.78406900  0.20974800  0.68181700  1
  H  H34  1  0.78340200  0.14673000  0.74120000  1
  H  H35  1  0.12734900  0.74162900  0.25644900  1
  H  H36  1  0.12742800  0.85224300  0.37305000  1
  H  H37  1  0.78373400  0.67920200  0.21206100  1
  H  H38  1  0.79639400  0.74634300  0.15734100  1
  H  H39  1  0.78252800  0.56659000  0.09838900  1
  H  H40  1  0.79598300  0.63373800  0.04379400  1
  H  H41  1  0.32950800  0.29881900  0.71763600  1
  H  H42  1  0.25320600  0.26853200  0.75481400  1
  H  H43  1  0.35114300  0.44415100  0.77110700  1
  H  H44  1  0.35400900  0.41771200  0.85417400  1
  H  H45  1  0.23831500  0.44570800  0.68846100  1
  H  H46  1  0.14542300  0.42824800  0.70463400  1
  H  H47  1  0.11571200  0.30515300  0.56999700  1
  H  H48  1  0.09082900  0.27567000  0.64391200  1
  H  H49  1  0.87875600  0.35131000  0.71704800  1
  H  H50  1  0.97870500  0.43451700  0.73946700  1
  H  H51  1  0.80978100  0.31697100  0.55993400  1
  H  H52  1  0.90642000  0.30529100  0.59456400  1
  H  H53  1  0.81358300  0.42632100  0.53830300  1
  H  H54  1  0.91474900  0.51272500  0.56823400  1
  H  H55  1  0.87237800  0.55917300  0.68208400  1
  H  H56  1  0.97478300  0.56065400  0.72241100  1
  C  C1  1  0.36793600  0.36515300  0.50043900  1
  C  C2  1  0.60849100  0.48339300  0.61620900  1
  C  C3  1  0.60319900  0.60050600  0.49827500  1
  C  C4  1  0.36284800  0.48263900  0.38227000  1
  C  C5  1  0.71616700  0.43125200  0.64075200  1
  C  C6  1  0.78921900  0.43078500  0.70966200  1
  C  C7  1  0.75379000  0.57583900  0.75183300  1
  C  C8  1  0.64246500  0.44343100  0.72992900  1
  C  C9  1  0.67998200  0.48358800  0.68422100  1
  C  C10  1  0.80100100  0.48245100  0.79941600  1
  C  C11  1  0.82522300  0.57533900  0.82139300  1
  C  C12  1  0.71366500  0.44067300  0.79679600  1
  C  C13  1  0.25054000  0.21408400  0.43369600  1
  C  C14  1  0.30067700  0.29836400  0.50110900  1
  C  C15  1  0.28361600  0.31799400  0.57017400  1
  C  C16  1  0.21961500  0.25360000  0.57052200  1
  C  C17  1  0.16955200  0.16965800  0.49981800  1
  C  C18  1  0.18757900  0.15377600  0.43258600  1
  C  C19  1  0.16156300  0.08371600  0.34662000  1
  C  C20  1  0.23522400  0.15472100  0.34749600  1
  C  C21  1  0.28846700  0.46627300  0.23659200  1
  C  C22  1  0.29268800  0.48152400  0.31511200  1
  C  C23  1  0.22714700  0.49564100  0.32723400  1
  C  C24  1  0.16033700  0.49289800  0.26099600  1
  C  C25  1  0.16068500  0.47975200  0.18355500  1
  C  C26  1  0.22746200  0.46756800  0.17545700  1
  C  C27  1  0.26262800  0.45093300  0.11463700  1
  C  C28  1  0.33479900  0.44995100  0.18688400  1
  C  C29  1  0.74507000  0.66489400  0.50175800  1
  C  C30  1  0.67075000  0.66764400  0.49859700  1
  C  C31  1  0.66263900  0.73734300  0.49554400  1
  C  C32  1  0.72655500  0.79912300  0.49282200  1
  C  C33  1  0.80158200  0.79447300  0.49782400  1
  C  C34  1  0.80815900  0.72613000  0.50389500  1
  C  C35  1  0.86475800  0.68516400  0.50876700  1
  C  C36  1  0.79087500  0.61350000  0.50702800  1
  C  C37  1  0.98139700  0.35698700  0.88126700  1
  C  C38  1  0.86983400  0.48085700  0.86866800  1
  C  C39  1  0.98471600  0.60508400  0.10340000  1
  C  C40  1  0.09513500  0.48084900  0.11427900  1
  C  C41  1  0.98590200  0.09311300  0.62105200  1
  C  C42  1  0.10296500  0.10092600  0.49884300  1
  C  C43  1  0.98596000  0.86657900  0.37284200  1
  C  C44  1  0.86877900  0.85930600  0.49541200  1
  C  C45  1  0.90782500  0.21371300  0.74889300  1
  C  C46  1  0.98342400  0.28668200  0.81930900  1
  C  C47  1  0.06290800  0.29326600  0.82669100  1
  C  C48  1  0.06414600  0.22764000  0.76454500  1
  C  C49  1  0.98592600  0.15787500  0.69121200  1
  C  C50  1  0.90909500  0.15418300  0.68683500  1
  C  C51  1  0.81168400  0.10123400  0.63162600  1
  C  C52  1  0.81008800  0.17145600  0.70449800  1
  C  C53  1  0.91190500  0.67797100  0.16350600  1
  C  C54  1  0.98727100  0.67539600  0.17059800  1
  C  C55  1  0.06586700  0.74076100  0.24672000  1
  C  C56  1  0.06579700  0.80325000  0.31332400  1
  C  C57  1  0.98767000  0.80321300  0.30298000  1
  C  C58  1  0.91238800  0.73966000  0.22517400  1
  C  C59  1  0.81536100  0.70353400  0.17812100  1
  C  C60  1  0.81483400  0.63120100  0.10525300  1
  C  C61  1  0.27515800  0.30691300  0.72531700  1
  C  C62  1  0.31017400  0.40177600  0.78716000  1
  C  C63  1  0.19436500  0.40621600  0.70448600  1
  C  C64  1  0.14506100  0.31141900  0.63549700  1
  C  C65  1  0.90579000  0.39878800  0.69823000  1
  C  C66  1  0.88239500  0.35283300  0.60367600  1
  C  C67  1  0.88502500  0.46579000  0.58680800  1
  C  C68  1  0.90249900  0.51703100  0.67926800  1
  N  N1  1  0.20210700  0.27384800  0.64048800  1
  N  N2  1  0.87372800  0.45968000  0.71115600  1
  O  O1  1  0.39712500  0.34127900  0.44651600  1
  O  O2  1  0.39602200  0.44647400  0.55396400  1
  O  O3  1  0.57875300  0.43064300  0.53356400  1
  O  O4  1  0.57750100  0.53500200  0.64162100  1
  O  O5  1  0.57939700  0.51941300  0.44884200  1
  O  O6  1  0.56919500  0.62420300  0.54728700  1
  O  O7  1  0.39778000  0.43530700  0.35699900  1
  O  O8  1  0.38800100  0.53083700  0.46471900  1
  O  O9  1  0.94419200  0.34079400  0.92721700  1
  O  O10  1  0.01835600  0.43401500  0.88910300  1
  O  O11  1  0.84402300  0.41578700  0.88335700  1
  O  O12  1  0.95188200  0.54605600  0.91516900  1
  O  O13  1  0.91342500  0.52807500  0.05779600  1
  O  O14  1  0.05465600  0.62107100  0.09324900  1
  O  O15  1  0.01391900  0.45333400  0.10176700  1
  O  O16  1  0.12070000  0.50890800  0.06665400  1
  O  O17  1  0.04299900  0.06644900  0.64229100  1
  O  O18  1  0.92987700  0.06576300  0.53987200  1
  O  O19  1  0.12985700  0.07456600  0.55378400  1
  O  O20  1  0.01940900  0.06870100  0.44341100  1
  O  O21  1  0.04462500  0.89697900  0.45394100  1
  O  O22  1  0.92636700  0.89054100  0.35169400  1
  O  O23  1  0.95252300  0.88813700  0.54743800  1
  O  O24  1  0.84184400  0.88808900  0.44303300  1
  O  O25  1  0.24112500  0.41735400  0.78689400  1
  O  O26  1  0.92421600  0.41318500  0.58348300  1
