# generated using pymatgen
data_Cu2H63C66N7O13
_symmetry_space_group_name_H-M   'P 1'
_cell_length_a   14.94753700
_cell_length_b   13.52946800
_cell_length_c   15.86661400
_cell_angle_alpha   90.00000000
_cell_angle_beta   89.98896500
_cell_angle_gamma   90.00000000
_symmetry_Int_Tables_number   1
_chemical_formula_structural   Cu2H63C66N7O13
_chemical_formula_sum   'Cu2 H63 C66 N7 O13'
_cell_volume   3208.74056945
_cell_formula_units_Z   1
loop_
 _symmetry_equiv_pos_site_id
 _symmetry_equiv_pos_as_xyz
  1  'x, y, z'
loop_
 _atom_site_type_symbol
 _atom_site_label
 _atom_site_symmetry_multiplicity
 _atom_site_fract_x
 _atom_site_fract_y
 _atom_site_fract_z
 _atom_site_occupancy
  Cu  Cu1  1  0.50092100  0.60850000  0.49916600  1
  Cu  Cu2  1  0.50207600  0.41075300  0.50223700  1
  H  H1  1  0.36993500  0.56602600  0.93757600  1
  H  H2  1  0.39810400  0.40394200  0.93210600  1
  H  H3  1  0.37287800  0.57527500  0.07419300  1
  H  H4  1  0.39863500  0.39718600  0.06785600  1
  H  H5  1  0.50817700  0.34907300  0.07696100  1
  H  H6  1  0.46497300  0.65745000  0.08229000  1
  H  H7  1  0.62022300  0.59702700  0.07484700  1
  H  H8  1  0.64017900  0.46522800  0.07141600  1
  H  H9  1  0.62070300  0.60282300  0.93293500  1
  H  H10  1  0.64394000  0.47363900  0.92921200  1
  H  H11  1  0.78087600  0.61448100  0.40481900  1
  H  H12  1  0.77544000  0.41285400  0.60651900  1
  H  H13  1  0.22831000  0.41050400  0.60657500  1
  H  H14  1  0.22167200  0.60854400  0.40307000  1
  H  H15  1  0.08776700  0.65731800  0.34299800  1
  H  H16  1  0.39685300  0.76413000  0.58728700  1
  H  H17  1  0.40047400  0.25359800  0.59471600  1
  H  H18  1  0.59990800  0.76599200  0.40392600  1
  H  H19  1  0.60317200  0.25474300  0.41088400  1
  H  H20  1  0.65698800  0.91991800  0.35026100  1
  H  H21  1  0.65873200  0.10144700  0.35304900  1
  H  H22  1  0.33691900  0.09931300  0.64183200  1
  H  H23  1  0.33471900  0.91829000  0.63864700  1
  H  H24  1  0.09307000  0.48051900  0.78115400  1
  H  H25  1  0.19867700  0.44651600  0.73571300  1
  H  H26  1  0.09851600  0.33632300  0.87579600  1
  H  H27  1  0.20035300  0.40501600  0.88292000  1
  H  H28  1  0.09235000  0.19467600  0.80824700  1
  H  H29  1  0.18905600  0.14254900  0.75938100  1
  H  H30  1  0.08313900  0.21240000  0.65339200  1
  H  H31  1  0.19194100  0.26802700  0.65105400  1
  H  H32  1  0.98193000  0.80006200  0.34856800  1
  H  H33  1  0.87849500  0.81497600  0.29263500  1
  H  H34  1  0.05631300  0.73731300  0.22013600  1
  H  H35  1  0.99770300  0.84781200  0.19594800  1
  H  H36  1  0.00397200  0.59201800  0.18600800  1
  H  H37  1  0.90541800  0.57973100  0.12300000  1
  H  H38  1  0.87885100  0.53020200  0.27153700  1
  H  H39  1  0.80887300  0.63179700  0.23785100  1
  H  H40  1  0.62243900  0.31297600  0.99840700  1
  H  H41  1  0.63664200  0.25010100  0.90128500  1
  H  H42  1  0.49715700  0.19134600  0.03531200  1
  H  H43  1  0.60033800  0.13176600  0.01088400  1
  H  H44  1  0.38678000  0.19987100  0.94254100  1
  H  H45  1  0.39456800  0.13684500  0.84357900  1
  H  H46  1  0.41173600  0.31535400  0.82058500  1
  H  H47  1  0.51280300  0.25041600  0.79555000  1
  H  H48  1  0.55291000  0.74525600  0.99148200  1
  H  H49  1  0.43932800  0.79191300  0.00702200  1
  H  H50  1  0.55880200  0.83072800  0.85375100  1
  H  H51  1  0.53705100  0.91342900  0.93964300  1
  H  H52  1  0.45116200  0.78963300  0.76362700  1
  H  H53  1  0.33848600  0.83113500  0.77941700  1
  H  H54  1  0.35741300  0.65671200  0.81909500  1
  H  H55  1  0.32109900  0.73311700  0.90636600  1
  H  H56  1  0.89304200  0.49390400  0.76767000  1
  H  H57  1  0.95594500  0.39310500  0.81448100  1
  H  H58  1  0.75244900  0.39898900  0.79052300  1
  H  H59  1  0.81395600  0.41362000  0.88691500  1
  H  H60  1  0.75118200  0.25478500  0.72248200  1
  H  H61  1  0.81116600  0.15012800  0.76300600  1
  H  H62  1  0.89111400  0.22385000  0.64090100  1
  H  H63  1  0.95404900  0.23063400  0.73868000  1
  C  C1  1  0.32976500  0.50796900  0.50242500  1
  C  C2  1  0.50116700  0.50654600  0.33896300  1
  C  C3  1  0.67324900  0.51137800  0.50142600  1
  C  C4  1  0.50233300  0.51264800  0.66238300  1
  C  C5  1  0.44149200  0.58972000  0.05062700  1
  C  C6  1  0.46881800  0.40798800  0.04697700  1
  C  C7  1  0.46935100  0.40977900  0.95039500  1
  C  C8  1  0.43862100  0.58992000  0.95392900  1
  C  C9  1  0.50348200  0.51392200  0.75278700  1
  C  C10  1  0.50171200  0.50672400  0.08035400  1
  C  C11  1  0.50273900  0.51078600  0.92088400  1
  C  C12  1  0.59663300  0.52954000  0.95401500  1
  C  C13  1  0.59594600  0.52557200  0.04940200  1
  C  C14  1  0.50377500  0.51321600  0.82872900  1
  C  C15  1  0.50158800  0.50476600  0.17252100  1
  C  C16  1  0.50143900  0.50494200  0.24846200  1
  C  C17  1  0.81788300  0.56979600  0.44899900  1
  C  C18  1  0.77084500  0.51214400  0.50447700  1
  C  C19  1  0.81536200  0.45584700  0.56330800  1
  C  C20  1  0.90813100  0.45758100  0.56777200  1
  C  C21  1  0.95554400  0.51121300  0.50861000  1
  C  C22  1  0.91028900  0.56645200  0.44790200  1
  C  C23  1  0.95222600  0.40664300  0.63174900  1
  C  C24  1  0.04600900  0.40415900  0.63391400  1
  C  C25  1  0.09406000  0.45469100  0.57030700  1
  C  C26  1  0.04782400  0.50983500  0.51004300  1
  C  C27  1  0.09401300  0.56437500  0.45024700  1
  C  C28  1  0.04938200  0.61784800  0.38954400  1
  C  C29  1  0.95735400  0.61881400  0.38688500  1
  C  C30  1  0.18727600  0.45249500  0.56450700  1
  C  C31  1  0.23222800  0.50804800  0.50524600  1
  C  C32  1  0.18578800  0.56554300  0.44955200  1
  C  C33  1  0.44137700  0.80517100  0.54656300  1
  C  C34  1  0.44481000  0.21332100  0.55321600  1
  C  C35  1  0.55469800  0.80609400  0.44452100  1
  C  C36  1  0.55758300  0.21399900  0.45067100  1
  C  C37  1  0.55497100  0.90813900  0.44416300  1
  C  C38  1  0.55658400  0.11203200  0.44727000  1
  C  C39  1  0.49781000  0.95878600  0.49648200  1
  C  C40  1  0.49865100  0.06050600  0.49818600  1
  C  C41  1  0.43980600  0.90722600  0.54729000  1
  C  C42  1  0.44175300  0.11130400  0.55081000  1
  C  C43  1  0.61235800  0.95951200  0.39206300  1
  C  C44  1  0.61327700  0.06152800  0.39359400  1
  C  C45  1  0.38244700  0.05994200  0.60094600  1
  C  C46  1  0.38131900  0.95793000  0.59908100  1
  C  C47  1  0.13595400  0.41742600  0.76260600  1
  C  C48  1  0.15951800  0.35788800  0.84057300  1
  C  C49  1  0.15346500  0.21300100  0.77188000  1
  C  C50  1  0.12993300  0.26099300  0.68819500  1
  C  C51  1  0.93907800  0.76800300  0.29859400  1
  C  C52  1  0.98857000  0.76967000  0.21480500  1
  C  C53  1  0.93596800  0.62223400  0.17525800  1
  C  C54  1  0.87844700  0.60917400  0.25290900  1
  C  C55  1  0.58611000  0.27150900  0.94911300  1
  C  C56  1  0.54548600  0.17684000  0.98387700  1
  C  C57  1  0.43295000  0.18033600  0.89040700  1
  C  C58  1  0.46798100  0.27270100  0.84800300  1
  C  C59  1  0.48945100  0.76628600  0.96025900  1
  C  C60  1  0.50869300  0.85197500  0.90192700  1
  C  C61  1  0.40025800  0.80709700  0.81222700  1
  C  C62  1  0.37773200  0.71585500  0.86358600  1
  C  C63  1  0.89646600  0.41279100  0.77668900  1
  C  C64  1  0.81451000  0.37752900  0.82418100  1
  C  C65  1  0.81311500  0.23159400  0.75550100  1
  C  C66  1  0.89514300  0.25829200  0.70411500  1
  N  N1  1  0.49995200  0.75637300  0.49717100  1
  N  N2  1  0.50338200  0.26289000  0.50443300  1
  N  N3  1  0.08855800  0.35580100  0.70330900  1
  N  N4  1  0.91147000  0.66919700  0.32109900  1
  N  N5  1  0.51837100  0.33036800  0.90792700  1
  N  N6  1  0.45420300  0.68470800  0.91210400  1
  N  N7  1  0.89884700  0.36384400  0.69653200  1
  O  O1  1  0.37105000  0.59318300  0.49693900  1
  O  O2  1  0.37191300  0.42321500  0.50558400  1
  O  O3  1  0.50369100  0.59242900  0.37691300  1
  O  O4  1  0.49863000  0.42233500  0.37953800  1
  O  O5  1  0.63104700  0.59589000  0.49600300  1
  O  O6  1  0.63196700  0.42617400  0.50514100  1
  O  O7  1  0.50476000  0.59686100  0.62187500  1
  O  O8  1  0.49900700  0.42686300  0.62447800  1
  O  O9  1  0.20998900  0.27480900  0.81835800  1
  O  O10  1  0.93891700  0.72185200  0.15240300  1
  O  O11  1  0.50446700  0.12293800  0.91936600  1
  O  O12  1  0.42924800  0.88405900  0.86441400  1
  O  O13  1  0.81821400  0.27493600  0.83558400  1
