# generated using pymatgen
data_VH15C20N3O8
_symmetry_space_group_name_H-M   'P 1'
_cell_length_a   26.73601600
_cell_length_b   6.17505300
_cell_length_c   22.11998900
_cell_angle_alpha   90.00000000
_cell_angle_beta   101.16005100
_cell_angle_gamma   90.00000000
_symmetry_Int_Tables_number   1
_chemical_formula_structural   VH15C20N3O8
_chemical_formula_sum   'V4 H60 C80 N12 O32'
_cell_volume   3582.87197862
_cell_formula_units_Z   4
loop_
 _symmetry_equiv_pos_site_id
 _symmetry_equiv_pos_as_xyz
  1  'x, y, z'
loop_
 _atom_site_type_symbol
 _atom_site_label
 _atom_site_symmetry_multiplicity
 _atom_site_fract_x
 _atom_site_fract_y
 _atom_site_fract_z
 _atom_site_occupancy
  V  V1  1  0.49837200  0.97024800  0.48339300  1
  V  V2  1  0.50162800  0.47024800  0.51660700  1
  V  V3  1  0.00194300  0.87570200  0.01688900  1
  V  V4  1  0.99805700  0.37570300  0.98311100  1
  H  H1  1  0.09810400  0.69829900  0.90239600  1
  H  H2  1  0.90189600  0.19829900  0.09760400  1
  H  H3  1  0.15984500  0.63075900  0.83680500  1
  H  H4  1  0.84015500  0.13075900  0.16319500  1
  H  H5  1  0.16773400  0.31255000  0.80420400  1
  H  H6  1  0.83226600  0.81255000  0.19579600  1
  H  H7  1  0.10367600  0.37416000  0.86682600  1
  H  H8  1  0.89632400  0.87416000  0.13317400  1
  H  H9  1  0.19246700  0.23311200  0.72951300  1
  H  H10  1  0.80753300  0.73311200  0.27048800  1
  H  H11  1  0.25641100  0.17648200  0.66740400  1
  H  H12  1  0.74358900  0.67648200  0.33259600  1
  H  H13  1  0.22660600  0.61277800  0.81286200  1
  H  H14  1  0.77339500  0.11277800  0.18713800  1
  H  H15  1  0.36338800  0.62866200  0.73195100  1
  H  H16  1  0.63661200  0.12866200  0.26804900  1
  H  H17  1  0.42747900  0.58038100  0.66756700  1
  H  H18  1  0.57252100  0.08038100  0.33243300  1
  H  H19  1  0.27862100  0.04288400  0.59517900  1
  H  H20  1  0.72137900  0.54288400  0.40482100  1
  H  H21  1  0.68279400  0.68107400  0.79016100  1
  H  H22  1  0.31720600  0.18107400  0.20983900  1
  H  H23  1  0.76354200  0.30086000  0.78165800  1
  H  H24  1  0.23645800  0.80086000  0.21834200  1
  H  H25  1  0.73996200  0.17209900  0.84367500  1
  H  H26  1  0.26003900  0.67209900  0.15632500  1
  H  H27  1  0.82593600  0.82865100  0.72948500  1
  H  H28  1  0.17406400  0.32865100  0.27051500  1
  H  H29  1  0.81137900  0.11307700  0.71883000  1
  H  H30  1  0.18862100  0.61307700  0.28117000  1
  H  H31  1  0.75298000  0.74175900  0.66400100  1
  H  H32  1  0.24702000  0.24175900  0.33599900  1
  H  H33  1  0.72103700  0.55246000  0.74173100  1
  H  H34  1  0.27896300  0.05246000  0.25826900  1
  H  H35  1  0.74052500  0.02608500  0.64960900  1
  H  H36  1  0.25947500  0.52608500  0.35039100  1
  H  H37  1  0.35739500  0.01792700  0.43430100  1
  H  H38  1  0.39817300  0.17024600  0.48538800  1
  H  H39  1  0.64260500  0.51792700  0.56569900  1
  H  H40  1  0.60182700  0.67024600  0.51461300  1
  H  H41  1  0.71188800  0.89855600  0.93492100  1
  H  H42  1  0.67944000  0.87973100  0.86164600  1
  H  H43  1  0.28811200  0.39855600  0.06507900  1
  H  H44  1  0.32056000  0.37973000  0.13835400  1
  H  H45  1  0.59541600  0.92204200  0.80567700  1
  H  H46  1  0.60605300  0.88292000  0.73364400  1
  H  H47  1  0.40458400  0.42204200  0.19432300  1
  H  H48  1  0.39394700  0.38292000  0.26635600  1
  H  H49  1  0.63851800  0.49603900  0.66185100  1
  H  H50  1  0.63645000  0.46089200  0.73710700  1
  H  H51  1  0.36148200  0.99603900  0.33814900  1
  H  H52  1  0.36355000  0.96089300  0.26289400  1
  H  H53  1  0.84954500  0.35987400  0.85642500  1
  H  H54  1  0.84379200  0.58707000  0.89684700  1
  H  H55  1  0.15045500  0.85987400  0.14357500  1
  H  H56  1  0.15620800  0.08707000  0.10315400  1
  H  H57  1  0.33809400  0.31292700  0.80833800  1
  H  H58  1  0.29085900  0.44376800  0.83335100  1
  H  H59  1  0.66190600  0.81292700  0.19166200  1
  H  H60  1  0.70914100  0.94376800  0.16664900  1
  C  C1  1  0.08075500  0.58379700  0.07940100  1
  C  C2  1  0.91924500  0.08379700  0.92059900  1
  C  C3  1  0.42637100  0.26816900  0.41105400  1
  C  C4  1  0.57362900  0.76816900  0.58894700  1
  C  C5  1  0.56938300  0.26323600  0.43877100  1
  C  C6  1  0.43061700  0.76323600  0.56122900  1
  C  C7  1  0.11330900  0.83234500  0.88021100  1
  C  C8  1  0.88669100  0.33234500  0.11979000  1
  C  C9  1  0.14863600  0.79526300  0.84368200  1
  C  C10  1  0.85136400  0.29526300  0.15631800  1
  C  C11  1  0.16828000  0.96679900  0.81556700  1
  C  C12  1  0.83172000  0.46679900  0.18443300  1
  C  C13  1  0.15196500  0.17511000  0.82404000  1
  C  C14  1  0.84803500  0.67511000  0.17596000  1
  C  C15  1  0.11611800  0.21109100  0.85985300  1
  C  C16  1  0.88388200  0.71109100  0.14014700  1
  C  C17  1  0.09703200  0.03994500  0.88800800  1
  C  C18  1  0.90296800  0.53994500  0.11199200  1
  C  C19  1  0.21416000  0.08486600  0.73516800  1
  C  C20  1  0.78584000  0.58486600  0.26483200  1
  C  C21  1  0.24966200  0.05109300  0.69887600  1
  C  C22  1  0.75033800  0.55109300  0.30112400  1
  C  C23  1  0.27704700  0.86102000  0.70360300  1
  C  C24  1  0.72295300  0.36102000  0.29639700  1
  C  C25  1  0.26832000  0.70191100  0.74405900  1
  C  C26  1  0.73168000  0.20191100  0.25594100  1
  C  C27  1  0.23325000  0.73738200  0.78128400  1
  C  C28  1  0.76675100  0.23738200  0.21871600  1
  C  C29  1  0.20609100  0.92919400  0.77699200  1
  C  C30  1  0.79390900  0.42919400  0.22300800  1
  C  C31  1  0.35797400  0.70474600  0.68713500  1
  C  C32  1  0.64202600  0.20474600  0.31286500  1
  C  C33  1  0.39461600  0.68175000  0.65161500  1
  C  C34  1  0.60538400  0.18175000  0.34838500  1
  C  C35  1  0.39065600  0.79384700  0.59695200  1
  C  C36  1  0.60934400  0.29384700  0.40304800  1
  C  C37  1  0.34878400  0.92557000  0.57699300  1
  C  C38  1  0.65121700  0.42557000  0.42300700  1
  C  C39  1  0.31166900  0.94363700  0.61183300  1
  C  C40  1  0.68833200  0.44363700  0.38816700  1
  C  C41  1  0.31596600  0.83297800  0.66656900  1
  C  C42  1  0.68403400  0.33297800  0.33343100  1
  C  C43  1  0.76327200  0.75581800  0.81244000  1
  C  C44  1  0.23672800  0.25581800  0.18756000  1
  C  C45  1  0.74750600  0.14940000  0.79660100  1
  C  C46  1  0.25249400  0.64940000  0.20339900  1
  C  C47  1  0.69829900  0.09719200  0.75194100  1
  C  C48  1  0.30170100  0.59719300  0.24805900  1
  C  C49  1  0.61825700  0.80785500  0.63610600  1
  C  C50  1  0.38174300  0.30785500  0.36389400  1
  C  C51  1  0.78562700  0.96857900  0.79584200  1
  C  C52  1  0.21437300  0.46857900  0.20415900  1
  C  C53  1  0.71503500  0.70383600  0.76607400  1
  C  C54  1  0.28496500  0.20383600  0.23392600  1
  C  C55  1  0.70379900  0.88511600  0.71925800  1
  C  C56  1  0.29620100  0.38511600  0.28074200  1
  C  C57  1  0.74817500  0.90002000  0.68586900  1
  C  C58  1  0.25182500  0.40002000  0.31413100  1
  C  C59  1  0.79673800  0.95454000  0.73131600  1
  C  C60  1  0.20326200  0.45454000  0.26868400  1
  C  C61  1  0.65652900  0.84093500  0.67429000  1
  C  C62  1  0.34347100  0.34093500  0.32571100  1
  C  C63  1  0.83322600  0.01305500  0.84018300  1
  C  C64  1  0.16677400  0.51305500  0.15981700  1
  C  C65  1  0.87248300  0.04594400  0.87671500  1
  C  C66  1  0.12751700  0.54594400  0.12328500  1
  C  C67  1  0.93944000  0.57951000  0.07258700  1
  C  C68  1  0.06056000  0.07951000  0.92741300  1
  C  C69  1  0.34136700  0.04306200  0.51870200  1
  C  C70  1  0.65863300  0.54306200  0.48129800  1
  C  C71  1  0.75141500  0.76896700  0.87556000  1
  C  C72  1  0.24858500  0.26896700  0.12444000  1
  C  C73  1  0.65555600  0.08204100  0.78615300  1
  C  C74  1  0.34444400  0.58204100  0.21384800  1
  C  C75  1  0.68667300  0.27261800  0.70521200  1
  C  C76  1  0.31332700  0.77261800  0.29478800  1
  C  C77  1  0.80145100  0.58087500  0.81156200  1
  C  C78  1  0.19854900  0.08087500  0.18843800  1
  C  C79  1  0.29311400  0.49028000  0.74392300  1
  C  C80  1  0.70688600  0.99028000  0.25607800  1
  N  N1  1  0.37752300  0.02621200  0.47965800  1
  N  N2  1  0.62247700  0.52621200  0.52034200  1
  N  N3  1  0.71461900  0.91989600  0.88884500  1
  N  N4  1  0.28538200  0.41989600  0.11115500  1
  N  N5  1  0.62369700  0.89502700  0.77994400  1
  N  N6  1  0.37630300  0.39502700  0.22005700  1
  N  N7  1  0.63865000  0.38027100  0.69622500  1
  N  N8  1  0.36135100  0.88027100  0.30377500  1
  N  N9  1  0.82345600  0.47218400  0.86722900  1
  N  N10  1  0.17654400  0.97218400  0.13277100  1
  N  N11  1  0.29950500  0.35348000  0.79687000  1
  N  N12  1  0.70049500  0.85348000  0.20313100  1
  O  O1  1  0.55480600  0.43587300  0.46679400  1
  O  O2  1  0.44519400  0.93587300  0.53320600  1
  O  O3  1  0.44461400  0.06820700  0.41517700  1
  O  O4  1  0.55538600  0.56820700  0.58482400  1
  O  O5  1  0.54879900  0.06785600  0.43483200  1
  O  O6  1  0.45120200  0.56785700  0.56516900  1
  O  O7  1  0.55543300  0.93583500  0.55373900  1
  O  O8  1  0.44456800  0.43583500  0.44626200  1
  O  O9  1  0.04845900  0.91006400  0.95841900  1
  O  O10  1  0.95154100  0.41006400  0.04158200  1
  O  O11  1  0.50292800  0.21364800  0.53931100  1
  O  O12  1  0.49707200  0.71364800  0.46068900  1
  O  O13  1  0.06115700  0.78108800  0.07847400  1
  O  O14  1  0.93884400  0.28108800  0.92152600  1
  O  O15  1  0.99512000  0.63268700  0.96076800  1
  O  O16  1  0.00488000  0.13268700  0.03923200  1
  O  O17  1  0.06055600  0.41382100  0.04656100  1
  O  O18  1  0.93944400  0.91382100  0.95343900  1
  O  O19  1  0.95814900  0.77774600  0.07382900  1
  O  O20  1  0.04185100  0.27774600  0.92617100  1
  O  O21  1  0.30472700  0.16283500  0.50452500  1
  O  O22  1  0.69527300  0.66283500  0.49547500  1
  O  O23  1  0.77301500  0.64836400  0.91592700  1
  O  O24  1  0.22698500  0.14836400  0.08407400  1
  O  O25  1  0.64696300  0.23272700  0.81825400  1
  O  O26  1  0.35303700  0.73272700  0.18174600  1
  O  O27  1  0.71788900  0.32286900  0.67418300  1
  O  O28  1  0.28211100  0.82286900  0.32581700  1
  O  O29  1  0.81393700  0.53041800  0.76331000  1
  O  O30  1  0.18606300  0.03041800  0.23669100  1
  O  O31  1  0.30603900  0.42583000  0.69713300  1
  O  O32  1  0.69396100  0.92583000  0.30286700  1
