# generated using pymatgen
data_CuH12C21N(ClO2)2
_symmetry_space_group_name_H-M   'P 1'
_cell_length_a   10.93904700
_cell_length_b   9.54347600
_cell_length_c   15.86680400
_cell_angle_alpha   90.00000000
_cell_angle_beta   89.99534100
_cell_angle_gamma   90.00000000
_symmetry_Int_Tables_number   1
_chemical_formula_structural   CuH12C21N(ClO2)2
_chemical_formula_sum   'Cu2 H24 C42 N2 Cl4 O8'
_cell_volume   1656.43931410
_cell_formula_units_Z   2
loop_
 _symmetry_equiv_pos_site_id
 _symmetry_equiv_pos_as_xyz
  1  'x, y, z'
loop_
 _atom_site_type_symbol
 _atom_site_label
 _atom_site_symmetry_multiplicity
 _atom_site_fract_x
 _atom_site_fract_y
 _atom_site_fract_z
 _atom_site_occupancy
  Cu  Cu1  1  0.50337100  0.64041500  0.49926700  1
  Cu  Cu2  1  0.49594500  0.35979400  0.50119900  1
  H  H1  1  0.31893200  0.57996000  0.93996800  1
  H  H2  1  0.37333600  0.32925500  0.91943700  1
  H  H3  1  0.53085100  0.27876100  0.93511000  1
  H  H4  1  0.43284100  0.71359700  0.92172000  1
  H  H5  1  0.68577600  0.58435500  0.08110500  1
  H  H6  1  0.67930300  0.40285000  0.06043100  1
  H  H7  1  0.65665200  0.63896600  0.94021400  1
  H  H8  1  0.69612000  0.45799500  0.92307300  1
  H  H9  1  0.11383100  0.08211100  0.63567500  1
  H  H10  1  0.07909000  0.97160300  0.43522800  1
  H  H11  1  0.18516400  0.79484400  0.51249900  1
  H  H12  1  0.20596500  0.30971800  0.61885500  1
  H  H13  1  0.88534300  0.91807000  0.36475900  1
  H  H14  1  0.92001400  0.02861200  0.56528300  1
  H  H15  1  0.79333400  0.69035400  0.38144000  1
  H  H16  1  0.81405200  0.20530400  0.48790500  1
  H  H17  1  0.21529300  0.12138700  0.29088000  1
  H  H18  1  0.22553700  0.86615000  0.28747100  1
  H  H19  1  0.65826400  0.25397400  0.61557100  1
  H  H20  1  0.67677100  0.75450700  0.60925400  1
  H  H21  1  0.77383300  0.13409700  0.71324500  1
  H  H22  1  0.78408900  0.87881300  0.70981900  1
  H  H23  1  0.34091500  0.74628700  0.38516600  1
  H  H24  1  0.32249900  0.24571700  0.39138300  1
  C  C1  1  0.26316900  0.50832200  0.50853800  1
  C  C2  1  0.49663600  0.49624500  0.33843100  1
  C  C3  1  0.73611000  0.49189200  0.49185100  1
  C  C4  1  0.50295000  0.50393300  0.66205300  1
  C  C5  1  0.43294000  0.62823700  0.04726300  1
  C  C6  1  0.44138800  0.36257700  0.04530400  1
  C  C7  1  0.46038400  0.35819000  0.95075500  1
  C  C8  1  0.41443900  0.61205100  0.95324700  1
  C  C9  1  0.50358400  0.50480600  0.75249100  1
  C  C10  1  0.49952300  0.49746900  0.07984300  1
  C  C11  1  0.50210300  0.50121800  0.92061800  1
  C  C12  1  0.62988300  0.52932300  0.95407200  1
  C  C13  1  0.63142000  0.50292200  0.04836800  1
  C  C14  1  0.50333200  0.50381200  0.82843000  1
  C  C15  1  0.49779800  0.49568400  0.17204100  1
  C  C16  1  0.49683700  0.49515700  0.24799000  1
  C  C17  1  0.10454600  0.76259700  0.47931600  1
  C  C18  1  0.12043500  0.29014000  0.58707900  1
  C  C19  1  0.04168700  0.86708100  0.43837800  1
  C  C20  1  0.06706000  0.16186100  0.59960800  1
  C  C21  1  0.93214200  0.83830200  0.40079000  1
  C  C22  1  0.95746900  0.13310800  0.56207800  1
  C  C23  1  0.87883700  0.70996900  0.41324200  1
  C  C24  1  0.89466900  0.23756700  0.52108500  1
  C  C25  1  0.93573100  0.60812700  0.46225500  1
  C  C26  1  0.94178500  0.37292600  0.51555600  1
  C  C27  1  0.05746800  0.62722400  0.48481000  1
  C  C28  1  0.06354100  0.39200200  0.53808100  1
  C  C29  1  0.87315500  0.48664200  0.48503100  1
  C  C30  1  0.12611100  0.51351800  0.51533300  1
  C  C31  1  0.64630100  0.14456500  0.61235600  1
  C  C32  1  0.65793600  0.86277800  0.60836000  1
  C  C33  1  0.71790700  0.07572200  0.66940500  1
  C  C34  1  0.72376900  0.93431800  0.66742000  1
  C  C35  1  0.57623000  0.92815400  0.55295900  1
  C  C36  1  0.56958700  0.07544000  0.55513700  1
  C  C37  1  0.42935700  0.92479800  0.44584200  1
  C  C38  1  0.42268900  0.07207400  0.44803600  1
  C  C39  1  0.35285100  0.85568100  0.38848200  1
  C  C40  1  0.34119200  0.13744400  0.39247500  1
  C  C41  1  0.28135400  0.92451700  0.33138100  1
  C  C42  1  0.27548100  0.06589400  0.33336900  1
  N  N1  1  0.50711500  0.85150400  0.49768400  1
  N  N2  1  0.49177100  0.14872800  0.50333400  1
  Cl  Cl1  1  0.29011500  0.65606200  0.09865100  1
  Cl  Cl2  1  0.28210600  0.35014700  0.06685300  1
  Cl  Cl3  1  0.51072400  0.21212800  0.09164600  1
  Cl  Cl4  1  0.52085500  0.78239900  0.06576700  1
  O  O1  1  0.32561400  0.62478900  0.50569600  1
  O  O2  1  0.31863800  0.38622000  0.50180500  1
  O  O3  1  0.50462300  0.61680000  0.37696100  1
  O  O4  1  0.48953900  0.37700800  0.37858500  1
  O  O5  1  0.68068900  0.61409500  0.49859800  1
  O  O6  1  0.67370900  0.37534100  0.49488200  1
  O  O7  1  0.50993700  0.62293600  0.62186200  1
  O  O8  1  0.49461800  0.38368500  0.62347300  1
