data_DB0-m3_o12_o29_f0_pcu.sym.25_repeat
_audit_creation_date              2024-02-20
_audit_creation_method            'Materials Studio'
_symmetry_space_group_name_H-M    'P1'
_symmetry_Int_Tables_number       1
_symmetry_cell_setting            triclinic
loop_
_symmetry_equiv_pos_as_xyz
  x,y,z
_cell_length_a                    10.0044
_cell_length_b                    11.2486
_cell_length_c                    27.6634
_cell_angle_alpha                 89.9797
_cell_angle_beta                  80.7857
_cell_angle_gamma                 92.4463
loop_
_atom_site_label
_atom_site_type_symbol
_atom_site_fract_x
_atom_site_fract_y
_atom_site_fract_z
_atom_site_U_iso_or_equiv
_atom_site_adp_type
_atom_site_occupancy
O1     O     0.42693   0.68984   0.50460   0.00000  Uiso   1.00
O2     O     0.57623   0.30838   0.49511   0.00000  Uiso   1.00
O3     O     0.65642   0.65863   0.49072   0.00000  Uiso   1.00
O4     O     0.34674   0.33959   0.50909   0.00000  Uiso   1.00
C1     C     0.55394   0.72909   0.49697   0.00000  Uiso   1.00
C2     C     0.44922   0.26913   0.50279   0.00000  Uiso   1.00
O5     O     0.38920   0.51420   0.57873   0.00000  Uiso   1.00
O6     O     0.61399   0.48418   0.42102   0.00000  Uiso   1.00
O7     O     0.61848   0.48271   0.56484   0.00000  Uiso   1.00
O8     O     0.38464   0.51535   0.43493   0.00000  Uiso   1.00
C3     C     0.50424   0.49828   0.59440   0.00000  Uiso   1.00
C4     C     0.49890   0.49995   0.40536   0.00000  Uiso   1.00
Zn1    Zn    0.35035   0.51984   0.50910   0.00000  Uiso   1.00
Zn2    Zn    0.65281   0.47838   0.49066   0.00000  Uiso   1.00
C5     C     0.58613   0.57243   0.81893   0.00000  Uiso   1.00
C6     C     0.42871   0.41670   0.18037   0.00000  Uiso   1.00
O9     O     0.66644   0.65081   0.78974   0.00000  Uiso   1.00
O10    O     0.36234   0.32933   0.20891   0.00000  Uiso   1.00
N1     N     0.50388   0.49514   0.79935   0.00000  Uiso   1.00
N2     N     0.49757   0.50344   0.20060   0.00000  Uiso   1.00
C7     C     0.42013   0.41760   0.82802   0.00000  Uiso   1.00
C8     C     0.56706   0.59087   0.17275   0.00000  Uiso   1.00
C9     C     0.62144   0.47393   0.71573   0.00000  Uiso   1.00
C10    C     0.37839   0.51401   0.28433   0.00000  Uiso   1.00
C11    C     0.62178   0.47493   0.66584   0.00000  Uiso   1.00
C12    C     0.37855   0.51342   0.33418   0.00000  Uiso   1.00
C13    C     0.38762   0.51980   0.67949   0.00000  Uiso   1.00
C14    C     0.61754   0.48851   0.32005   0.00000  Uiso   1.00
C15    C     0.38767   0.51912   0.72931   0.00000  Uiso   1.00
C16    C     0.61714   0.48969   0.27024   0.00000  Uiso   1.00
C17    C     0.50438   0.49593   0.74770   0.00000  Uiso   1.00
C18    C     0.49768   0.50246   0.25218   0.00000  Uiso   1.00
C19    C     0.50057   0.49612   0.89926   0.00000  Uiso   1.00
C20    C     0.49911   0.50357   0.10084   0.00000  Uiso   1.00
C21    C     0.58586   0.57352   0.86887   0.00000  Uiso   1.00
C22    C     0.42853   0.41575   0.13046   0.00000  Uiso   1.00
C23    C     0.67168   0.65174   0.88837   0.00000  Uiso   1.00
C24    C     0.35980   0.32554   0.11005   0.00000  Uiso   1.00
C25    C     0.41614   0.41724   0.87870   0.00000  Uiso   1.00
C26    C     0.56925   0.59258   0.12216   0.00000  Uiso   1.00
C27    C     0.50471   0.49770   0.64742   0.00000  Uiso   1.00
C28    C     0.49823   0.50060   0.35235   0.00000  Uiso   1.00
H1     H     0.29482   0.53841   0.66618   0.00000  Uiso   1.00
H2     H     0.71250   0.47819   0.33316   0.00000  Uiso   1.00
H3     H     0.29580   0.53789   0.75391   0.00000  Uiso   1.00
H4     H     0.71090   0.47949   0.24537   0.00000  Uiso   1.00
H5     H     0.74205   0.71130   0.86532   0.00000  Uiso   1.00
H6     H     0.30658   0.25389   0.13220   0.00000  Uiso   1.00
C29    C     0.57475   0.58765   0.02062   0.00000  Uiso   1.00
C30    C     0.41797   0.41696   0.97985   0.00000  Uiso   1.00
C31    C     0.42405   0.41401   0.03009   0.00000  Uiso   1.00
C32    C     0.58193   0.58125   0.96968   0.00000  Uiso   1.00
C33    C     0.49929   0.50180   0.05042   0.00000  Uiso   1.00
C34    C     0.50013   0.49809   0.94970   0.00000  Uiso   1.00
C35    C     0.64023   0.67921   0.04271   0.00000  Uiso   1.00
C36    C     0.32982   0.34139   0.95895   0.00000  Uiso   1.00
C37    C     0.63829   0.68201   0.09246   0.00000  Uiso   1.00
C38    C     0.32862   0.34082   0.90936   0.00000  Uiso   1.00
O11    O     0.63192   0.67679   0.19491   0.00000  Uiso   1.00
O12    O     0.34362   0.33908   0.80659   0.00000  Uiso   1.00
C39    C     0.67048   0.65544   0.93795   0.00000  Uiso   1.00
C40    C     0.35774   0.32414   0.06065   0.00000  Uiso   1.00
H7     H     0.28388   0.52307   0.35854   0.00000  Uiso   1.00
H8     H     0.71457   0.45696   0.64165   0.00000  Uiso   1.00
H9     H     0.28441   0.52483   0.27054   0.00000  Uiso   1.00
H10    H     0.71320   0.45461   0.72967   0.00000  Uiso   1.00
H11    H     0.69163   0.75424   0.02272   0.00000  Uiso   1.00
H12    H     0.25507   0.28288   0.98017   0.00000  Uiso   1.00
H13    H     0.74477   0.71594   0.94966   0.00000  Uiso   1.00
H14    H     0.30603   0.24777   0.04774   0.00000  Uiso   1.00
H15    H     0.62373   0.09417   0.49260   0.00000  Uiso   1.00
H16    H     0.37944   0.90405   0.50714   0.00000  Uiso   1.00
C41    C     0.58381   0.85788   0.49518   0.00000  Uiso   1.00
C42    C     0.41935   0.14035   0.50458   0.00000  Uiso   1.00
C43    C     0.48489   0.93494   0.50092   0.00000  Uiso   1.00
C44    C     0.51828   0.06328   0.49882   0.00000  Uiso   1.00
H17    H     0.31446   0.10771   0.51082   0.00000  Uiso   1.00
H18    H     0.68871   0.89051   0.48896   0.00000  Uiso   1.00
H19    H     0.11845   0.42738   0.46881   0.00000  Uiso   1.00
H20    H     0.88471   0.57083   0.53095   0.00000  Uiso   1.00
N3     N     0.85148   0.45051   0.47825   0.00000  Uiso   1.00
N4     N     0.15168   0.54771   0.52151   0.00000  Uiso   1.00
C45    C     0.92838   0.50829   0.50371   0.00000  Uiso   1.00
C46    C     0.07478   0.48992   0.49605   0.00000  Uiso   1.00
H21    H     0.10430   0.60583   0.54669   0.00000  Uiso   1.00
H22    H     0.89886   0.39240   0.45307   0.00000  Uiso   1.00
N5     N     0.70842   0.77900   0.11199   0.00000  Uiso   1.00
H23    H     0.80977   0.77931   0.09534   0.00000  Uiso   1.00
H24    H     0.66712   0.85756   0.10228   0.00000  Uiso   1.00
N6     N     0.23421   0.26116   0.89111   0.00000  Uiso   1.00
H25    H     0.13708   0.28114   0.90823   0.00000  Uiso   1.00
H26    H     0.25350   0.17494   0.90129   0.00000  Uiso   1.00
