# generated using pymatgen
data_ZnH5C10N3O4
_symmetry_space_group_name_H-M   'P 1'
_cell_length_a   8.52037200
_cell_length_b   12.33837000
_cell_length_c   12.67415300
_cell_angle_alpha   94.78437100
_cell_angle_beta   86.38235300
_cell_angle_gamma   90.86755700
_symmetry_Int_Tables_number   1
_chemical_formula_structural   ZnH5C10N3O4
_chemical_formula_sum   'Zn2 H10 C20 N6 O8'
_cell_volume   1325.04835016
_cell_formula_units_Z   2
loop_
 _symmetry_equiv_pos_site_id
 _symmetry_equiv_pos_as_xyz
  1  'x, y, z'
loop_
 _atom_site_type_symbol
 _atom_site_label
 _atom_site_symmetry_multiplicity
 _atom_site_fract_x
 _atom_site_fract_y
 _atom_site_fract_z
 _atom_site_occupancy
  Zn  Zn1  1  0.50242200  0.11839500  0.48399100  1
  Zn  Zn2  1  0.49757900  0.88160500  0.51600900  1
  H  H1  1  0.78583600  0.99485500  0.14467000  1
  H  H2  1  0.21416500  0.00514600  0.85533000  1
  H  H3  1  0.51287500  0.50108800  0.37917800  1
  H  H4  1  0.48712600  0.49891300  0.62082300  1
  H  H5  1  0.99963500  0.93063200  0.42537100  1
  H  H6  1  0.00036600  0.06936800  0.57462900  1
  H  H7  1  0.41357700  0.96716000  0.17917100  1
  H  H8  1  0.33636100  0.06795500  0.11621500  1
  H  H9  1  0.58642400  0.03284100  0.82082900  1
  H  H10  1  0.66364000  0.93204500  0.88378500  1
  C  C1  1  0.15775100  0.95388400  0.29254000  1
  C  C2  1  0.84225000  0.04611700  0.70746100  1
  C  C3  1  0.17290900  0.97423600  0.18673400  1
  C  C4  1  0.82709200  0.02576400  0.81326600  1
  C  C5  1  0.04053000  0.98334600  0.13126200  1
  C  C6  1  0.95947000  0.01665400  0.86873800  1
  C  C7  1  0.89176500  0.97983000  0.18357400  1
  C  C8  1  0.10823600  0.02017000  0.81642600  1
  C  C9  1  0.87771300  0.95831800  0.28920000  1
  C  C10  1  0.12228800  0.04168200  0.71080000  1
  C  C11  1  0.01063500  0.94124800  0.34147300  1
  C  C12  1  0.98936600  0.05875200  0.65852700  1
  C  C13  1  0.49524100  0.53280800  0.54443900  1
  C  C14  1  0.50475900  0.46719200  0.45556100  1
  C  C15  1  0.28948600  0.96776800  0.36014000  1
  C  C16  1  0.71051500  0.03223200  0.63986000  1
  C  C17  1  0.27127800  0.02941700  0.64675900  1
  C  C18  1  0.72872200  0.97058300  0.35324100  1
  C  C19  1  0.50429200  0.35123200  0.46095000  1
  C  C20  1  0.49570900  0.64876900  0.53905000  1
  N  N1  1  0.06270900  0.00056200  0.02243000  1
  N  N2  1  0.93729100  0.99943800  0.97757000  1
  N  N3  1  0.49618400  0.74189800  0.53350300  1
  N  N4  1  0.50381600  0.25810200  0.46649700  1
  N  N5  1  0.32341500  0.98660000  0.13241400  1
  N  N6  1  0.67658500  0.01340000  0.86758600  1
  O  O1  1  0.33438300  0.88438700  0.40796000  1
  O  O2  1  0.66561700  0.11561300  0.59204000  1
  O  O3  1  0.34538500  0.06661700  0.37819700  1
  O  O4  1  0.65461600  0.93338300  0.62180300  1
  O  O5  1  0.32529900  0.11271500  0.59674500  1
  O  O6  1  0.67470100  0.88728500  0.40325600  1
  O  O7  1  0.32726100  0.93077400  0.62648600  1
  O  O8  1  0.67274000  0.06922600  0.37351500  1
