# Generated by REPEAT Assigner based on pymatgen
data_DB0-m2_o4_o4_f0_nbo.sym.65
_audit_creation_date              2022-05-24
_audit_creation_method            REPEAT_Assigner
_cell_length_a                    30.329305
_cell_length_b                    21.714410
_cell_length_c                    21.621883
_cell_angle_alpha                 90.000000
_cell_angle_beta                  134.535879
_cell_angle_gamma                 90.000000
_cell_volume                      10150.294695
_symmetry_space_group_name_H-M    P1
_symmetry_Int_Tables_number       1
loop_
    _symmetry_equiv_pos_site_id
    _symmetry_equiv_pos_as_xyz
    1  x,y,z
loop_
    _atom_site_type_symbol
    _atom_site_label
    _atom_site_fract_x
    _atom_site_fract_y
    _atom_site_fract_z
    _atom_type_partial_charge
    O   O1    0.084237  0.484024  0.139174  -0.634559
    O   O2    0.584237  0.984024  0.139174  -0.634542
    O   O3    0.085346  0.521049  0.039197  -0.603021
    O   O4    0.585346  0.021049  0.039197  -0.603045
    C   C1    0.113848  0.503129  0.118321  0.807000
    C   C2    0.613848  0.003129  0.118321  0.807001
    O   O5    0.012709  0.588666  0.068310  -0.605572
    O   O6    0.979226  0.412754  0.033486  -0.622078
    O   O7    0.512709  0.088666  0.068310  -0.605570
    O   O8    0.479226  0.912754  0.033486  -0.622089
    O   O9    0.977996  0.588799  0.932255  -0.611785
    O   O10   0.017353  0.414080  0.970331  -0.605891
    O   O11   0.477996  0.088799  0.932255  -0.611787
    O   O12   0.517353  0.914080  0.970331  -0.605905
    C   C3    0.995055  0.617864  0.000139  0.784496
    C   C4    0.998847  0.384264  0.002282  0.796388
    C   C5    0.495055  0.117864  0.000139  0.784493
    C   C6    0.498847  0.884264  0.002282  0.796406
    Cu  Cu1   0.995775  0.500643  0.060238  0.966102
    Cu  Cu2   0.495775  0.000643  0.060238  0.966117
    Cu  Cu3   0.997826  0.501509  0.941928  0.947701
    Cu  Cu4   0.497826  0.001509  0.941928  0.947685
    O   O13   0.907623  0.517395  0.962615  -0.639667
    O   O14   0.407623  0.017395  0.962615  -0.639674
    O   O15   0.909977  0.481830  0.863366  -0.612430
    O   O16   0.409977  0.981830  0.863366  -0.612419
    C   C7    0.879708  0.499006  0.883902  0.836948
    C   C8    0.379708  0.999006  0.883902  0.836950
    C   C9    0.032190  0.719533  0.074931  0.202945
    C   C10   0.964295  0.282484  0.008222  0.222177
    C   C11   0.532190  0.219533  0.074931  0.202940
    C   C12   0.464295  0.782484  0.008222  0.222178
    C   C13   0.994097  0.685715  0.999684  -0.252702
    C   C14   0.999267  0.316363  0.002042  -0.264926
    C   C15   0.494097  0.185715  0.999684  -0.252693
    C   C16   0.499267  0.816363  0.002042  -0.264926
    C   C17   0.954485  0.719364  0.923012  -0.040955
    C   C18   0.034542  0.282706  0.994910  -0.050651
    C   C19   0.454485  0.219364  0.923012  -0.040957
    C   C20   0.534542  0.782706  0.994910  -0.050648
    H   H1    0.922933  0.695761  0.861281  0.119221
    H   H2    0.063534  0.306207  0.990260  0.119952
    H   H3    0.422933  0.195761  0.861281  0.119220
    H   H4    0.563534  0.806207  0.990260  0.119952
    C   C21   0.953838  0.783822  0.924484  -0.124016
    C   C22   0.034541  0.218193  0.996305  -0.126418
    C   C23   0.453838  0.283822  0.924484  -0.124012
    C   C24   0.534541  0.718193  0.996305  -0.126421
    H   H5    0.922302  0.808477  0.863612  0.134432
    H   H6    0.063269  0.193375  0.992136  0.136058
    H   H7    0.422302  0.308477  0.863612  0.134433
    H   H8    0.563269  0.693375  0.992136  0.136058
    C   C25   0.994058  0.816204  0.002476  -0.171516
    C   C26   0.997215  0.185871  0.000854  -0.111601
    C   C27   0.494058  0.316204  0.002476  -0.171531
    C   C28   0.497215  0.685871  0.000854  -0.111597
    C   C29   0.032753  0.780969  0.076668  0.084105
    C   C30   0.961302  0.221103  0.004597  0.067517
    C   C31   0.532753  0.280969  0.076668  0.084114
    C   C32   0.461302  0.721103  0.004597  0.067512
    C   C33   0.082762  0.784411  0.172866  -0.113462
    C   C34   0.917454  0.218042  0.014557  -0.138333
    C   C35   0.582762  0.284411  0.172866  -0.113464
    C   C36   0.417454  0.718042  0.014557  -0.138334
    C   C37   0.082428  0.712536  0.170476  -0.209639
    C   C38   0.920943  0.289848  0.018075  -0.215699
    C   C39   0.582428  0.212536  0.170476  -0.209643
    C   C40   0.420943  0.789848  0.018075  -0.215696
    H   H9    0.126129  0.805379  0.198021  0.100779
    H   H10   0.937460  0.196726  0.076337  0.096208
    H   H11   0.626129  0.305379  0.198021  0.100781
    H   H12   0.437460  0.696726  0.076337  0.096208
    H   H13   0.066094  0.690578  0.197728  0.096511
    H   H14   0.877559  0.312984  0.960981  0.099978
    H   H15   0.566094  0.190578  0.197728  0.096513
    H   H16   0.377559  0.812984  0.960981  0.099977
    H   H17   0.125015  0.692971  0.191607  0.095489
    H   H18   0.944086  0.308738  0.082485  0.105638
    H   H19   0.625015  0.192971  0.191607  0.095492
    H   H20   0.444086  0.808738  0.082485  0.105637
    C   C41   0.215059  0.467614  0.258313  0.176942
    C   C42   0.715059  0.967614  0.258313  0.176936
    C   C43   0.181609  0.504610  0.186342  -0.275394
    C   C44   0.681609  0.004610  0.186342  -0.275381
    C   C45   0.215417  0.543487  0.181318  -0.073772
    C   C46   0.715417  0.043487  0.181318  -0.073779
    H   H21   0.191867  0.574215  0.126662  0.118298
    H   H22   0.691867  0.074215  0.126662  0.118301
    C   C47   0.280009  0.544463  0.247514  -0.067510
    C   C48   0.780009  0.044463  0.247514  -0.067506
    H   H23   0.305132  0.575379  0.242171  0.121121
    H   H24   0.805132  0.075379  0.242171  0.121118
    C   C49   0.311848  0.504970  0.318174  -0.280706
    C   C50   0.811848  0.004970  0.318174  -0.280721
    C   C51   0.276487  0.466847  0.319537  0.205292
    C   C52   0.776487  0.966847  0.319537  0.205298
    C   C53   0.280651  0.418341  0.371724  -0.208203
    C   C54   0.780651  0.918341  0.371724  -0.208208
    C   C55   0.208462  0.419000  0.299549  -0.133481
    C   C56   0.708462  0.919000  0.299549  -0.133476
    H   H25   0.300268  0.435966  0.434985  0.088400
    H   H26   0.300671  0.374937  0.373272  0.093012
    H   H27   0.800268  0.935966  0.434985  0.088399
    H   H28   0.800671  0.874937  0.373272  0.093013
    H   H29   0.187779  0.436768  0.322616  0.075967
    H   H30   0.188253  0.376032  0.260689  0.065542
    H   H31   0.687779  0.936768  0.322616  0.075966
    H   H32   0.688253  0.876032  0.260689  0.065540
    C   C57   0.776997  0.534000  0.820056  0.204596
    C   C58   0.276997  0.034000  0.820056  0.204561
    C   C59   0.811880  0.497565  0.816043  -0.295920
    C   C60   0.311880  0.997565  0.816043  -0.295926
    C   C61   0.779435  0.459421  0.743918  -0.058843
    C   C62   0.279435  0.959421  0.743918  -0.058814
    H   H33   0.804108  0.429219  0.737040  0.118526
    H   H34   0.304108  0.929219  0.737040  0.118519
    C   C63   0.714755  0.458503  0.680484  -0.099476
    C   C64   0.214755  0.958503  0.680484  -0.099500
    H   H35   0.690768  0.428085  0.625423  0.128922
    H   H36   0.190768  0.928085  0.625423  0.128929
    C   C65   0.681478  0.497373  0.686532  -0.249166
    C   C66   0.181478  0.997373  0.686532  -0.249143
    C   C67   0.715565  0.534845  0.758121  0.174656
    C   C68   0.215565  0.034845  0.758121  0.174707
    C   C69   0.709662  0.582545  0.801035  -0.149835
    C   C70   0.209662  0.082545  0.801035  -0.149866
    C   C71   0.781838  0.581815  0.873539  -0.177816
    C   C72   0.281838  0.081815  0.873539  -0.177793
    H   H37   0.688415  0.564203  0.823031  0.070491
    H   H38   0.690338  0.626282  0.763918  0.077725
    H   H39   0.188415  0.064203  0.823031  0.070500
    H   H40   0.190338  0.126282  0.763918  0.077726
    H   H41   0.800879  0.563305  0.936117  0.085639
    H   H42   0.802764  0.625054  0.876599  0.073684
    H   H43   0.300879  0.063305  0.936117  0.085633
    H   H44   0.302764  0.125054  0.876599  0.073682
    O   O17   0.945049  0.018064  0.864900  -0.636332
    O   O18   0.445049  0.518064  0.864900  -0.636317
    O   O19   0.046074  0.981027  0.964491  -0.608414
    O   O20   0.546074  0.481027  0.964491  -0.608436
    C   C73   0.995457  0.999003  0.885519  0.833083
    C   C74   0.495457  0.499003  0.885519  0.833087
    O   O21   0.944312  0.913610  0.936008  -0.603770
    O   O22   0.946262  0.089561  0.970973  -0.535981
    O   O23   0.444312  0.413610  0.936008  -0.603759
    O   O24   0.446262  0.589561  0.970973  -0.535983
    O   O25   0.045885  0.913124  0.071550  -0.590735
    O   O26   0.047346  0.087948  0.033851  -0.592982
    O   O27   0.545885  0.413124  0.071550  -0.590756
    O   O28   0.547346  0.587948  0.033851  -0.592990
    C   C75   0.994783  0.884173  0.003849  0.741716
    C   C76   0.997017  0.117954  0.002222  0.658282
    C   C77   0.494783  0.384173  0.003849  0.741730
    C   C78   0.497017  0.617954  0.002222  0.658288
    Cu  Cu5   0.935764  0.001683  0.944169  0.975226
    Cu  Cu6   0.435764  0.501683  0.944169  0.975233
    Cu  Cu7   0.056135  0.000454  0.062039  0.926235
    Cu  Cu8   0.556135  0.500454  0.062039  0.926248
    O   O29   0.945449  0.985162  0.042026  -0.622909
    O   O30   0.445449  0.485162  0.042026  -0.622937
    O   O31   0.047227  0.020111  0.141005  -0.582446
    O   O32   0.547227  0.520111  0.141005  -0.582435
    C   C79   0.996372  0.003563  0.120625  0.797684
    C   C80   0.496372  0.503563  0.120625  0.797689
    O   O33   0.517080  0.552911  0.437154  -0.623771
    O   O34   0.477852  0.453011  0.396143  -0.617945
    O   O35   0.017080  0.052911  0.437154  -0.623755
    O   O36   0.977852  0.953011  0.396143  -0.617951
    C   C81   0.497661  0.503563  0.387788  0.815648
    C   C82   0.997661  0.003563  0.387788  0.815649
    O   O37   0.410038  0.553992  0.400292  -0.619752
    O   O38   0.407244  0.452481  0.432315  -0.624372
    O   O39   0.910038  0.053992  0.400292  -0.619735
    O   O40   0.907244  0.952481  0.432315  -0.624409
    C   C83   0.379590  0.503811  0.387057  0.808182
    C   C84   0.879590  0.003811  0.387057  0.808200
    Cu  Cu9   0.497998  0.561086  0.506343  0.964589
    Cu  Cu10  0.495180  0.441354  0.501110  0.956585
    Cu  Cu11  0.997998  0.061086  0.506343  0.964596
    Cu  Cu12  0.995180  0.941354  0.501110  0.956569
    O   O41   0.478465  0.550302  0.574712  -0.630888
    O   O42   0.512936  0.448669  0.606880  -0.612889
    O   O43   0.978465  0.050302  0.574712  -0.630880
    O   O44   0.012936  0.948669  0.606880  -0.612887
    O   O45   0.585550  0.549208  0.611523  -0.617838
    O   O46   0.583533  0.449196  0.570627  -0.603512
    O   O47   0.085550  0.049208  0.611523  -0.617823
    O   O48   0.083533  0.949196  0.570627  -0.603457
    C   C85   0.495510  0.498922  0.619671  0.794004
    C   C86   0.995510  0.998922  0.619671  0.794019
    C   C87   0.613634  0.498608  0.619771  0.798709
    C   C88   0.113634  0.998608  0.619771  0.798608
    C   C89   0.957640  0.034936  0.746081  0.160548
    C   C90   0.457640  0.534936  0.746081  0.160553
    C   C91   0.995427  0.997536  0.817704  -0.264959
    C   C92   0.495427  0.497536  0.817704  -0.264953
    C   C93   0.034486  0.958584  0.823291  -0.098180
    C   C94   0.534486  0.458584  0.823291  -0.098177
    H   H45   0.065194  0.927658  0.877815  0.122348
    H   H46   0.565194  0.427658  0.877815  0.122345
    C   C95   0.533767  0.457844  0.757966  -0.067195
    C   C96   0.033767  0.957844  0.757966  -0.067155
    H   H47   0.564360  0.426794  0.763782  0.124455
    H   H48   0.064360  0.926794  0.763782  0.124434
    C   C97   0.495714  0.497726  0.687665  -0.273569
    C   C98   0.995714  0.997726  0.687665  -0.273624
    C   C99   0.458743  0.535970  0.685723  0.221937
    C   C100  0.958743  0.035970  0.685723  0.221964
    C   C101  0.411145  0.584845  0.633509  -0.209344
    C   C102  0.911145  0.084845  0.633509  -0.209344
    C   C103  0.910147  0.083911  0.704712  -0.154320
    C   C104  0.410147  0.583911  0.704712  -0.154314
    H   H49   0.367668  0.567585  0.569735  0.088783
    H   H50   0.430165  0.628207  0.632917  0.091412
    H   H51   0.867668  0.067585  0.569735  0.088783
    H   H52   0.930165  0.128207  0.632917  0.091413
    H   H53   0.866008  0.066404  0.680612  0.084713
    H   H54   0.928889  0.126624  0.744110  0.080052
    H   H55   0.366008  0.566404  0.680612  0.084712
    H   H56   0.428889  0.626624  0.744110  0.080049
    C   C105  0.957288  0.969946  0.184665  0.206470
    C   C106  0.457288  0.469946  0.184665  0.206460
    C   C107  0.996861  0.005223  0.188915  -0.242728
    C   C108  0.496861  0.505223  0.188915  -0.242726
    C   C109  0.038236  0.041966  0.262256  -0.095195
    C   C110  0.538236  0.541966  0.262256  -0.095193
    H   H57   0.070496  0.071160  0.269532  0.112719
    H   H58   0.570496  0.571160  0.269532  0.112721
    C   C111  0.537950  0.542728  0.326626  -0.081096
    C   C112  0.037950  0.042728  0.326626  -0.081095
    H   H59   0.570276  0.572083  0.382610  0.124955
    H   H60   0.070276  0.072083  0.382610  0.124959
    C   C113  0.497998  0.504895  0.320350  -0.266620
    C   C114  0.997998  0.004895  0.320350  -0.266621
    C   C115  0.458842  0.468741  0.247594  0.175486
    C   C116  0.958842  0.968741  0.247594  0.175477
    C   C117  0.408592  0.422634  0.203925  -0.168586
    C   C118  0.908592  0.922634  0.203925  -0.168588
    C   C119  0.906966  0.923808  0.130170  -0.181135
    C   C120  0.406966  0.423808  0.130170  -0.181140
    H   H61   0.366387  0.442266  0.183858  0.071450
    H   H62   0.425308  0.378225  0.239393  0.088157
    H   H63   0.866387  0.942266  0.183858  0.071450
    H   H64   0.925308  0.878225  0.239393  0.088156
    H   H65   0.863714  0.943856  0.068785  0.084537
    H   H66   0.922922  0.880133  0.124686  0.080521
    H   H67   0.363714  0.443856  0.068785  0.084538
    H   H68   0.422922  0.380133  0.124686  0.080522
    C   C121  0.060059  0.808950  0.212208  0.647886
    F   F1    0.058869  0.872487  0.209487  -0.219312
    F   F2    0.099701  0.789960  0.297590  -0.236931
    F   F3    0.001212  0.787052  0.166215  -0.202973
    C   C122  0.853351  0.195340  0.933814  0.705100
    F   F4    0.849430  0.132561  0.939406  -0.253197
    F   F5    0.841740  0.208454  0.860910  -0.234295
    F   F6    0.809603  0.224104  0.927376  -0.240718
    C   C123  0.560059  0.308950  0.212208  0.647878
    F   F7    0.558869  0.372487  0.209487  -0.219308
    F   F8    0.599701  0.289960  0.297590  -0.236927
    F   F9    0.501212  0.287052  0.166215  -0.202972
    C   C124  0.353351  0.695340  0.933814  0.705099
    F   F10   0.349430  0.632561  0.939406  -0.253197
    F   F11   0.341740  0.708454  0.860910  -0.234294
    F   F12   0.309603  0.724104  0.927376  -0.240717
