# Generated by REPEAT Assigner based on pymatgen
data_DB0-m3_o490_o21_f0_fsc.sym.17_sqe
_audit_creation_date              2022-05-24
_audit_creation_method            REPEAT_Assigner
_cell_length_a                    12.354588
_cell_length_b                    8.559795
_cell_length_c                    10.677015
_cell_angle_alpha                 90.000000
_cell_angle_beta                  92.519480
_cell_angle_gamma                 90.000000
_cell_volume                      1128.032121
_symmetry_space_group_name_H-M    P1
_symmetry_Int_Tables_number       1
loop_
    _symmetry_equiv_pos_site_id
    _symmetry_equiv_pos_as_xyz
    1  x,y,z
loop_
    _atom_site_type_symbol
    _atom_site_label
    _atom_site_fract_x
    _atom_site_fract_y
    _atom_site_fract_z
    _atom_type_partial_charge
    C   C1   0.046968  0.981044  0.683687  -0.140451
    C   C2   0.952925  0.975891  0.314706  -0.148161
    C   C3   0.040853  0.120501  0.746883  -0.182012
    C   C4   0.959030  0.836443  0.251497  -0.173174
    C   C5   0.971983  0.115354  0.255488  -0.144092
    C   C6   0.027900  0.841588  0.742912  -0.159948
    C   C7   0.026779  0.118912  0.874771  0.107514
    C   C8   0.973100  0.838041  0.123613  0.100526
    C   C9   0.993891  0.116275  0.129538  0.082571
    C   C10  0.005990  0.840677  0.868856  0.103949
    C   C11  0.032706  0.255576  0.942630  -0.196968
    C   C12  0.967162  0.701379  0.055755  -0.188551
    C   C13  0.017862  0.254072  0.069605  -0.186996
    C   C14  0.982008  0.702883  0.928784  -0.204879
    N   N1   0.740380  0.468374  0.535682  -0.085023
    N   N2   0.259480  0.488833  0.462714  -0.084580
    C   C15  0.531365  0.477732  0.552153  0.136884
    C   C16  0.468641  0.498843  0.448474  0.140403
    C   C17  0.008925  0.979023  0.935646  0.034599
    C   C18  0.990960  0.977932  0.062744  0.048518
    C   C19  0.352634  0.493012  0.455822  0.088489
    C   C20  0.647273  0.471574  0.543399  0.095050
    Zn  Zn1  0.119154  0.482808  0.482227  1.069819
    Zn  Zn2  0.880717  0.474146  0.516160  1.062222
    H   H1   0.053552  0.363521  0.897947  0.112809
    H   H2   0.946305  0.593435  0.100432  0.111096
    H   H3   0.025934  0.361918  0.120880  0.137321
    H   H4   0.973926  0.595037  0.877512  0.138829
    H   H5   0.058426  0.981843  0.584166  0.143260
    H   H6   0.941473  0.975080  0.414228  0.144450
    O   O1   0.929736  0.309749  0.641217  -0.699508
    O   O2   0.070098  0.647191  0.357183  -0.701394
    O   O3   0.077674  0.310502  0.361016  -0.691240
    O   O4   0.922244  0.646433  0.637366  -0.700338
    O   O5   0.114538  0.320981  0.619161  -0.719312
    O   O6   0.885394  0.635974  0.379238  -0.676977
    O   O7   0.892588  0.308757  0.383114  -0.721602
    O   O8   0.107241  0.648182  0.615272  -0.700804
    C   C21  0.028884  0.263288  0.671328  0.905374
    C   C22  0.970994  0.693643  0.327029  0.868981
    C   C23  0.980453  0.255964  0.332786  0.854611
    C   C24  0.019426  0.700966  0.665633  0.846460
    N   N3   0.515902  0.518578  0.331004  -0.201774
    C   C25  0.437544  0.516131  0.227115  -0.208615
    C   C26  0.585825  0.653099  0.328460  0.050586
    H   H7   0.390774  0.405516  0.227969  0.103331
    H   H8   0.479927  0.521603  0.137731  0.133491
    H   H9   0.381816  0.617322  0.232799  0.098566
    H   H10  0.578896  0.722670  0.415351  0.034598
    H   H11  0.562162  0.728646  0.247452  0.039036
    H   H12  0.670775  0.614587  0.319264  0.033996
    N   N4   0.483969  0.454503  0.669160  -0.188302
    C   C27  0.561693  0.411250  0.767527  -0.189965
    C   C28  0.417182  0.584039  0.704024  -0.001631
    H   H13  0.605889  0.304652  0.740049  0.097953
    H   H14  0.518979  0.384532  0.854250  0.118145
    H   H15  0.619779  0.508246  0.786230  0.098079
    H   H16  0.426440  0.682651  0.637996  0.048994
    H   H17  0.442002  0.625074  0.799519  0.047970
    H   H18  0.331223  0.546651  0.703488  0.057820
