# Generated by REPEAT Assigner based on pymatgen
data_DB0-m2_o1_o27_f0_nbo.sym.119_sqe
_audit_creation_date              2022-05-24
_audit_creation_method            REPEAT_Assigner
_cell_length_a                    21.546020
_cell_length_b                    21.546020
_cell_length_c                    38.265768
_cell_angle_alpha                 90.000000
_cell_angle_beta                  90.000000
_cell_angle_gamma                 90.000000
_cell_volume                      17764.154613
_symmetry_space_group_name_H-M    P1
_symmetry_Int_Tables_number       1
loop_
    _symmetry_equiv_pos_site_id
    _symmetry_equiv_pos_as_xyz
    1  x,y,z
loop_
    _atom_site_type_symbol
    _atom_site_label
    _atom_site_fract_x
    _atom_site_fract_y
    _atom_site_fract_z
    _atom_type_partial_charge
    O   O1    0.448377  0.911220  0.008676  -0.688466
    O   O2    0.088780  0.448377  0.008676  -0.688455
    O   O3    0.551623  0.088780  0.008676  -0.688462
    O   O4    0.911220  0.551623  0.008676  -0.688468
    O   O5    0.448377  0.088780  0.991324  -0.688463
    O   O6    0.088780  0.551623  0.991324  -0.688481
    O   O7    0.551623  0.911220  0.991324  -0.688460
    O   O8    0.911220  0.448377  0.991324  -0.688457
    O   O9    0.948377  0.411220  0.508676  -0.688451
    O   O10   0.588780  0.948377  0.508676  -0.688499
    O   O11   0.051623  0.588780  0.508676  -0.688451
    O   O12   0.411220  0.051623  0.508676  -0.688461
    O   O13   0.948377  0.588780  0.491324  -0.688457
    O   O14   0.588780  0.051623  0.491324  -0.688471
    O   O15   0.051623  0.411220  0.491324  -0.688444
    O   O16   0.411220  0.948377  0.491324  -0.688493
    C   C1    0.500000  0.882157  0.000000  0.881326
    C   C2    0.117843  0.500000  0.000000  0.881337
    C   C3    0.500000  0.117843  0.000000  0.881324
    C   C4    0.882157  0.500000  0.000000  0.881325
    C   C5    0.000000  0.382157  0.500000  0.881300
    C   C6    0.617843  0.000000  0.500000  0.881340
    C   C7    0.000000  0.617843  0.500000  0.881306
    C   C8    0.382157  0.000000  0.500000  0.881334
    O   O17   0.448399  0.984534  0.949875  -0.576272
    O   O18   0.015466  0.448399  0.949875  -0.576259
    O   O19   0.551601  0.015466  0.949875  -0.576269
    O   O20   0.984534  0.551601  0.949875  -0.576274
    O   O21   0.448399  0.015466  0.050125  -0.576270
    O   O22   0.015466  0.551601  0.050125  -0.576273
    O   O23   0.551601  0.984534  0.050125  -0.576269
    O   O24   0.984534  0.448399  0.050125  -0.576259
    O   O25   0.948399  0.484534  0.449875  -0.576272
    O   O26   0.515466  0.948399  0.449875  -0.576310
    O   O27   0.051601  0.515466  0.449875  -0.576267
    O   O28   0.484534  0.051601  0.449875  -0.576281
    O   O29   0.948399  0.515466  0.550125  -0.576287
    O   O30   0.515466  0.051601  0.550125  -0.576297
    O   O31   0.051601  0.484534  0.550125  -0.576275
    O   O32   0.484534  0.948399  0.550125  -0.576322
    C   C9    0.500000  0.000000  0.933525  0.685336
    C   C10   0.000000  0.500000  0.933525  0.685329
    C   C11   0.500000  0.000000  0.066475  0.685370
    C   C12   0.000000  0.500000  0.066475  0.685358
    C   C13   0.000000  0.500000  0.433525  0.685376
    C   C14   0.500000  0.000000  0.433525  0.685391
    C   C15   0.000000  0.500000  0.566475  0.685391
    C   C16   0.500000  0.000000  0.566475  0.685411
    Cu  Cu1   0.439131  0.000000  0.000000  0.992115
    Cu  Cu2   0.000000  0.439132  0.000000  0.992146
    Cu  Cu3   0.560868  0.000000  0.000000  0.992110
    Cu  Cu4   0.000000  0.560869  0.000000  0.992115
    Cu  Cu5   0.939131  0.500000  0.500000  0.992108
    Cu  Cu6   0.500000  0.939131  0.500000  0.992085
    Cu  Cu7   0.060868  0.500000  0.500000  0.992099
    Cu  Cu8   0.500000  0.060868  0.500000  0.992121
    C   C17   0.554091  0.988047  0.877242  -0.110803
    C   C18   0.011953  0.554092  0.877242  -0.110808
    C   C19   0.445908  0.011953  0.877242  -0.110808
    C   C20   0.988047  0.445909  0.877242  -0.110803
    C   C21   0.554091  0.011953  0.122758  -0.110794
    C   C22   0.011953  0.445909  0.122758  -0.110803
    C   C23   0.445908  0.988047  0.122758  -0.110806
    C   C24   0.988047  0.554092  0.122758  -0.110807
    C   C25   0.054091  0.488047  0.377242  -0.110800
    C   C26   0.511953  0.054091  0.377242  -0.110781
    C   C27   0.945908  0.511953  0.377242  -0.110807
    C   C28   0.488047  0.945908  0.377242  -0.110783
    C   C29   0.054091  0.511953  0.622758  -0.110813
    C   C30   0.511953  0.945908  0.622758  -0.110802
    C   C31   0.945908  0.488047  0.622758  -0.110817
    C   C32   0.488047  0.054091  0.622758  -0.110788
    H   H1    0.596675  0.978170  0.891090  0.101646
    H   H2    0.021830  0.596675  0.891090  0.101646
    H   H3    0.403325  0.021830  0.891090  0.101652
    H   H4    0.978170  0.403325  0.891090  0.101641
    H   H5    0.596675  0.021830  0.108910  0.101648
    H   H6    0.021830  0.403325  0.108910  0.101642
    H   H7    0.403325  0.978170  0.108910  0.101654
    H   H8    0.978170  0.596675  0.108910  0.101646
    H   H9    0.096675  0.478170  0.391090  0.101641
    H   H10   0.521830  0.096675  0.391090  0.101642
    H   H11   0.903325  0.521830  0.391090  0.101647
    H   H12   0.478170  0.903325  0.391090  0.101649
    H   H13   0.096675  0.521830  0.608910  0.101645
    H   H14   0.521830  0.903325  0.608910  0.101651
    H   H15   0.903325  0.478170  0.608910  0.101651
    H   H16   0.478170  0.096675  0.608910  0.101643
    C   C33   0.553781  0.986686  0.841230  0.045462
    C   C34   0.013314  0.553781  0.841230  0.045508
    C   C35   0.446219  0.013314  0.841230  0.045464
    C   C36   0.986686  0.446219  0.841230  0.045507
    C   C37   0.553781  0.013314  0.158770  0.045455
    C   C38   0.013314  0.446219  0.158770  0.045509
    C   C39   0.446219  0.986686  0.158770  0.045462
    C   C40   0.986686  0.553781  0.158770  0.045504
    C   C41   0.053781  0.486686  0.341230  0.045506
    C   C42   0.513314  0.053781  0.341230  0.045446
    C   C43   0.946219  0.513314  0.341230  0.045511
    C   C44   0.486686  0.946219  0.341230  0.045437
    C   C45   0.053781  0.513314  0.658770  0.045517
    C   C46   0.513314  0.946219  0.658770  0.045457
    C   C47   0.946219  0.486686  0.658770  0.045517
    C   C48   0.486686  0.053781  0.658770  0.045447
    H   H17   0.596365  0.976669  0.827415  0.060040
    H   H18   0.023331  0.596365  0.827415  0.060015
    H   H19   0.403635  0.023331  0.827415  0.060036
    H   H20   0.976669  0.403635  0.827415  0.060019
    H   H21   0.596365  0.023331  0.172585  0.060036
    H   H22   0.023331  0.403635  0.172585  0.060015
    H   H23   0.403635  0.976669  0.172585  0.060035
    H   H24   0.976669  0.596365  0.172585  0.060015
    H   H25   0.096365  0.476669  0.327415  0.060017
    H   H26   0.523331  0.096365  0.327415  0.060041
    H   H27   0.903635  0.523331  0.327415  0.060013
    H   H28   0.476669  0.903635  0.327415  0.060039
    H   H29   0.096365  0.523331  0.672585  0.060012
    H   H30   0.523331  0.903635  0.672585  0.060033
    H   H31   0.903635  0.476669  0.672585  0.060009
    H   H32   0.476669  0.096365  0.672585  0.060038
    C   C49   0.500000  0.000000  0.823102  -0.470730
    C   C50   0.000000  0.500000  0.823102  -0.470880
    C   C51   0.500000  0.000000  0.176898  -0.470724
    C   C52   0.000000  0.500000  0.176898  -0.470874
    C   C53   0.000000  0.500000  0.323102  -0.470872
    C   C54   0.500000  0.000000  0.323102  -0.470700
    C   C55   0.000000  0.500000  0.676898  -0.470887
    C   C56   0.500000  0.000000  0.676898  -0.470718
    C   C57   0.500000  0.000000  0.895349  0.117845
    C   C58   0.000000  0.500000  0.895349  0.117842
    C   C59   0.500000  0.000000  0.104651  0.117834
    C   C60   0.000000  0.500000  0.104651  0.117834
    C   C61   0.000000  0.500000  0.395349  0.117824
    C   C62   0.500000  0.000000  0.395349  0.117791
    C   C63   0.000000  0.500000  0.604651  0.117837
    C   C64   0.500000  0.000000  0.604651  0.117802
    N   N1    0.461620  0.038009  0.767269  -0.358170
    N   N2    0.961990  0.461620  0.767269  -0.358373
    N   N3    0.538380  0.961991  0.767269  -0.358173
    N   N4    0.038009  0.538380  0.767269  -0.358373
    N   N5    0.461620  0.961991  0.232731  -0.358159
    N   N6    0.961990  0.538380  0.232731  -0.358358
    N   N7    0.538380  0.038009  0.232731  -0.358148
    N   N8    0.038009  0.461620  0.232731  -0.358360
    N   N9    0.961620  0.538009  0.267269  -0.358349
    N   N10   0.461990  0.961620  0.267269  -0.358137
    N   N11   0.038380  0.461991  0.267269  -0.358349
    N   N12   0.538009  0.038380  0.267269  -0.358151
    N   N13   0.961620  0.461991  0.732731  -0.358380
    N   N14   0.461990  0.038380  0.732731  -0.358172
    N   N15   0.038380  0.538009  0.732731  -0.358383
    N   N16   0.538009  0.961620  0.732731  -0.358179
    C   C65   0.500000  0.000000  0.715105  0.969990
    C   C66   0.000000  0.500000  0.715105  0.970230
    C   C67   0.500000  0.000000  0.284895  0.969954
    C   C68   0.000000  0.500000  0.284895  0.970190
    C   C69   0.000000  0.500000  0.215105  0.970197
    C   C70   0.500000  0.000000  0.215105  0.969981
    C   C71   0.000000  0.500000  0.784895  0.970207
    C   C72   0.500000  0.000000  0.784895  0.969986
    C   C73   0.530819  0.781826  0.026092  -0.164501
    C   C74   0.218174  0.530819  0.026092  -0.164489
    C   C75   0.469180  0.218174  0.026092  -0.164539
    C   C76   0.781826  0.469181  0.026092  -0.164502
    C   C77   0.530819  0.218174  0.973908  -0.164522
    C   C78   0.218174  0.469181  0.973908  -0.164489
    C   C79   0.469181  0.781826  0.973908  -0.164497
    C   C80   0.781826  0.530819  0.973908  -0.164501
    C   C81   0.030819  0.281826  0.526092  -0.164532
    C   C82   0.718174  0.030819  0.526092  -0.164497
    C   C83   0.969181  0.718174  0.526092  -0.164528
    C   C84   0.281826  0.969181  0.526092  -0.164493
    C   C85   0.030819  0.718174  0.473908  -0.164518
    C   C86   0.718174  0.969181  0.473908  -0.164485
    C   C87   0.969180  0.281826  0.473908  -0.164537
    C   C88   0.281826  0.030819  0.473908  -0.164483
    C   C89   0.530442  0.717739  0.026002  0.042645
    C   C90   0.282261  0.530442  0.026002  0.042650
    C   C91   0.469558  0.282261  0.026002  0.042676
    C   C92   0.717739  0.469558  0.026002  0.042659
    C   C93   0.530442  0.282261  0.973998  0.042673
    C   C94   0.282261  0.469558  0.973998  0.042651
    C   C95   0.469558  0.717739  0.973998  0.042655
    C   C96   0.717739  0.530442  0.973998  0.042666
    C   C97   0.030442  0.217739  0.526002  0.042727
    C   C98   0.782261  0.030442  0.526002  0.042688
    C   C99   0.969558  0.782261  0.526002  0.042713
    C   C100  0.217739  0.969558  0.526002  0.042690
    C   C101  0.030442  0.782261  0.473998  0.042709
    C   C102  0.782261  0.969558  0.473998  0.042685
    C   C103  0.969558  0.217739  0.473998  0.042728
    C   C104  0.217739  0.030442  0.473998  0.042689
    H   H33   0.553721  0.693086  0.046794  0.115356
    H   H34   0.306914  0.553721  0.046794  0.115350
    H   H35   0.446279  0.306914  0.046794  0.115346
    H   H36   0.693086  0.446279  0.046794  0.115349
    H   H37   0.553721  0.306914  0.953206  0.115356
    H   H38   0.306914  0.446279  0.953206  0.115359
    H   H39   0.446279  0.693086  0.953206  0.115361
    H   H40   0.693086  0.553721  0.953206  0.115356
    H   H41   0.053721  0.193086  0.546794  0.115338
    H   H42   0.806914  0.053721  0.546794  0.115353
    H   H43   0.946279  0.806914  0.546794  0.115340
    H   H44   0.193086  0.946279  0.546794  0.115351
    H   H45   0.053721  0.806914  0.453206  0.115349
    H   H46   0.806914  0.946279  0.453206  0.115359
    H   H47   0.946279  0.193086  0.453206  0.115345
    H   H48   0.193086  0.053721  0.453206  0.115357
    C   C105  0.500000  0.685496  0.000000  -0.208088
    C   C106  0.314504  0.500000  0.000000  -0.208099
    C   C107  0.500000  0.314505  0.000000  -0.208110
    C   C108  0.685495  0.500000  0.000000  -0.208121
    C   C109  0.000000  0.185495  0.500000  -0.208254
    C   C110  0.814504  0.000000  0.500000  -0.208208
    C   C111  0.000000  0.814505  0.500000  -0.208227
    C   C112  0.185495  0.000000  0.500000  -0.208226
    C   C113  0.500000  0.814194  0.000000  -0.047378
    C   C114  0.185806  0.500000  0.000000  -0.047403
    C   C115  0.500000  0.185806  0.000000  -0.047353
    C   C116  0.814194  0.500000  0.000000  -0.047386
    C   C117  0.000000  0.314194  0.500000  -0.047347
    C   C118  0.685806  0.000000  0.500000  -0.047411
    C   C119  0.000000  0.685806  0.500000  -0.047358
    C   C120  0.314194  0.000000  0.500000  -0.047410
    O   O33   0.411682  0.518146  0.028616  -0.602422
    O   O34   0.481854  0.411682  0.028616  -0.602411
    O   O35   0.588318  0.481854  0.028616  -0.602432
    O   O36   0.518146  0.588318  0.028616  -0.602406
    O   O37   0.411682  0.481854  0.971384  -0.602415
    O   O38   0.481854  0.588318  0.971384  -0.602432
    O   O39   0.588318  0.518146  0.971384  -0.602423
    O   O40   0.518146  0.411682  0.971384  -0.602430
    O   O41   0.911682  0.018146  0.528616  -0.602423
    O   O42   0.981854  0.911682  0.528616  -0.602454
    O   O43   0.088318  0.981854  0.528616  -0.602423
    O   O44   0.018146  0.088318  0.528616  -0.602445
    O   O45   0.911682  0.981854  0.471384  -0.602456
    O   O46   0.981854  0.088318  0.471384  -0.602446
    O   O47   0.088318  0.018146  0.471384  -0.602459
    O   O48   0.018146  0.911682  0.471384  -0.602444
    C   C121  0.382503  0.500000  0.000000  0.723743
    C   C122  0.500000  0.382502  0.000000  0.723747
    C   C123  0.617497  0.500000  0.000000  0.723758
    C   C124  0.500000  0.617497  0.000000  0.723737
    C   C125  0.882502  0.000000  0.500000  0.723895
    C   C126  0.000000  0.882502  0.500000  0.723896
    C   C127  0.117497  0.000000  0.500000  0.723900
    C   C128  0.000000  0.117497  0.500000  0.723909
    Cu  Cu9   0.500000  0.500000  0.033966  0.950885
    Cu  Cu10  0.500000  0.500000  0.966034  0.950978
    Cu  Cu11  0.000000  0.000000  0.533966  0.951105
    Cu  Cu12  0.000000  0.000000  0.466034  0.951102
    C   C129  0.561296  0.814496  0.055103  0.666718
    O   O49   0.533647  0.855066  0.070922  -0.484844
    N   N17   0.621824  0.796498  0.066439  -0.679811
    H   H49   0.649315  0.836397  0.066500  0.319952
    H   H50   0.640546  0.766303  0.047900  0.253691
    C   C130  0.185504  0.561296  0.055103  0.666717
    O   O50   0.144934  0.533647  0.070922  -0.484840
    N   N18   0.203502  0.621824  0.066439  -0.679810
    H   H51   0.163603  0.649315  0.066500  0.319951
    H   H52   0.233697  0.640546  0.047900  0.253687
    C   C131  0.438704  0.185504  0.055103  0.666739
    O   O51   0.466353  0.144934  0.070922  -0.484847
    N   N19   0.378176  0.203502  0.066439  -0.679817
    H   H53   0.350685  0.163603  0.066500  0.319951
    H   H54   0.359454  0.233697  0.047900  0.253694
    C   C132  0.814496  0.438704  0.055103  0.666716
    O   O52   0.855066  0.466353  0.070922  -0.484839
    N   N20   0.796498  0.378176  0.066439  -0.679814
    H   H55   0.836397  0.350685  0.066500  0.319953
    H   H56   0.766303  0.359454  0.047900  0.253691
    C   C133  0.561296  0.185504  0.944897  0.666706
    O   O53   0.533647  0.144934  0.929078  -0.484837
    N   N21   0.621824  0.203502  0.933561  -0.679800
    H   H57   0.649315  0.163603  0.933500  0.319952
    H   H58   0.640546  0.233697  0.952100  0.253685
    C   C134  0.185504  0.438704  0.944897  0.666699
    O   O54   0.144934  0.466353  0.929078  -0.484835
    N   N22   0.203502  0.378176  0.933561  -0.679806
    H   H59   0.163603  0.350685  0.933500  0.319954
    H   H60   0.233697  0.359454  0.952100  0.253685
    C   C135  0.438704  0.814496  0.944897  0.666695
    O   O55   0.466353  0.855066  0.929078  -0.484835
    N   N23   0.378176  0.796498  0.933561  -0.679798
    H   H61   0.350685  0.836397  0.933500  0.319952
    H   H62   0.359454  0.766303  0.952100  0.253684
    C   C136  0.814496  0.561296  0.944897  0.666695
    O   O56   0.855066  0.533647  0.929078  -0.484833
    N   N24   0.796498  0.621824  0.933561  -0.679798
    H   H63   0.836397  0.649315  0.933500  0.319951
    H   H64   0.766303  0.640546  0.952100  0.253682
    C   C137  0.061296  0.314496  0.555103  0.666714
    O   O57   0.033647  0.355066  0.570922  -0.484835
    N   N25   0.121824  0.296498  0.566439  -0.679811
    H   H65   0.149315  0.336397  0.566500  0.319949
    H   H66   0.140546  0.266303  0.547900  0.253693
    C   C138  0.685504  0.061296  0.555103  0.666710
    O   O58   0.644934  0.033647  0.570922  -0.484833
    N   N26   0.703502  0.121824  0.566439  -0.679816
    H   H67   0.663603  0.149315  0.566500  0.319950
    H   H68   0.733697  0.140546  0.547900  0.253700
    C   C139  0.938704  0.685504  0.555103  0.666720
    O   O59   0.966353  0.644934  0.570922  -0.484837
    N   N27   0.878176  0.703502  0.566439  -0.679812
    H   H69   0.850685  0.663603  0.566500  0.319948
    H   H70   0.859454  0.733697  0.547900  0.253693
    C   C140  0.314496  0.938704  0.555103  0.666702
    O   O60   0.355066  0.966353  0.570922  -0.484828
    N   N28   0.296498  0.878176  0.566439  -0.679815
    H   H71   0.336397  0.850685  0.566500  0.319950
    H   H72   0.266303  0.859454  0.547900  0.253700
    C   C141  0.061296  0.685504  0.444897  0.666702
    O   O61   0.033647  0.644934  0.429078  -0.484834
    N   N29   0.121824  0.703502  0.433561  -0.679806
    H   H73   0.149315  0.663603  0.433500  0.319949
    H   H74   0.140546  0.733697  0.452100  0.253689
    C   C142  0.685504  0.938704  0.444897  0.666689
    O   O62   0.644934  0.966353  0.429078  -0.484827
    N   N30   0.703502  0.878176  0.433561  -0.679807
    H   H75   0.663603  0.850685  0.433500  0.319950
    H   H76   0.733697  0.859454  0.452100  0.253695
    C   C143  0.938704  0.314496  0.444897  0.666704
    O   O63   0.966353  0.355066  0.429078  -0.484830
    N   N31   0.878176  0.296498  0.433561  -0.679811
    H   H77   0.850685  0.336397  0.433500  0.319949
    H   H78   0.859454  0.266303  0.452100  0.253693
    C   C144  0.314496  0.061296  0.444897  0.666682
    O   O64   0.355066  0.033647  0.429078  -0.484823
    N   N32   0.296498  0.121824  0.433561  -0.679808
    H   H79   0.336397  0.149315  0.433500  0.319952
    H   H80   0.266303  0.140546  0.452100  0.253697
