# generated using pymatgen
data_ZnH9C15NO8
_symmetry_space_group_name_H-M   'P 1'
_cell_length_a   8.54945800
_cell_length_b   10.86676600
_cell_length_c   14.23301400
_cell_angle_alpha   90.00000000
_cell_angle_beta   90.00000000
_cell_angle_gamma   90.00000000
_symmetry_Int_Tables_number   1
_chemical_formula_structural   ZnH9C15NO8
_chemical_formula_sum   'Zn2 H18 C30 N2 O16'
_cell_volume   1322.31758942
_cell_formula_units_Z   2
loop_
 _symmetry_equiv_pos_site_id
 _symmetry_equiv_pos_as_xyz
  1  'x, y, z'
loop_
 _atom_site_type_symbol
 _atom_site_label
 _atom_site_symmetry_multiplicity
 _atom_site_fract_x
 _atom_site_fract_y
 _atom_site_fract_z
 _atom_site_occupancy
  Zn  Zn1  1  0.49002000  0.48232500  0.10526200  1
  Zn  Zn2  1  0.49002000  0.51767500  0.89473800  1
  H  H1  1  0.24218900  0.90574800  0.99368700  1
  H  H2  1  0.24218900  0.09425200  0.00631300  1
  H  H3  1  0.73800300  0.90576500  0.99362100  1
  H  H4  1  0.73800300  0.09423500  0.00637900  1
  H  H5  1  0.99004500  0.58148300  0.04811100  1
  H  H6  1  0.99004500  0.41851700  0.95188900  1
  H  H7  1  0.68700200  0.63158700  0.57381500  1
  H  H8  1  0.70911700  0.58202300  0.42398900  1
  H  H9  1  0.68700200  0.36841300  0.42618500  1
  H  H10  1  0.70911700  0.41797700  0.57601100  1
  H  H11  1  0.27149700  0.58999300  0.42318300  1
  H  H12  1  0.24679000  0.57192800  0.58175500  1
  H  H13  1  0.27149700  0.41000700  0.57681700  1
  H  H14  1  0.24679100  0.42807200  0.41824500  1
  H  H15  1  0.30276500  0.14826000  0.45239300  1
  H  H16  1  0.41614400  0.20230000  0.71403200  1
  H  H17  1  0.30276500  0.85174000  0.54760700  1
  H  H18  1  0.41614400  0.79770000  0.28596800  1
  C  C1  1  0.12867200  0.73953600  0.02181100  1
  C  C2  1  0.12867200  0.26046400  0.97818900  1
  C  C3  1  0.12978000  0.86466100  0.00583100  1
  C  C4  1  0.12978000  0.13533900  0.99416900  1
  C  C5  1  0.99009500  0.93141900  0.00442300  1
  C  C6  1  0.99009500  0.06858100  0.99557700  1
  C  C7  1  0.85040000  0.86467700  0.00580300  1
  C  C8  1  0.85040000  0.13532300  0.99419700  1
  C  C9  1  0.85147000  0.73956200  0.02180600  1
  C  C10  1  0.85147000  0.26043800  0.97819500  1
  C  C11  1  0.99006100  0.67931500  0.03579000  1
  C  C12  1  0.99006100  0.32068500  0.96421000  1
  C  C13  1  0.27044000  0.66538600  0.01433300  1
  C  C14  1  0.27044000  0.33461400  0.98566700  1
  C  C15  1  0.70968400  0.33455800  0.98567000  1
  C  C16  1  0.70968400  0.66544200  0.01433000  1
  C  C17  1  0.58423500  0.60167500  0.43865400  1
  C  C18  1  0.56775100  0.62311800  0.54383400  1
  C  C19  1  0.58423500  0.39832500  0.56134600  1
  C  C20  1  0.56775100  0.37688200  0.45616600  1
  C  C21  1  0.48916900  0.48816600  0.41124900  1
  C  C22  1  0.48916900  0.51183400  0.58875100  1
  C  C23  1  0.32227500  0.49815900  0.55317400  1
  C  C24  1  0.32227500  0.50184000  0.44682600  1
  C  C25  1  0.48944000  0.52680700  0.69099000  1
  C  C26  1  0.48944000  0.47319300  0.30901000  1
  C  C27  1  0.48387900  0.25936700  0.43420900  1
  C  C28  1  0.54210500  0.28478900  0.61564300  1
  C  C29  1  0.48387900  0.74063300  0.56579100  1
  C  C30  1  0.54210500  0.71521100  0.38435700  1
  N  N1  1  0.48966100  0.53422800  0.77208800  1
  N  N2  1  0.48966100  0.46577200  0.22791200  1
  O  O1  1  0.32389700  0.64094000  0.92987700  1
  O  O2  1  0.32212700  0.61102400  0.09049500  1
  O  O3  1  0.32389700  0.35906000  0.07012300  1
  O  O4  1  0.32212700  0.38897600  0.90950500  1
  O  O5  1  0.65610000  0.35889200  0.07011100  1
  O  O6  1  0.65788700  0.38882200  0.90950000  1
  O  O7  1  0.65610000  0.64110800  0.92988900  1
  O  O8  1  0.65788700  0.61117800  0.09050000  1
  O  O9  1  0.54580700  0.18452200  0.38238100  1
  O  O10  1  0.33974200  0.23188500  0.47442700  1
  O  O11  1  0.61501400  0.19007900  0.60178500  1
  O  O12  1  0.42604700  0.28646800  0.68418700  1
  O  O13  1  0.54580700  0.81547800  0.61761900  1
  O  O14  1  0.33974200  0.76811500  0.52557300  1
  O  O15  1  0.61501400  0.80992100  0.39821500  1
  O  O16  1  0.42604700  0.71353200  0.31581300  1
