# generated using pymatgen
data_CuH4(C3O)4
_symmetry_space_group_name_H-M   'P 1'
_cell_length_a   24.57826700
_cell_length_b   19.30934100
_cell_length_c   17.70451100
_cell_angle_alpha   82.40357600
_cell_angle_beta   60.21081300
_cell_angle_gamma   114.09598000
_symmetry_Int_Tables_number   1
_chemical_formula_structural   CuH4(C3O)4
_chemical_formula_sum   'Cu4 H16 C48 O16'
_cell_volume   6032.16737025
_cell_formula_units_Z   4
loop_
 _symmetry_equiv_pos_site_id
 _symmetry_equiv_pos_as_xyz
  1  'x, y, z'
loop_
 _atom_site_type_symbol
 _atom_site_label
 _atom_site_symmetry_multiplicity
 _atom_site_fract_x
 _atom_site_fract_y
 _atom_site_fract_z
 _atom_site_occupancy
  Cu  Cu1  1  0.01470500  0.99667600  0.46982800  1
  Cu  Cu2  1  0.93710400  0.99908100  0.63652500  1
  Cu  Cu3  1  0.49075600  0.00031900  0.23256000  1
  Cu  Cu4  1  0.56833500  0.99791300  0.06586000  1
  H  H1  1  0.64669300  0.86780000  0.38926200  1
  H  H2  1  0.69475100  0.86731400  0.48234300  1
  H  H3  1  0.85879700  0.12918600  0.31304900  1
  H  H4  1  0.81073900  0.12967200  0.21996800  1
  H  H5  1  0.80806000  0.60847900  0.89436300  1
  H  H6  1  0.74634600  0.46075600  0.99487800  1
  H  H7  1  0.69739900  0.38851700  0.80803400  1
  H  H8  1  0.75911200  0.53624000  0.70751900  1
  H  H9  1  0.38394800  0.57594100  0.20628200  1
  H  H10  1  0.29771600  0.42750400  0.25372900  1
  H  H11  1  0.12148700  0.42105600  0.49609200  1
  H  H12  1  0.20772000  0.56949300  0.44864500  1
  H  H13  1  0.22142300  0.86503600  0.33675800  1
  H  H14  1  0.15370400  0.86526400  0.49581700  1
  H  H15  1  0.28401200  0.13196300  0.36571300  1
  H  H16  1  0.35173200  0.13173500  0.20665300  1
  C  C1  1  0.89648600  0.83369900  0.63724400  1
  C  C2  1  0.06960800  0.99818300  0.58196200  1
  C  C3  1  0.06083100  0.16209200  0.47291600  1
  C  C4  1  0.88283400  0.99772300  0.52197400  1
  C  C5  1  0.60896500  0.16329600  0.06515100  1
  C  C6  1  0.62263900  0.99927100  0.18036700  1
  C  C7  1  0.44461300  0.83490400  0.22945900  1
  C  C8  1  0.43582300  0.99881700  0.12046700  1
  C  C9  1  0.72032300  0.92503700  0.42471500  1
  C  C10  1  0.77984500  0.99821800  0.40364300  1
  C  C11  1  0.81218300  0.07167600  0.32991700  1
  C  C12  1  0.78516700  0.07194900  0.27759500  1
  C  C13  1  0.72564600  0.99876700  0.29866800  1
  C  C14  1  0.69330800  0.92531000  0.37239300  1
  C  C15  1  0.80803500  0.99793600  0.45826600  1
  C  C16  1  0.69745400  0.99905000  0.24404600  1
  C  C17  1  0.67390100  0.99927100  0.19815200  1
  C  C18  1  0.83157900  0.99772300  0.50417300  1
  C  C19  1  0.74899800  0.47700800  0.93179400  1
  C  C20  1  0.71763700  0.41449900  0.90835500  1
  C  C21  1  0.72163200  0.43662000  0.82732900  1
  C  C22  1  0.75646000  0.51998800  0.77060300  1
  C  C23  1  0.78782100  0.58249700  0.79404200  1
  C  C24  1  0.78382700  0.56037600  0.87506900  1
  C  C25  1  0.68113000  0.32710800  0.96781800  1
  C  C26  1  0.82432800  0.66988800  0.73458000  1
  C  C27  1  0.85483400  0.74297200  0.68484800  1
  C  C28  1  0.65062000  0.25402300  0.01754800  1
  C  C29  1  0.27765200  0.45841700  0.29682100  1
  C  C30  1  0.20368700  0.41410000  0.37816600  1
  C  C31  1  0.17912100  0.45481200  0.43232900  1
  C  C32  1  0.22778400  0.53857900  0.40555300  1
  C  C33  1  0.30174900  0.58289700  0.32420900  1
  C  C34  1  0.32631500  0.54218500  0.27004600  1
  C  C35  1  0.15267400  0.32629400  0.40623000  1
  C  C36  1  0.35276200  0.67070300  0.29614400  1
  C  C37  1  0.39545600  0.74413200  0.27267700  1
  C  C38  1  0.10998100  0.25286400  0.42969800  1
  C  C39  1  0.19736800  0.92382500  0.43232100  1
  C  C40  1  0.21513000  0.99863300  0.44056200  1
  C  C41  1  0.27040400  0.07330700  0.35939800  1
  C  C42  1  0.30806900  0.07317300  0.27015000  1
  C  C43  1  0.29030600  0.99836500  0.26190900  1
  C  C44  1  0.23503200  0.92369200  0.34307300  1
  C  C45  1  0.17404300  0.99874000  0.53326600  1
  C  C46  1  0.33139100  0.99825800  0.16920400  1
  C  C47  1  0.38330600  0.99858400  0.10573100  1
  C  C48  1  0.12211900  0.99841800  0.59671400  1
  O  O1  1  0.94945500  0.87348400  0.54357300  1
  O  O2  1  0.88235200  0.87611300  0.68846100  1
  O  O3  1  0.07945800  0.99701200  0.50240500  1
  O  O4  1  0.01259100  0.99917900  0.64769600  1
  O  O5  1  0.07295500  0.12020500  0.42012100  1
  O  O6  1  0.00526900  0.12175700  0.56553600  1
  O  O7  1  0.94010300  0.99671000  0.45730600  1
  O  O8  1  0.87208000  0.99877900  0.60228400  1
  O  O9  1  0.55600600  0.12351200  0.15882500  1
  O  O10  1  0.62308800  0.12088100  0.01393000  1
  O  O11  1  0.56536900  0.00027700  0.24504800  1
  O  O12  1  0.63338400  0.99822400  0.10006000  1
  O  O13  1  0.43250300  0.87679000  0.28225900  1
  O  O14  1  0.50016500  0.87523600  0.13683400  1
  O  O15  1  0.42598500  0.99998500  0.20001800  1
  O  O16  1  0.49283600  0.99782100  0.05472300  1
