# generated using pymatgen
data_CuH26C44N3O4
_symmetry_space_group_name_H-M   'P 1'
_cell_length_a   19.24169200
_cell_length_b   15.95898000
_cell_length_c   14.54926700
_cell_angle_alpha   90.00704400
_cell_angle_beta   89.99618200
_cell_angle_gamma   90.00099400
_symmetry_Int_Tables_number   1
_chemical_formula_structural   CuH26C44N3O4
_chemical_formula_sum   'Cu2 H52 C88 N6 O8'
_cell_volume   4467.75653454
_cell_formula_units_Z   2
loop_
 _symmetry_equiv_pos_site_id
 _symmetry_equiv_pos_as_xyz
  1  'x, y, z'
loop_
 _atom_site_type_symbol
 _atom_site_label
 _atom_site_symmetry_multiplicity
 _atom_site_fract_x
 _atom_site_fract_y
 _atom_site_fract_z
 _atom_site_occupancy
  Cu  Cu1  1  0.49975700  0.50059700  0.59195400  1
  Cu  Cu2  1  0.50024300  0.49940200  0.40804600  1
  H  H1  1  0.28085200  0.50764200  0.64654200  1
  H  H2  1  0.71914800  0.49235800  0.35345800  1
  H  H3  1  0.15542500  0.50724700  0.64674900  1
  H  H4  1  0.84457500  0.49275300  0.35325100  1
  H  H5  1  0.15532600  0.49527200  0.35258700  1
  H  H6  1  0.84467400  0.50472700  0.64741300  1
  H  H7  1  0.28086200  0.49570500  0.35263200  1
  H  H8  1  0.71913800  0.50429500  0.64736900  1
  H  H9  1  0.59933300  0.06207100  0.42304500  1
  H  H10  1  0.40066700  0.93792900  0.57695600  1
  H  H11  1  0.38437400  0.51442300  0.06487500  1
  H  H12  1  0.61562600  0.48557700  0.93512500  1
  H  H13  1  0.40579800  0.33265300  0.09413700  1
  H  H14  1  0.32785100  0.21390300  0.06759500  1
  H  H15  1  0.28966200  0.17949500  0.91080100  1
  H  H16  1  0.32959100  0.26489000  0.78056100  1
  H  H17  1  0.40703200  0.38266500  0.80547300  1
  H  H18  1  0.59420200  0.66734700  0.90586300  1
  H  H19  1  0.67214900  0.78609700  0.93240500  1
  H  H20  1  0.71033900  0.82050500  0.08919900  1
  H  H21  1  0.67040900  0.73511000  0.21943900  1
  H  H22  1  0.59296800  0.61733500  0.19452800  1
  H  H23  1  0.64330300  0.09131900  0.60914400  1
  H  H24  1  0.75511800  0.07116400  0.68632000  1
  H  H25  1  0.80133000  0.92911200  0.70962900  1
  H  H26  1  0.73514000  0.80715000  0.65511800  1
  H  H27  1  0.62422200  0.82596500  0.57834800  1
  H  H28  1  0.35669700  0.90868100  0.39085600  1
  H  H29  1  0.24488200  0.92883600  0.31368000  1
  H  H30  1  0.19867000  0.07088700  0.29037100  1
  H  H31  1  0.26486000  0.19285000  0.34488200  1
  H  H32  1  0.37577800  0.17403500  0.42165200  1
  H  H33  1  0.49866100  0.09062200  0.28158400  1
  H  H34  1  0.50271700  0.07024300  0.11527800  1
  H  H35  1  0.51050600  0.92789500  0.05079600  1
  H  H36  1  0.51359100  0.80631400  0.15383000  1
  H  H37  1  0.50969400  0.82528900  0.31920200  1
  H  H38  1  0.50133900  0.90937800  0.71841600  1
  H  H39  1  0.49728300  0.92975700  0.88472300  1
  H  H40  1  0.48949400  0.07210500  0.94920500  1
  H  H41  1  0.48640900  0.19368600  0.84617100  1
  H  H42  1  0.49030600  0.17471000  0.68079800  1
  H  H43  1  0.42407600  0.67844700  0.09827400  1
  H  H44  1  0.36934800  0.81516500  0.07418700  1
  H  H45  1  0.35459900  0.87049900  0.91771800  1
  H  H46  1  0.39492400  0.78833400  0.78520200  1
  H  H47  1  0.44908800  0.65248600  0.80772000  1
  H  H48  1  0.57592400  0.32155200  0.90172600  1
  H  H49  1  0.63065200  0.18483400  0.92581300  1
  H  H50  1  0.64540100  0.12950100  0.08228200  1
  H  H51  1  0.60507600  0.21166600  0.21479900  1
  H  H52  1  0.55091200  0.34751400  0.19228000  1
  C  C1  1  0.49861900  0.33921300  0.50087000  1
  C  C2  1  0.50138100  0.66078600  0.49913000  1
  C  C3  1  0.36637700  0.50146700  0.49970000  1
  C  C4  1  0.63362400  0.49853300  0.50030100  1
  C  C5  1  0.25386900  0.50499500  0.58148400  1
  C  C6  1  0.74613100  0.49500400  0.41851600  1
  C  C7  1  0.18222700  0.50474000  0.58156300  1
  C  C8  1  0.81777300  0.49526000  0.41843700  1
  C  C9  1  0.14586400  0.50119900  0.49967900  1
  C  C10  1  0.85413600  0.49880000  0.50032100  1
  C  C11  1  0.18218800  0.49806600  0.41771300  1
  C  C12  1  0.81781200  0.50193400  0.58228800  1
  C  C13  1  0.25385500  0.49832300  0.41767800  1
  C  C14  1  0.74614500  0.50167600  0.58232300  1
  C  C15  1  0.29014300  0.50173000  0.49956400  1
  C  C16  1  0.70985700  0.49827000  0.50043600  1
  C  C17  1  0.93044200  0.49937600  0.50017100  1
  C  C18  1  0.06955800  0.50062400  0.49982900  1
  C  C19  1  0.55727500  0.97592100  0.54123600  1
  C  C20  1  0.44272500  0.02407900  0.45876500  1
  C  C21  1  0.55387200  0.03397800  0.45832600  1
  C  C22  1  0.44612800  0.96602200  0.54167400  1
  C  C23  1  0.49735800  0.24934600  0.50163900  1
  C  C24  1  0.50264200  0.75065400  0.49836200  1
  C  C25  1  0.49894500  0.02444500  0.58599900  1
  C  C26  1  0.50105500  0.97555500  0.41400200  1
  C  C27  1  0.49499300  0.08209900  0.50354300  1
  C  C28  1  0.50500700  0.91790100  0.49645700  1
  C  C29  1  0.49606200  0.17383900  0.50259100  1
  C  C30  1  0.50393800  0.82616000  0.49741000  1
  C  C31  1  0.47301300  0.57146200  0.97320200  1
  C  C32  1  0.52698700  0.42853800  0.02679800  1
  C  C33  1  0.43730100  0.50796900  0.03555900  1
  C  C34  1  0.56269900  0.49203100  0.96444100  1
  C  C35  1  0.53918900  0.56212800  0.02832300  1
  C  C36  1  0.46081100  0.43787100  0.97167700  1
  C  C37  1  0.50410900  0.49858500  0.09023300  1
  C  C38  1  0.49589100  0.50141400  0.90976800  1
  C  C39  1  0.50201300  0.49855000  0.19098600  1
  C  C40  1  0.49798700  0.50145000  0.80901400  1
  C  C41  1  0.41316000  0.36568600  0.95192700  1
  C  C42  1  0.38963100  0.31793800  0.02484900  1
  C  C43  1  0.34563600  0.25111400  0.01014700  1
  C  C44  1  0.32419500  0.23186000  0.92239300  1
  C  C45  1  0.34660800  0.27973800  0.84946400  1
  C  C46  1  0.39088300  0.34640800  0.86395500  1
  C  C47  1  0.58684000  0.63431400  0.04807300  1
  C  C48  1  0.61036900  0.68206200  0.97515100  1
  C  C49  1  0.65436400  0.74888600  0.98985400  1
  C  C50  1  0.67580500  0.76814000  0.07760700  1
  C  C51  1  0.65339200  0.72026200  0.15053600  1
  C  C52  1  0.60911700  0.65359100  0.13604500  1
  C  C53  1  0.62537700  0.96036200  0.58831200  1
  C  C54  1  0.66310200  0.02857400  0.61898400  1
  C  C55  1  0.72605800  0.01742900  0.66247300  1
  C  C56  1  0.75195500  0.93791200  0.67554100  1
  C  C57  1  0.71481900  0.86961300  0.64498700  1
  C  C58  1  0.65180800  0.88061300  0.60145600  1
  C  C59  1  0.37462300  0.03963700  0.41168800  1
  C  C60  1  0.33689900  0.97142600  0.38101600  1
  C  C61  1  0.27394200  0.98257000  0.33752700  1
  C  C62  1  0.24804500  0.06208800  0.32445900  1
  C  C63  1  0.28518100  0.13038600  0.35501400  1
  C  C64  1  0.34819200  0.11938700  0.39854500  1
  C  C65  1  0.50365400  0.95970200  0.31265400  1
  C  C66  1  0.50197300  0.02781800  0.25409500  1
  C  C67  1  0.50429600  0.01651500  0.16033300  1
  C  C68  1  0.50858000  0.93694500  0.12427100  1
  C  C69  1  0.51039300  0.86876200  0.18212200  1
  C  C70  1  0.50804900  0.87988100  0.27600300  1
  C  C71  1  0.49634600  0.04029800  0.68734700  1
  C  C72  1  0.49802700  0.97218100  0.74590500  1
  C  C73  1  0.49570400  0.98348400  0.83966700  1
  C  C74  1  0.49142000  0.06305400  0.87572900  1
  C  C75  1  0.48960700  0.13123700  0.81787800  1
  C  C76  1  0.49195100  0.12011900  0.72399700  1
  C  C77  1  0.43990000  0.65489400  0.95501000  1
  C  C78  1  0.41747600  0.70186200  0.02911700  1
  C  C79  1  0.38672200  0.77890900  0.01578500  1
  C  C80  1  0.37842100  0.80990700  0.92819400  1
  C  C81  1  0.40100400  0.76379500  0.85398200  1
  C  C82  1  0.43156100  0.68654700  0.86712000  1
  C  C83  1  0.56010000  0.34510600  0.04499000  1
  C  C84  1  0.58252400  0.29813700  0.97088300  1
  C  C85  1  0.61327800  0.22109000  0.98421500  1
  C  C86  1  0.62157900  0.19009300  0.07180600  1
  C  C87  1  0.59899600  0.23620500  0.14601800  1
  C  C88  1  0.56843900  0.31345300  0.13288000  1
  N  N1  1  0.03426900  0.49704700  0.42010700  1
  N  N2  1  0.96573100  0.50295200  0.57989300  1
  N  N3  1  0.96557300  0.49644000  0.42027900  1
  N  N4  1  0.03442700  0.50356000  0.57972100  1
  N  N5  1  0.50055800  0.49869300  0.27055600  1
  N  N6  1  0.49944200  0.50130600  0.72944400  1
  O  O1  1  0.49633800  0.37881200  0.57960700  1
  O  O2  1  0.50366200  0.62118800  0.42039300  1
  O  O3  1  0.50166200  0.37766400  0.42151500  1
  O  O4  1  0.49833800  0.62233500  0.57848500  1
  O  O5  1  0.39881900  0.50463100  0.57877500  1
  O  O6  1  0.60118100  0.49536900  0.42122500  1
  O  O7  1  0.39920900  0.49773200  0.42087400  1
  O  O8  1  0.60079100  0.50226800  0.57912600  1
