# generated using pymatgen
data_Fe2H21C52NO18
_symmetry_space_group_name_H-M   'P 1'
_cell_length_a   15.82191900
_cell_length_b   14.38263700
_cell_length_c   11.40068000
_cell_angle_alpha   95.65297300
_cell_angle_beta   89.28891100
_cell_angle_gamma   95.18338500
_symmetry_Int_Tables_number   1
_chemical_formula_structural   Fe2H21C52NO18
_chemical_formula_sum   'Fe2 H21 C52 N1 O18'
_cell_volume   2571.15847058
_cell_formula_units_Z   1
loop_
 _symmetry_equiv_pos_site_id
 _symmetry_equiv_pos_as_xyz
  1  'x, y, z'
loop_
 _atom_site_type_symbol
 _atom_site_label
 _atom_site_symmetry_multiplicity
 _atom_site_fract_x
 _atom_site_fract_y
 _atom_site_fract_z
 _atom_site_occupancy
  Fe  Fe1  1  0.50665600  0.99334600  0.25491200  1
  Fe  Fe2  1  0.48818600  0.00349500  0.74826400  1
  H  H1  1  0.17668400  0.03608700  0.82784000  1
  H  H2  1  0.22762700  0.97457300  0.23370600  1
  H  H3  1  0.05435100  0.01702800  0.77195500  1
  H  H4  1  0.08309100  0.94848100  0.27045600  1
  H  H5  1  0.94034700  0.94318200  0.21552000  1
  H  H6  1  0.76149900  0.00961000  0.76482900  1
  H  H7  1  0.82089700  0.97338600  0.17541200  1
  H  H8  1  0.70874500  0.56822400  0.92058800  1
  H  H9  1  0.60247300  0.62199500  0.06488400  1
  H  H10  1  0.45359800  0.62201400  0.00528300  1
  H  H11  1  0.66689300  0.51803000  0.71563800  1
  H  H12  1  0.41100600  0.56915700  0.80119700  1
  H  H13  1  0.51159100  0.36376700  0.73581600  1
  H  H14  1  0.52875600  0.70283400  0.69218000  1
  H  H15  1  0.46722900  0.29435700  0.31118900  1
  H  H16  1  0.48494400  0.63353500  0.26744200  1
  H  H17  1  0.32968600  0.47941900  0.28734500  1
  H  H18  1  0.58553500  0.42780600  0.20225300  1
  H  H19  1  0.28794200  0.42911300  0.08238100  1
  H  H20  1  0.39424500  0.37505600  0.93831200  1
  H  H21  1  0.54305300  0.37487400  0.99814300  1
  C  C1  1  0.28312500  0.00706300  0.07053600  1
  C  C2  1  0.26784900  0.02244000  0.95463400  1
  C  C3  1  0.18466500  0.02180000  0.91720600  1
  C  C4  1  0.21568200  0.98645500  0.14349200  1
  C  C5  1  0.13329200  0.98425400  0.10504500  1
  C  C6  1  0.11561700  0.00211900  0.99158300  1
  C  C7  1  0.02998100  0.99911200  0.95630900  1
  C  C8  1  0.00837000  0.01004800  0.84101600  1
  C  C9  1  0.92536500  0.00571900  0.80609300  1
  C  C10  1  0.06887100  0.96392600  0.18231400  1
  C  C11  1  0.98583000  0.96269900  0.14965300  1
  C  C12  1  0.96436800  0.98229200  0.03719500  1
  C  C13  1  0.87892600  0.98353600  0.00337200  1
  C  C14  1  0.86048700  0.99530200  0.88753300  1
  C  C15  1  0.77717800  0.99848800  0.85375100  1
  C  C16  1  0.81105100  0.97556300  0.08297600  1
  C  C17  1  0.72737300  0.97507900  0.04792200  1
  C  C18  1  0.71089000  0.98524700  0.93091000  1
  C  C19  1  0.65937000  0.97108100  0.13837600  1
  C  C20  1  0.50239400  0.81553300  0.33214700  1
  C  C21  1  0.36826100  0.01643900  0.12162200  1
  C  C22  1  0.47456900  0.14635700  0.40930300  1
  C  C23  1  0.52087700  0.85073500  0.59411200  1
  C  C24  1  0.62524300  0.97912700  0.88251600  1
  C  C25  1  0.49371500  0.18184500  0.67142400  1
  C  C26  1  0.33702600  0.03116200  0.86679400  1
  C  C27  1  0.64327300  0.56799700  0.89445900  1
  C  C28  1  0.49159100  0.25806800  0.59327300  1
  C  C29  1  0.58373200  0.59830400  0.97527300  1
  C  C30  1  0.50024100  0.59816700  0.94188100  1
  C  C31  1  0.61964200  0.53917300  0.77970600  1
  C  C32  1  0.53619800  0.53949600  0.74586000  1
  C  C33  1  0.47622200  0.56778100  0.82763900  1
  C  C34  1  0.50282300  0.35066200  0.64186700  1
  C  C35  1  0.50184000  0.42499400  0.57212700  1
  C  C36  1  0.51347500  0.51772400  0.62129600  1
  C  C37  1  0.50888400  0.59093300  0.55080600  1
  C  C38  1  0.51846900  0.68352800  0.59941200  1
  C  C39  1  0.51524700  0.75675800  0.53138600  1
  C  C40  1  0.48067000  0.24041400  0.47201300  1
  C  C41  1  0.47766600  0.31366100  0.40392900  1
  C  C42  1  0.48748400  0.40628200  0.45246100  1
  C  C43  1  0.48300000  0.47950300  0.38193900  1
  C  C44  1  0.49459300  0.57224100  0.43112200  1
  C  C45  1  0.49359500  0.64661000  0.36141600  1
  C  C46  1  0.37695700  0.45815800  0.22337100  1
  C  C47  1  0.46036000  0.45773200  0.25734900  1
  C  C48  1  0.52035500  0.42927500  0.17569900  1
  C  C49  1  0.35338400  0.42926700  0.10861300  1
  C  C50  1  0.41294200  0.39879700  0.02792600  1
  C  C51  1  0.50457500  0.73919900  0.41013100  1
  C  C52  1  0.49639600  0.39884300  0.06144700  1
  N  N1  1  0.90838500  0.01103600  0.68423100  1
  O  O1  1  0.58348100  0.99554800  0.11674800  1
  O  O2  1  0.48909300  0.79522100  0.21874800  1
  O  O3  1  0.67619400  0.94942700  0.24426500  1
  O  O4  1  0.51444700  0.90392800  0.37484400  1
  O  O5  1  0.38900700  0.95619500  0.19321500  1
  O  O6  1  0.42117100  0.08973200  0.10500300  1
  O  O7  1  0.53537000  0.12233500  0.33606600  1
  O  O8  1  0.40504800  0.09000000  0.41649700  1
  O  O9  1  0.45941400  0.87477300  0.66616200  1
  O  O10  1  0.59053300  0.90705900  0.58810100  1
  O  O11  1  0.60572500  0.03993300  0.81092300  1
  O  O12  1  0.57137700  0.90647500  0.89844600  1
  O  O13  1  0.32191100  0.05842500  0.76316400  1
  O  O14  1  0.48111500  0.09349200  0.62886400  1
  O  O15  1  0.41094600  0.00077700  0.88604400  1
  O  O16  1  0.50728400  0.20220300  0.78475800  1
  O  O17  1  0.86292900  0.94239500  0.62555100  1
  O  O18  1  0.95575600  0.06956900  0.62621800  1
