# Generated by REPEAT Assigner based on pymatgen
data_DB0-m2_o5_o14_f0_nbo.sym.75_sqe
_audit_creation_date              2022-05-24
_audit_creation_method            REPEAT_Assigner
_cell_length_a                    28.837419
_cell_length_b                    18.351136
_cell_length_c                    18.362748
_cell_angle_alpha                 90.000000
_cell_angle_beta                  48.639417
_cell_angle_gamma                 90.000000
_cell_volume                      7293.665123
_symmetry_space_group_name_H-M    P1
_symmetry_Int_Tables_number       1
loop_
    _symmetry_equiv_pos_site_id
    _symmetry_equiv_pos_as_xyz
    1  x,y,z
loop_
    _atom_site_type_symbol
    _atom_site_label
    _atom_site_fract_x
    _atom_site_fract_y
    _atom_site_fract_z
    _atom_type_partial_charge
    O   O1    0.981660  0.456040  0.915438  -0.639971
    O   O2    0.986773  0.576976  0.118401  -0.663194
    O   O3    0.018354  0.456040  0.084522  -0.640034
    O   O4    0.013242  0.576975  0.881558  -0.663133
    O   O5    0.481660  0.956040  0.915438  -0.639971
    O   O6    0.486773  0.076976  0.118401  -0.663192
    O   O7    0.518354  0.956040  0.084522  -0.639972
    O   O8    0.513242  0.076975  0.881558  -0.663151
    C   C1    0.995820  0.516742  0.866175  1.043581
    C   C2    0.004195  0.516743  0.133784  1.043763
    C   C3    0.495820  0.016742  0.866175  1.043645
    C   C4    0.504195  0.016743  0.133784  1.043749
    O   O9    0.088060  0.456128  0.887185  -0.673925
    O   O10   0.911265  0.576861  0.076423  -0.547007
    O   O11   0.911954  0.456129  0.112775  -0.674065
    O   O12   0.088749  0.576861  0.923536  -0.547023
    O   O13   0.588060  0.956128  0.887185  -0.673913
    O   O14   0.411265  0.076861  0.076423  -0.547052
    O   O15   0.411954  0.956129  0.112775  -0.674083
    O   O16   0.588749  0.076861  0.923536  -0.547027
    C   C5    0.117874  0.516258  0.875384  0.786827
    C   C6    0.882140  0.516259  0.124575  0.786882
    C   C7    0.617874  0.016258  0.875384  0.786704
    C   C8    0.382140  0.016259  0.124575  0.786958
    Cu  Cu1   0.000007  0.445152  0.999980  1.056594
    Cu  Cu2   0.000007  0.587901  0.999979  0.942790
    Cu  Cu3   0.500007  0.945152  0.999980  1.056683
    Cu  Cu4   0.500007  0.087901  0.999979  0.942756
    C   C9    0.198325  0.457909  0.672214  0.021434
    C   C10   0.801689  0.457915  0.327747  0.021734
    C   C11   0.698325  0.957909  0.672214  0.021537
    C   C12   0.301689  0.957915  0.327747  0.021716
    C   C13   0.228675  0.402143  0.603824  0.076263
    C   C14   0.771339  0.402150  0.396140  0.076123
    C   C15   0.728675  0.902143  0.603824  0.076225
    C   C16   0.271339  0.902150  0.396140  0.076118
    C   C17   0.286827  0.381754  0.565357  -0.190547
    C   C18   0.713187  0.381760  0.434607  -0.190293
    C   C19   0.786827  0.881754  0.565357  -0.190518
    C   C20   0.213187  0.881760  0.434607  -0.190307
    H   H1    0.311620  0.339104  0.511463  0.131461
    H   H2    0.688394  0.339111  0.488502  0.131404
    H   H3    0.811620  0.839104  0.511463  0.131457
    H   H4    0.188394  0.839111  0.488502  0.131408
    C   C21   0.316144  0.419504  0.589211  -0.227644
    C   C22   0.683870  0.419507  0.410750  -0.228014
    C   C23   0.816144  0.919504  0.589211  -0.227708
    C   C24   0.183870  0.919507  0.410750  -0.228038
    H   H5    0.363016  0.403924  0.552874  0.161133
    H   H6    0.636999  0.403926  0.447087  0.161242
    H   H7    0.863016  0.903924  0.552874  0.161143
    H   H8    0.136999  0.903926  0.447087  0.161247
    C   C25   0.284469  0.471042  0.662703  0.171986
    C   C26   0.715545  0.471044  0.337257  0.172180
    C   C27   0.784469  0.971042  0.662703  0.172112
    C   C28   0.215545  0.971044  0.337257  0.172195
    C   C29   0.222189  0.482734  0.714057  0.104699
    C   C30   0.777825  0.482737  0.285903  0.104531
    C   C31   0.722189  0.982734  0.714057  0.104456
    C   C32   0.277825  0.982737  0.285903  0.104530
    C   C33   0.186599  0.516995  0.805248  -0.266706
    C   C34   0.813415  0.516996  0.194711  -0.266741
    C   C35   0.686599  0.016995  0.805248  -0.266434
    C   C36   0.313415  0.016996  0.194711  -0.266781
    C   C37   0.216772  0.546884  0.834646  0.097544
    C   C38   0.783243  0.546883  0.165311  0.097663
    C   C39   0.716772  0.046884  0.834646  0.097419
    C   C40   0.283243  0.046883  0.165311  0.097678
    C   C41   0.280992  0.552573  0.768278  0.085719
    C   C42   0.719023  0.552572  0.231679  0.085595
    C   C43   0.780992  0.052573  0.768278  0.085771
    C   C44   0.219023  0.052572  0.231679  0.085592
    C   C45   0.314923  0.510930  0.684285  -0.310964
    C   C46   0.685091  0.510931  0.315673  -0.311039
    C   C47   0.814923  0.010930  0.684285  -0.311055
    C   C48   0.185091  0.010931  0.315673  -0.311068
    C   C49   0.994838  0.515839  0.788919  -0.290245
    C   C50   0.005177  0.515840  0.211040  -0.290189
    C   C51   0.494838  0.015839  0.788919  -0.290286
    C   C52   0.505177  0.015840  0.211040  -0.290208
    C   C53   0.995130  0.513861  0.722971  -0.041968
    C   C54   0.004885  0.513863  0.276987  -0.042128
    C   C55   0.495130  0.013861  0.722971  -0.041953
    C   C56   0.504885  0.013863  0.276987  -0.042120
    O   O17   0.481584  0.614605  0.578582  -0.605221
    O   O18   0.485193  0.406406  0.454465  -0.568824
    O   O19   0.518430  0.614605  0.421375  -0.605260
    O   O20   0.514821  0.406406  0.545493  -0.568864
    O   O21   0.981584  0.114605  0.578582  -0.605218
    O   O22   0.985193  0.906406  0.454465  -0.568845
    O   O23   0.018430  0.114605  0.421375  -0.605265
    O   O24   0.014821  0.906406  0.545493  -0.568875
    C   C57   0.500007  0.648673  0.499979  0.843802
    C   C58   0.500007  0.372449  0.499979  0.794909
    C   C59   0.000007  0.148673  0.499979  0.843785
    C   C60   0.000007  0.872449  0.499979  0.794874
    O   O25   0.410018  0.490814  0.649997  -0.664508
    O   O26   0.589997  0.490813  0.349961  -0.664614
    O   O27   0.910018  0.990814  0.649997  -0.664520
    O   O28   0.089997  0.990813  0.349961  -0.664634
    O   O29   0.413612  0.530092  0.525922  -0.598697
    O   O30   0.586403  0.530093  0.474036  -0.598797
    O   O31   0.913612  0.030092  0.525922  -0.598718
    O   O32   0.086403  0.030093  0.474036  -0.598807
    C   C61   0.382805  0.510178  0.616774  0.823475
    C   C62   0.617210  0.510178  0.383184  0.823756
    C   C63   0.882805  0.010178  0.616774  0.823496
    C   C64   0.117210  0.010178  0.383184  0.823758
    Cu  Cu5   0.497872  0.510496  0.573384  0.977515
    Cu  Cu6   0.502142  0.510496  0.426574  0.977488
    Cu  Cu7   0.997872  0.010496  0.573384  0.977493
    Cu  Cu8   0.002142  0.010496  0.426574  0.977425
    O   O33   0.053397  0.616831  0.443191  -0.577568
    O   O34   0.946787  0.404968  0.556725  -0.595683
    O   O35   0.946618  0.616831  0.556768  -0.577589
    O   O36   0.053228  0.404968  0.443232  -0.595663
    O   O37   0.553397  0.116831  0.443191  -0.577563
    O   O38   0.446787  0.904968  0.556725  -0.595684
    O   O39   0.446618  0.116831  0.556768  -0.577575
    O   O40   0.553228  0.904968  0.443232  -0.595668
    C   C65   0.000008  0.650661  0.499979  0.771521
    C   C66   0.000008  0.370964  0.499979  0.735364
    C   C67   0.500008  0.150661  0.499979  0.771536
    C   C68   0.500008  0.870964  0.499979  0.735389
    O   O41   0.050531  0.513664  0.554883  -0.558659
    O   O42   0.949484  0.513665  0.445075  -0.558601
    O   O43   0.550531  0.013664  0.554883  -0.558654
    O   O44   0.449484  0.013665  0.445075  -0.558599
    O   O45   0.944012  0.513797  0.662415  -0.545840
    O   O46   0.056003  0.513798  0.337544  -0.545878
    O   O47   0.444012  0.013797  0.662415  -0.545829
    O   O48   0.556003  0.013798  0.337544  -0.545874
    C   C69   0.996568  0.511133  0.643311  0.664464
    C   C70   0.003447  0.511133  0.356647  0.664538
    C   C71   0.496568  0.011133  0.643311  0.664481
    C   C72   0.503447  0.011133  0.356647  0.664564
    Cu  Cu9   0.061560  0.510896  0.437902  0.981410
    Cu  Cu10  0.938455  0.510897  0.562056  0.981350
    Cu  Cu11  0.561560  0.010896  0.437902  0.981514
    Cu  Cu12  0.438455  0.010897  0.562056  0.981475
    C   C73   0.500007  0.726957  0.499978  -0.190935
    C   C74   0.500007  0.294359  0.499979  -0.172687
    C   C75   0.000007  0.226957  0.499978  -0.190927
    C   C76   0.000007  0.794359  0.499979  -0.172650
    C   C77   0.000008  0.292676  0.499978  -0.074688
    C   C78   0.000008  0.728755  0.499979  -0.113679
    C   C79   0.500008  0.792676  0.499978  -0.074685
    C   C80   0.500008  0.228755  0.499979  -0.113661
    C   C81   0.180588  0.567342  0.939495  -0.016714
    O   O49   0.145528  0.507914  0.998791  -0.463442
    H   H9    0.150478  0.615042  0.960645  0.094160
    H   H10   0.210216  0.582489  0.955174  0.069305
    H   H11   0.174261  0.478690  0.999073  0.339370
    C   C82   0.819427  0.567341  0.060463  -0.016598
    O   O50   0.854487  0.507911  0.001168  -0.463267
    H   H12   0.849538  0.615040  0.039311  0.094047
    H   H13   0.789799  0.582487  0.044783  0.069276
    H   H14   0.825754  0.478688  0.000885  0.339236
    C   C83   0.680588  0.067342  0.939495  -0.016685
    O   O51   0.645528  0.007914  0.998791  -0.463456
    H   H15   0.650478  0.115042  0.960645  0.094161
    H   H16   0.710216  0.082489  0.955174  0.069299
    H   H17   0.674261  0.978690  0.999073  0.339376
    C   C84   0.319427  0.067341  0.060463  -0.016637
    O   O52   0.354487  0.007911  0.001168  -0.463270
    H   H18   0.349538  0.115040  0.039311  0.094062
    H   H19   0.289799  0.082487  0.044783  0.069281
    H   H20   0.325754  0.978688  0.000885  0.339245
    C   C85   0.149833  0.499773  0.681919  0.337261
    O   O53   0.174363  0.524548  0.590753  -0.621575
    H   H21   0.134779  0.548745  0.727436  -0.025040
    H   H22   0.110044  0.463731  0.712211  -0.032457
    H   H23   0.137947  0.540075  0.599872  0.374259
    C   C86   0.850180  0.499780  0.318042  0.337052
    O   O54   0.825649  0.524558  0.409207  -0.621564
    H   H24   0.865235  0.548751  0.272522  -0.024934
    H   H25   0.889969  0.463739  0.287753  -0.032428
    H   H26   0.862067  0.540046  0.400103  0.374260
    C   C87   0.649833  0.999773  0.681919  0.337242
    O   O55   0.674363  0.024548  0.590753  -0.621592
    H   H27   0.634779  0.048745  0.727436  -0.025041
    H   H28   0.610044  0.963731  0.712211  -0.032461
    H   H29   0.637947  0.040075  0.599872  0.374270
    C   C88   0.350180  0.999780  0.318042  0.337080
    O   O56   0.325649  0.024558  0.409207  -0.621585
    H   H30   0.365235  0.048751  0.272522  -0.024947
    H   H31   0.389969  0.963739  0.287753  -0.032450
    H   H32   0.362067  0.040046  0.400103  0.374273
    C   C89   0.199679  0.362052  0.571523  0.370700
    O   O57   0.144772  0.329567  0.651398  -0.604568
    H   H33   0.231283  0.318795  0.519111  -0.039158
    H   H34   0.190370  0.398684  0.534607  -0.054458
    H   H35   0.116558  0.334557  0.638533  0.363813
    C   C90   0.800334  0.362062  0.428443  0.370570
    O   O58   0.855242  0.329577  0.348571  -0.604523
    H   H36   0.768730  0.318805  0.480857  -0.039123
    H   H37   0.809642  0.398697  0.465359  -0.054434
    H   H38   0.883455  0.334569  0.361436  0.363807
    C   C91   0.699679  0.862052  0.571523  0.370697
    O   O59   0.644772  0.829567  0.651398  -0.604568
    H   H39   0.731283  0.818795  0.519111  -0.039156
    H   H40   0.690370  0.898684  0.534607  -0.054456
    H   H41   0.616558  0.834557  0.638533  0.363813
    C   C92   0.300334  0.862062  0.428443  0.370593
    O   O60   0.355242  0.829577  0.348571  -0.604528
    H   H42   0.268730  0.818805  0.480857  -0.039125
    H   H43   0.309642  0.898697  0.465359  -0.054441
    H   H44   0.383455  0.834569  0.361436  0.363805
    C   C93   0.312908  0.604878  0.786137  0.289224
    O   O61   0.282270  0.671774  0.817084  -0.606105
    H   H45   0.361157  0.615931  0.720317  0.030928
    H   H46   0.313312  0.582434  0.841785  -0.030728
    H   H47   0.292128  0.694030  0.854570  0.368394
    C   C94   0.687106  0.604876  0.213818  0.289462
    O   O62   0.717744  0.671773  0.182871  -0.606189
    H   H48   0.638857  0.615929  0.279638  0.030809
    H   H49   0.686704  0.582431  0.158170  -0.030764
    H   H50   0.707887  0.694026  0.145383  0.368424
    C   C95   0.812908  0.104878  0.786137  0.289225
    O   O63   0.782270  0.171774  0.817084  -0.606114
    H   H51   0.861157  0.115931  0.720317  0.030931
    H   H52   0.813312  0.082434  0.841785  -0.030729
    H   H53   0.792128  0.194030  0.854570  0.368399
    C   C96   0.187106  0.104876  0.213818  0.289467
    O   O64   0.217744  0.171773  0.182871  -0.606194
    H   H54   0.138857  0.115929  0.279638  0.030814
    H   H55   0.186704  0.082431  0.158170  -0.030767
    H   H56   0.207887  0.194026  0.145383  0.368428
