# generated using pymatgen
data_CuH12C27NO6
_symmetry_space_group_name_H-M   'P 1'
_cell_length_a   21.07670900
_cell_length_b   21.36797800
_cell_length_c   13.67501600
_cell_angle_alpha   90.00000000
_cell_angle_beta   90.00000000
_cell_angle_gamma   90.00000000
_symmetry_Int_Tables_number   1
_chemical_formula_structural   CuH12C27NO6
_chemical_formula_sum   'Cu4 H48 C108 N4 O24'
_cell_volume   6158.77120239
_cell_formula_units_Z   4
loop_
 _symmetry_equiv_pos_site_id
 _symmetry_equiv_pos_as_xyz
  1  'x, y, z'
loop_
 _atom_site_type_symbol
 _atom_site_label
 _atom_site_symmetry_multiplicity
 _atom_site_fract_x
 _atom_site_fract_y
 _atom_site_fract_z
 _atom_site_occupancy
  Cu  Cu1  1  0.00035900  0.49759100  0.59681500  1
  Cu  Cu2  1  0.99987300  0.49922800  0.40069200  1
  Cu  Cu3  1  0.50005100  0.99832000  0.59909100  1
  Cu  Cu4  1  0.50037000  0.99828200  0.40304400  1
  H  H1  1  0.13535500  0.64464400  0.65725300  1
  H  H2  1  0.85605600  0.35985100  0.34227700  1
  H  H3  1  0.86769000  0.64544300  0.34674900  1
  H  H4  1  0.13679500  0.35529300  0.65300200  1
  H  H5  1  0.64624500  0.13436200  0.65585900  1
  H  H6  1  0.35583200  0.86116700  0.34489700  1
  H  H7  1  0.37093800  0.15018200  0.34522400  1
  H  H8  1  0.62895800  0.84695100  0.65536200  1
  H  H9  1  0.12720200  0.65192300  0.34619900  1
  H  H10  1  0.86974500  0.34932700  0.65344500  1
  H  H11  1  0.85804000  0.64001400  0.65830100  1
  H  H12  1  0.14742900  0.36110400  0.34074300  1
  H  H13  1  0.63186600  0.14818900  0.34461700  1
  H  H14  1  0.36642000  0.85045800  0.65565800  1
  H  H15  1  0.35889900  0.13869700  0.65616900  1
  H  H16  1  0.64200100  0.85979100  0.34408200  1
  H  H17  1  0.19777200  0.71922600  0.25764600  1
  H  H18  1  0.80343500  0.27834900  0.74157700  1
  H  H19  1  0.78393100  0.70220000  0.74423600  1
  H  H20  1  0.22054300  0.29979100  0.25700900  1
  H  H21  1  0.70005100  0.21845700  0.25758000  1
  H  H22  1  0.29615200  0.78196300  0.74380900  1
  H  H23  1  0.28830600  0.20460100  0.74110500  1
  H  H24  1  0.71305600  0.79397000  0.25736500  1
  H  H25  1  0.78328000  0.29594700  0.25728200  1
  H  H26  1  0.21170100  0.70585800  0.74411700  1
  H  H27  1  0.20613500  0.28770100  0.74233500  1
  H  H28  1  0.79685600  0.71482600  0.25707600  1
  H  H29  1  0.28140400  0.79843900  0.25764400  1
  H  H30  1  0.71913300  0.19718400  0.74201600  1
  H  H31  1  0.69916200  0.77907800  0.74415200  1
  H  H32  1  0.30188000  0.22047600  0.25617400  1
  H  H33  1  0.84447400  0.47762100  0.91207300  1
  H  H34  1  0.15624100  0.49242900  0.08786800  1
  H  H35  1  0.15725700  0.48224200  0.91602500  1
  H  H36  1  0.84254400  0.48311500  0.08566500  1
  H  H37  1  0.34107300  0.00164800  0.91787500  1
  H  H38  1  0.65865600  0.99484800  0.08525200  1
  H  H39  1  0.65835300  0.99519800  0.91685700  1
  H  H40  1  0.34132300  0.00037300  0.08736500  1
  H  H41  1  0.13605800  0.45858900  0.71059500  1
  H  H42  1  0.86115900  0.46420100  0.29057000  1
  H  H43  1  0.86575600  0.45796300  0.70201700  1
  H  H44  1  0.14093300  0.46131600  0.27605200  1
  H  H45  1  0.63882100  0.03686000  0.72268300  1
  H  H46  1  0.36216600  0.95782800  0.28196800  1
  H  H47  1  0.36518700  0.02988500  0.70135300  1
  H  H48  1  0.63618700  0.96719000  0.30013200  1
  C  C1  1  0.08791300  0.41471300  0.49568800  1
  C  C2  1  0.91307700  0.58299400  0.50167100  1
  C  C3  1  0.91622300  0.41094800  0.49679400  1
  C  C4  1  0.08296300  0.58694200  0.50015400  1
  C  C5  1  0.58439400  0.91112000  0.50100700  1
  C  C6  1  0.41615600  0.08562000  0.50063700  1
  C  C7  1  0.41297600  0.91368200  0.50105100  1
  C  C8  1  0.58688000  0.08299900  0.50103100  1
  C  C9  1  0.15342100  0.66088100  0.58799500  1
  C  C10  1  0.84114900  0.34091500  0.41185100  1
  C  C11  1  0.84521200  0.65945300  0.41428500  1
  C  C12  1  0.15818900  0.34114600  0.58496900  1
  C  C13  1  0.66181700  0.15333100  0.58695500  1
  C  C14  1  0.33902900  0.84323400  0.41370500  1
  C  C15  1  0.34968500  0.16394400  0.41339100  1
  C  C16  1  0.65027300  0.83314700  0.58706100  1
  C  C17  1  0.12981900  0.63805100  0.50081800  1
  C  C18  1  0.86754900  0.36178500  0.49807900  1
  C  C19  1  0.86490100  0.63308400  0.50184700  1
  C  C20  1  0.13769000  0.36656600  0.49711800  1
  C  C21  1  0.63525300  0.13284200  0.50020100  1
  C  C22  1  0.36475600  0.86400700  0.50072100  1
  C  C23  1  0.36897800  0.13664300  0.50032000  1
  C  C24  1  0.63116500  0.86039900  0.50036600  1
  C  C25  1  0.14951400  0.66496000  0.41405300  1
  C  C26  1  0.84822900  0.33504400  0.58555400  1
  C  C27  1  0.84053800  0.65593200  0.58865600  1
  C  C28  1  0.16345700  0.34467400  0.41106700  1
  C  C29  1  0.65401300  0.16073300  0.41321700  1
  C  C30  1  0.34489500  0.83720300  0.58738900  1
  C  C31  1  0.34331400  0.15801600  0.58724300  1
  C  C32  1  0.65695600  0.83981600  0.41305000  1
  C  C33  1  0.19644600  0.70993400  0.41372800  1
  C  C34  1  0.80215500  0.28897500  0.58631900  1
  C  C35  1  0.79328800  0.70039900  0.58793600  1
  C  C36  1  0.21026900  0.29993600  0.41261100  1
  C  C37  1  0.70108700  0.20569600  0.41327600  1
  C  C38  1  0.29703400  0.79300200  0.58755100  1
  C  C39  1  0.29755100  0.20425100  0.58673200  1
  C  C40  1  0.70321300  0.79399400  0.41304300  1
  C  C41  1  0.22273000  0.72953500  0.50062500  1
  C  C42  1  0.77537800  0.26934100  0.49981400  1
  C  C43  1  0.77147800  0.72420500  0.50036600  1
  C  C44  1  0.23103300  0.27518800  0.49966700  1
  C  C45  1  0.72858100  0.22425000  0.50000100  1
  C  C46  1  0.27015500  0.77401800  0.50052800  1
  C  C47  1  0.27732000  0.22960100  0.49981600  1
  C  C48  1  0.72403800  0.76872900  0.50016500  1
  C  C49  1  0.20090700  0.70527100  0.58782800  1
  C  C50  1  0.79513900  0.29519600  0.41287200  1
  C  C51  1  0.79808600  0.70459600  0.41338300  1
  C  C52  1  0.20499100  0.29581300  0.58618300  1
  C  C53  1  0.70845600  0.19855600  0.58682700  1
  C  C54  1  0.29142100  0.79890100  0.41354600  1
  C  C55  1  0.30336300  0.20955200  0.41293700  1
  C  C56  1  0.69761000  0.78841900  0.58736300  1
  C  C57  1  0.21770700  0.73471700  0.32639500  1
  C  C58  1  0.78236400  0.26296200  0.67351900  1
  C  C59  1  0.76746400  0.72069300  0.67523000  1
  C  C60  1  0.23632600  0.28013500  0.32575600  1
  C  C61  1  0.72091400  0.23197100  0.32638700  1
  C  C62  1  0.27576100  0.76792700  0.67479700  1
  C  C63  1  0.27190300  0.22500300  0.67352400  1
  C  C64  1  0.72950400  0.77429700  0.32587700  1
  C  C65  1  0.76825300  0.27606100  0.32611900  1
  C  C66  1  0.22748700  0.72470000  0.67499800  1
  C  C67  1  0.22579200  0.27107000  0.67371500  1
  C  C68  1  0.77694900  0.72979200  0.32599300  1
  C  C69  1  0.26508000  0.77922300  0.32631100  1
  C  C70  1  0.73526100  0.21780700  0.67385000  1
  C  C71  1  0.71930300  0.76415600  0.67505800  1
  C  C72  1  0.28284400  0.23517600  0.32571900  1
  C  C73  1  0.05574300  0.49619900  0.79552500  1
  C  C74  1  0.94378700  0.49841400  0.20368400  1
  C  C75  1  0.94470900  0.49519800  0.79452500  1
  C  C76  1  0.05499100  0.49970000  0.20386300  1
  C  C77  1  0.55563300  0.99684300  0.79752600  1
  C  C78  1  0.44453600  0.99909900  0.20549200  1
  C  C79  1  0.44454100  0.99809600  0.79716500  1
  C  C80  1  0.55585300  0.99908900  0.20560000  1
  C  C81  1  0.94445600  0.49277500  0.89649600  1
  C  C82  1  0.05533900  0.49757400  0.10217000  1
  C  C83  1  0.05611800  0.49495200  0.89736100  1
  C  C84  1  0.94358700  0.49502300  0.10175600  1
  C  C85  1  0.44374600  0.99809300  0.89956700  1
  C  C86  1  0.55617500  0.99816300  0.10364900  1
  C  C87  1  0.55587200  0.99658300  0.89939200  1
  C  C88  1  0.44391800  0.99929200  0.10381100  1
  C  C89  1  0.00009500  0.49391400  0.94826200  1
  C  C90  1  0.99965500  0.49491800  0.05052600  1
  C  C91  1  0.49983400  0.99762600  0.95071900  1
  C  C92  1  0.49995000  0.99806900  0.05256400  1
  C  C93  1  0.88853100  0.48699200  0.94834300  1
  C  C94  1  0.11166500  0.49612000  0.05063300  1
  C  C95  1  0.11217800  0.49244800  0.95002000  1
  C  C96  1  0.88762600  0.48945000  0.04928600  1
  C  C97  1  0.38721000  0.99959400  0.95194900  1
  C  C98  1  0.61255900  0.99661900  0.05140800  1
  C  C99  1  0.61238700  0.99587400  0.95122500  1
  C  C100  1  0.38730000  0.99996800  0.05233200  1
  C  C101  1  0.11654700  0.49975500  0.74480600  1
  C  C102  1  0.88239800  0.50396300  0.25379700  1
  C  C103  1  0.88367800  0.49776400  0.74247300  1
  C  C104  1  0.11654100  0.50381800  0.25399500  1
  C  C105  1  0.61680600  0.99417300  0.74776400  1
  C  C106  1  0.38336000  0.00070000  0.25612700  1
  C  C107  1  0.38360600  0.99255600  0.74607600  1
  C  C108  1  0.61696500  0.00483000  0.25652400  1
  N  N1  1  0.00041700  0.49668400  0.74358600  1
  N  N2  1  0.99919500  0.50008200  0.25430300  1
  N  N3  1  0.50030500  0.99856000  0.74609600  1
  N  N4  1  0.50019600  0.99794200  0.25620900  1
  O  O1  1  0.06604800  0.43416900  0.58010100  1
  O  O2  1  0.93567000  0.56446600  0.41745300  1
  O  O3  1  0.93155300  0.55846300  0.58477500  1
  O  O4  1  0.06708300  0.43669300  0.41232200  1
  O  O5  1  0.93670300  0.43302700  0.41357100  1
  O  O6  1  0.06199400  0.56527200  0.58390800  1
  O  O7  1  0.06566500  0.56317700  0.41605300  1
  O  O8  1  0.93694500  0.43178400  0.58053100  1
  O  O9  1  0.56570600  0.93416800  0.58501800  1
  O  O10  1  0.43478500  0.06248000  0.41674400  1
  O  O11  1  0.43789900  0.06529000  0.58465800  1
  O  O12  1  0.56247200  0.93130900  0.41738200  1
  O  O13  1  0.43302500  0.93618800  0.41765200  1
  O  O14  1  0.56781900  0.06013600  0.58507400  1
  O  O15  1  0.56519800  0.06298700  0.41711200  1
  O  O16  1  0.43560700  0.93326600  0.58477500  1
  O  O17  1  0.14912300  0.54657700  0.75222000  1
  O  O18  1  0.84888800  0.54924900  0.23736700  1
  O  O19  1  0.84813100  0.54192800  0.75543600  1
  O  O20  1  0.14755200  0.55184300  0.24812400  1
  O  O21  1  0.64799800  0.94618200  0.75021900  1
  O  O22  1  0.35138200  0.04820400  0.25484700  1
  O  O23  1  0.35102000  0.94616300  0.75856800  1
  O  O24  1  0.64965400  0.05110400  0.24336300  1
