# Generated by REPEAT Assigner based on pymatgen
data_DB0-m15_o27_o113_f0_fsc
_audit_creation_date              2022-05-24
_audit_creation_method            REPEAT_Assigner
_cell_length_a                    12.379082
_cell_length_b                    18.016593
_cell_length_c                    6.728637
_cell_angle_alpha                 90.000000
_cell_angle_beta                  80.370374
_cell_angle_gamma                 90.000000
_cell_volume                      1479.535229
_symmetry_space_group_name_H-M    P1
_symmetry_Int_Tables_number       1
loop_
    _symmetry_equiv_pos_site_id
    _symmetry_equiv_pos_as_xyz
    1  x,y,z
loop_
    _atom_site_type_symbol
    _atom_site_label
    _atom_site_fract_x
    _atom_site_fract_y
    _atom_site_fract_z
    _atom_type_partial_charge
    Co  Co1  0.004186  0.926925  0.012232  0.785095
    Co  Co2  0.997062  0.074524  0.994179  0.818207
    O   O1   0.885575  0.931339  0.838990  -0.653498
    O   O2   0.880985  0.057716  0.820815  -0.660702
    O   O3   0.118949  0.944221  0.188054  -0.625800
    O   O4   0.114754  0.069984  0.167904  -0.638414
    O   O5   0.122070  0.936442  0.766829  -0.586636
    O   O6   0.113896  0.062505  0.748173  -0.584284
    O   O7   0.888117  0.938833  0.258530  -0.578509
    O   O8   0.880621  0.064763  0.241242  -0.599335
    C   C1   0.845682  0.992411  0.772922  0.855000
    C   C2   0.153179  0.009452  0.238235  0.792685
    C   C3   0.155584  0.998907  0.677020  0.750205
    C   C4   0.848120  0.002370  0.332378  0.726252
    C   C5   0.022226  0.231011  0.810237  -0.185524
    C   C6   0.040254  0.771286  0.843651  -0.192787
    H   H1   0.048319  0.200914  0.671518  0.149686
    H   H2   0.064637  0.802241  0.705823  0.161652
    C   C7   0.023001  0.307721  0.809645  0.213559
    C   C8   0.039555  0.694879  0.838281  0.212056
    H   H3   0.049273  0.337668  0.670750  0.010045
    H   H4   0.063622  0.665986  0.697018  0.004622
    C   C9   0.991776  0.345835  0.987653  -0.535883
    C   C10  0.006725  0.655561  0.013044  -0.536036
    C   C11  0.958940  0.306689  0.162686  0.224016
    C   C12  0.976124  0.693481  0.191521  0.216564
    H   H5   0.934460  0.335730  0.303599  -0.000934
    H   H6   0.949951  0.663390  0.330214  0.008620
    C   C13  0.958957  0.230280  0.158160  -0.200959
    C   C14  0.977634  0.770171  0.191781  -0.192520
    H   H7   0.934735  0.199480  0.296295  0.156468
    H   H8   0.952226  0.800120  0.330970  0.144471
    N   N1   0.990780  0.193650  0.983756  0.139540
    N   N2   0.009116  0.807720  0.018604  0.154201
    N   N3   0.966290  0.462458  0.170019  -0.310842
    N   N4   0.970170  0.535740  0.176772  -0.333037
    C   C15  0.003138  0.574650  0.006924  0.877519
    C   C16  0.995084  0.426761  0.993432  0.871468
    N   N5   0.031940  0.538957  0.830321  -0.314202
    N   N6   0.028070  0.465669  0.823571  -0.328756
    C   C17  0.253256  0.013749  0.325335  0.033071
    C   C18  0.349706  0.026933  0.196020  -0.196928
    C   C19  0.448648  0.023010  0.262971  -0.038229
    C   C20  0.255485  0.999591  0.526546  -0.303931
    C   C21  0.355046  0.993890  0.593123  0.484544
    C   C22  0.452168  0.004761  0.461427  -0.186938
    C   C23  0.550909  0.998873  0.532073  0.178391
    C   C24  0.650336  0.007290  0.405928  -0.249796
    C   C25  0.747440  0.001677  0.479442  -0.049921
    N   N7   0.356571  0.978152  0.788316  -0.378151
    C   C26  0.451713  0.972303  0.859029  -0.015147
    C   C27  0.549997  0.982996  0.732409  0.099473
    C   C28  0.646994  0.978550  0.807440  -0.175079
    C   C29  0.746229  0.988749  0.682290  -0.085460
    H   H9   0.347477  0.039565  0.039621  0.165658
    H   H10  0.645082  0.968570  0.966420  0.112418
    H   H11  0.521839  0.034205  0.156487  0.062193
    H   H12  0.655218  0.016216  0.246610  0.196770
    H   H13  0.451276  0.958510  0.015534  0.133789
