# generated using pymatgen
data_ZnH3C16Br4NO4
_symmetry_space_group_name_H-M   'P 1'
_cell_length_a   13.14047500
_cell_length_b   16.14057400
_cell_length_c   14.97023400
_cell_angle_alpha   90.00837200
_cell_angle_beta   95.46975300
_cell_angle_gamma   89.99673800
_symmetry_Int_Tables_number   1
_chemical_formula_structural   ZnH3C16Br4NO4
_chemical_formula_sum   'Zn2 H6 C32 Br8 N2 O8'
_cell_volume   3160.65152803
_cell_formula_units_Z   2
loop_
 _symmetry_equiv_pos_site_id
 _symmetry_equiv_pos_as_xyz
  1  'x, y, z'
loop_
 _atom_site_type_symbol
 _atom_site_label
 _atom_site_symmetry_multiplicity
 _atom_site_fract_x
 _atom_site_fract_y
 _atom_site_fract_z
 _atom_site_occupancy
  Zn  Zn1  1  0.50413000  0.49996900  0.60192300  1
  Zn  Zn2  1  0.49586900  0.50003200  0.39807600  1
  H  H1  1  0.49552000  0.92380900  0.64183600  1
  H  H2  1  0.50447900  0.07619000  0.35816400  1
  H  H3  1  0.37359000  0.41387700  0.06807400  1
  H  H4  1  0.62640800  0.58612200  0.93192700  1
  H  H5  1  0.38013200  0.41350000  0.90438700  1
  H  H6  1  0.61986600  0.58649900  0.09561200  1
  C  C1  1  0.50868100  0.33815800  0.50038000  1
  C  C2  1  0.49131600  0.66184200  0.49962000  1
  C  C3  1  0.29993600  0.49242500  0.48885300  1
  C  C4  1  0.70006200  0.50757600  0.51114700  1
  C  C5  1  0.81191700  0.51578400  0.51599300  1
  C  C6  1  0.18808400  0.48421500  0.48400700  1
  C  C7  1  0.03613000  0.41083800  0.43205000  1
  C  C8  1  0.96387100  0.58916100  0.56794900  1
  C  C9  1  0.14057500  0.41833600  0.43987800  1
  C  C10  1  0.85942600  0.58166300  0.56012200  1
  C  C11  1  0.13054400  0.54455400  0.52069300  1
  C  C12  1  0.86945700  0.45544500  0.47930700  1
  C  C13  1  0.02411400  0.53408500  0.52253900  1
  C  C14  1  0.97588700  0.46591500  0.47746000  1
  C  C15  1  0.49739400  0.95727600  0.57947700  1
  C  C16  1  0.50260800  0.04272400  0.42052300  1
  C  C17  1  0.49531800  0.91452800  0.49954200  1
  C  C18  1  0.50467900  0.08547200  0.50045800  1
  C  C19  1  0.49797900  0.95733200  0.42001200  1
  C  C20  1  0.50202100  0.04266800  0.57998900  1
  C  C21  1  0.49212300  0.82554800  0.49944100  1
  C  C22  1  0.50787900  0.17445300  0.50055900  1
  C  C23  1  0.50921500  0.24916800  0.50042300  1
  C  C24  1  0.49078600  0.75083200  0.49957700  1
  C  C25  1  0.43285300  0.45146200  0.94643500  1
  C  C26  1  0.56714700  0.54853800  0.05356400  1
  C  C27  1  0.50384800  0.49963600  0.90836000  1
  C  C28  1  0.49615300  0.50036500  0.09164000  1
  C  C29  1  0.57093000  0.54825100  0.96186800  1
  C  C30  1  0.42907000  0.45174900  0.03813300  1
  C  C31  1  0.50702600  0.49976700  0.81291300  1
  C  C32  1  0.49297700  0.50023500  0.18708700  1
  Br  Br1  1  0.79567200  0.35444500  0.45253300  1
  Br  Br2  1  0.20432800  0.64555500  0.54746700  1
  Br  Br3  1  0.78266500  0.66416600  0.61590100  1
  Br  Br4  1  0.21733300  0.33583500  0.38410000  1
  Br  Br5  1  0.98862700  0.32853900  0.34562400  1
  Br  Br6  1  0.01137300  0.67146100  0.65437700  1
  Br  Br7  1  0.50447100  0.10124500  0.69077200  1
  Br  Br8  1  0.49552900  0.89875500  0.30922800  1
  N  N1  1  0.49135100  0.50013000  0.26418300  1
  N  N2  1  0.50864900  0.49986800  0.73581800  1
  O  O1  1  0.51012900  0.37665100  0.57765400  1
  O  O2  1  0.48987400  0.62334700  0.42234500  1
  O  O3  1  0.50346200  0.37668000  0.42293400  1
  O  O4  1  0.49654100  0.62331900  0.57706800  1
  O  O5  1  0.35117600  0.49436100  0.56855800  1
  O  O6  1  0.64882300  0.50563900  0.43144200  1
  O  O7  1  0.34453900  0.49442900  0.41392600  1
  O  O8  1  0.65546000  0.50557200  0.58607400  1
