# Generated by REPEAT Assigner based on pymatgen
data_DB0-m3_o500_o23_f0_fsc.sym.24_sqe
_audit_creation_date              2022-05-24
_audit_creation_method            REPEAT_Assigner
_cell_length_a                    11.367913
_cell_length_b                    14.200874
_cell_length_c                    8.502805
_cell_angle_alpha                 90.000000
_cell_angle_beta                  107.385083
_cell_angle_gamma                 90.000000
_cell_volume                      1309.939545
_symmetry_space_group_name_H-M    P1
_symmetry_Int_Tables_number       1
loop_
    _symmetry_equiv_pos_site_id
    _symmetry_equiv_pos_as_xyz
    1  x,y,z
loop_
    _atom_site_type_symbol
    _atom_site_label
    _atom_site_fract_x
    _atom_site_fract_y
    _atom_site_fract_z
    _atom_type_partial_charge
    C   C1   0.683462  0.035055  0.581786  -0.144366
    C   C2   0.745006  0.023457  0.746150  -0.093357
    C   C3   0.868463  0.999246  0.796695  0.073885
    C   C4   0.923886  0.974144  0.678084  -0.034456
    H   H1   0.016409  0.946309  0.713346  0.068655
    C   C5   0.856848  0.975769  0.512613  -0.180326
    C   C6   0.737899  0.010279  0.464211  -0.057611
    C   C7   0.936765  0.998720  0.974158  -0.139561
    C   C8   0.059225  0.011105  0.029071  -0.245557
    H   H2   0.884615  0.991296  0.060994  0.121147
    H   H3   0.111325  0.018548  0.942178  0.145052
    C   C9   0.251127  0.986643  0.256970  -0.164541
    C   C10  0.312787  0.975220  0.421430  -0.135076
    C   C11  0.258269  0.999770  0.539120  -0.069986
    C   C12  0.139190  0.034019  0.490690  -0.163874
    C   C13  0.072151  0.035600  0.325203  -0.067879
    H   H4   0.979546  0.063269  0.289982  0.083238
    C   C14  0.127588  0.010631  0.206523  0.135530
    H   H5   0.586938  0.053646  0.544550  0.130369
    H   H6   0.897786  0.949970  0.421530  0.125674
    H   H7   0.409367  0.956793  0.458631  0.142699
    H   H8   0.098146  0.059654  0.581770  0.106774
    O   O1   0.611364  0.087631  0.224627  -0.736165
    O   O2   0.631687  0.925799  0.221851  -0.710885
    C   C15  0.660596  0.008185  0.292738  0.845881
    O   O3   0.378028  0.914619  0.114495  -0.766921
    O   O4   0.357988  0.076269  0.110733  -0.735689
    C   C16  0.326393  0.991920  0.146078  0.952308
    O   O5   0.384879  0.922472  0.778873  -0.767703
    O   O6   0.364532  0.084224  0.781657  -0.738020
    C   C17  0.335490  0.001861  0.710767  0.897315
    O   O7   0.618171  0.095488  0.888556  -0.697230
    O   O8   0.638219  0.933772  0.892330  -0.715755
    C   C18  0.669586  0.018144  0.856711  0.852123
    Zn  Zn1  0.509006  0.901470  0.000743  1.097026
    Zn  Zn2  0.487862  0.108581  0.002755  1.074693
    C   C19  0.629078  0.550474  0.989219  -0.368403
    C   C20  0.608646  0.445405  0.961685  -0.253302
    C   C21  0.405644  0.560665  0.854791  -0.217071
    C   C22  0.383096  0.456576  0.875314  -0.048703
    H   H9   0.590244  0.432762  0.827807  0.104173
    H   H10  0.647920  0.579900  0.878343  0.131860
    H   H11  0.320424  0.600862  0.846924  0.074507
    H   H12  0.299382  0.447718  0.915231  0.020572
    H   H13  0.431261  0.571635  0.740107  0.055537
    H   H14  0.369770  0.419734  0.756235  0.046099
    N   N1   0.480684  0.232020  0.007802  0.066961
    N   N2   0.520750  0.778216  0.998353  0.072194
    C   C23  0.509921  0.593967  0.001752  0.766722
    C   C24  0.493478  0.416200  0.005463  0.552845
    C   C25  0.493171  0.456030  0.170998  0.025337
    C   C26  0.480859  0.562115  0.156423  -0.128996
    C   C27  0.485145  0.313412  0.007244  -0.302194
    C   C28  0.517511  0.696791  0.999567  -0.321623
    H   H15  0.540530  0.597488  0.267755  0.018657
    H   H16  0.577480  0.436153  0.269336  -0.076550
    H   H17  0.384089  0.581433  0.144664  0.018089
    H   H18  0.412937  0.427477  0.204214  0.031111
    C   C29  0.738027  0.573627  0.133696  0.645468
    O   O9   0.824415  0.616391  0.110731  -0.525459
    O   O10  0.742267  0.548830  0.287970  -0.126489
    C   C30  0.843112  0.571349  0.417672  -0.162439
    H   H19  0.829516  0.545153  0.533886  0.099346
    H   H20  0.854960  0.648907  0.424606  0.089695
    H   H21  0.926468  0.538179  0.399668  0.095652
    C   C31  0.719439  0.387899  0.047929  0.710533
    O   O11  0.774461  0.346060  0.966257  -0.542111
    O   O12  0.757325  0.379291  0.212989  -0.158139
    C   C32  0.858078  0.325014  0.288207  -0.220767
    H   H22  0.874892  0.326692  0.423540  0.111802
    H   H23  0.939994  0.353007  0.258449  0.099041
    H   H24  0.840936  0.251404  0.243666  0.128638
