# generated using pymatgen
data_ZnH11C22NO8
_symmetry_space_group_name_H-M   'P 1'
_cell_length_a   17.83209300
_cell_length_b   16.65842600
_cell_length_c   11.05828600
_cell_angle_alpha   90.00000000
_cell_angle_beta   90.00056600
_cell_angle_gamma   90.00000000
_symmetry_Int_Tables_number   1
_chemical_formula_structural   ZnH11C22NO8
_chemical_formula_sum   'Zn2 H22 C44 N2 O16'
_cell_volume   3284.91474267
_cell_formula_units_Z   2
loop_
 _symmetry_equiv_pos_site_id
 _symmetry_equiv_pos_as_xyz
  1  'x, y, z'
loop_
 _atom_site_type_symbol
 _atom_site_label
 _atom_site_symmetry_multiplicity
 _atom_site_fract_x
 _atom_site_fract_y
 _atom_site_fract_z
 _atom_site_occupancy
  Zn  Zn1  1  0.49999700  0.58976100  0.49999500  1
  Zn  Zn2  1  0.49999700  0.40759300  0.49999800  1
  H  H1  1  0.49825400  0.37265500  0.10942600  1
  H  H2  1  0.50169200  0.37265500  0.89056600  1
  H  H3  1  0.56332000  0.64760700  0.19470900  1
  H  H4  1  0.43673700  0.64764800  0.80529900  1
  H  H5  1  0.53702300  0.77201700  0.09375800  1
  H  H6  1  0.46309500  0.77203900  0.90625700  1
  H  H7  1  0.88564400  0.60926900  0.43996800  1
  H  H8  1  0.11435200  0.60925800  0.56009300  1
  H  H9  1  0.73435800  0.37388900  0.54730100  1
  H  H10  1  0.26563800  0.37390300  0.45263400  1
  H  H11  1  0.87029400  0.36638500  0.55169700  1
  H  H12  1  0.12970100  0.36639800  0.44824100  1
  H  H13  1  0.42734600  0.87117900  0.35251900  1
  H  H14  1  0.57264000  0.87119800  0.64744600  1
  H  H15  1  0.41461500  0.13288100  0.36542500  1
  H  H16  1  0.58536900  0.13287100  0.63455300  1
  H  H17  1  0.41565100  0.28041700  0.36705900  1
  H  H18  1  0.58434000  0.28040800  0.63293400  1
  H  H19  1  0.67869300  0.69576600  0.29319100  1
  H  H20  1  0.32131700  0.69571700  0.70689700  1
  H  H21  1  0.33771600  0.64299300  0.25648000  1
  H  H22  1  0.66225300  0.64297500  0.74353200  1
  C  C1  1  0.35272400  0.49845300  0.50793300  1
  C  C2  1  0.64727000  0.49845100  0.49206000  1
  C  C3  1  0.49954000  0.49901200  0.26182500  1
  C  C4  1  0.50045400  0.49901200  0.73816900  1
  C  C5  1  0.53271600  0.64465400  0.11122600  1
  C  C6  1  0.46734600  0.64467500  0.88877700  1
  C  C7  1  0.52014400  0.71599400  0.05259500  1
  C  C8  1  0.47995200  0.71600600  0.94741200  1
  C  C9  1  0.49086100  0.57238800  0.93907500  1
  C  C10  1  0.50916800  0.57238200  0.06092200  1
  C  C11  1  0.50486500  0.50072000  0.12699400  1
  C  C12  1  0.49513300  0.50072300  0.87300100  1
  C  C13  1  0.49984300  0.42957100  0.06264300  1
  C  C14  1  0.50012700  0.42957200  0.93735100  1
  C  C15  1  0.85126600  0.55843000  0.46479400  1
  C  C16  1  0.14872900  0.55842500  0.53523800  1
  C  C17  1  0.77409700  0.56364600  0.45757100  1
  C  C18  1  0.22589900  0.56364000  0.54246100  1
  C  C19  1  0.73021500  0.49706800  0.48862900  1
  C  C20  1  0.26978000  0.49706900  0.51136600  1
  C  C21  1  0.76612300  0.42649100  0.52201000  1
  C  C22  1  0.23387200  0.42649900  0.47795300  1
  C  C23  1  0.84329000  0.42187300  0.52575800  1
  C  C24  1  0.15670500  0.42188100  0.47420700  1
  C  C25  1  0.88581900  0.48799700  0.49740900  1
  C  C26  1  0.11417600  0.48799800  0.50258900  1
  C  C27  1  0.96621100  0.48433500  0.49945700  1
  C  C28  1  0.03378500  0.48433600  0.50054200  1
  C  C29  1  0.45993200  0.83690500  0.41668600  1
  C  C30  1  0.54005600  0.83691300  0.58328900  1
  C  C31  1  0.45920800  0.75375700  0.41612300  1
  C  C32  1  0.54078800  0.75376500  0.58386300  1
  C  C33  1  0.49999200  0.87844100  0.49998600  1
  C  C34  1  0.49999000  0.96458700  0.49998300  1
  C  C35  1  0.49999000  0.03692600  0.49998400  1
  C  C36  1  0.45235800  0.16480700  0.42491300  1
  C  C37  1  0.54762700  0.16480100  0.57506900  1
  C  C38  1  0.45303700  0.24758400  0.42598500  1
  C  C39  1  0.54695200  0.24757800  0.57400500  1
  C  C40  1  0.49999200  0.12307100  0.49998900  1
  C  C41  1  0.74341000  0.63928200  0.41056600  1
  C  C42  1  0.25658800  0.63926400  0.58950600  1
  C  C43  1  0.41297900  0.71971600  0.31739900  1
  C  C44  1  0.58703200  0.71973400  0.68258200  1
  N  N1  1  0.49999900  0.71051300  0.49999700  1
  N  N2  1  0.49999600  0.28757800  0.49999700  1
  O  O1  1  0.38842100  0.56726700  0.50769000  1
  O  O2  1  0.61157200  0.56726400  0.49229800  1
  O  O3  1  0.38819500  0.42959000  0.50200100  1
  O  O4  1  0.61179900  0.42958700  0.49799500  1
  O  O5  1  0.49609100  0.56729500  0.32023900  1
  O  O6  1  0.50389900  0.56729300  0.67975000  1
  O  O7  1  0.49926400  0.42966700  0.31940600  1
  O  O8  1  0.50073100  0.42966600  0.68059100  1
  O  O9  1  0.77105800  0.70291800  0.44188300  1
  O  O10  1  0.68990200  0.63876000  0.31915700  1
  O  O11  1  0.22893400  0.70290700  0.55823900  1
  O  O12  1  0.31010800  0.63871800  0.68089700  1
  O  O13  1  0.40482700  0.75884200  0.22525100  1
  O  O14  1  0.36841900  0.65258200  0.33208600  1
  O  O15  1  0.59523300  0.75889000  0.77469000  1
  O  O16  1  0.63153600  0.65255400  0.66793700  1
