data_DB0-m3_o12_o29_f0_pcu.sym.15_repeat
_audit_creation_date              2024-02-23
_audit_creation_method            'Materials Studio'
_symmetry_space_group_name_H-M    'P1'
_symmetry_Int_Tables_number       1
_symmetry_cell_setting            triclinic
loop_
_symmetry_equiv_pos_as_xyz
  x,y,z
_cell_length_a                    9.9992
_cell_length_b                    11.2588
_cell_length_c                    27.6662
_cell_angle_alpha                 89.9785
_cell_angle_beta                  80.7916
_cell_angle_gamma                 92.4428
loop_
_atom_site_label
_atom_site_type_symbol
_atom_site_fract_x
_atom_site_fract_y
_atom_site_fract_z
_atom_site_U_iso_or_equiv
_atom_site_adp_type
_atom_site_occupancy
O1     O     0.42595   0.69082   0.50453   0.00000  Uiso   1.00
O2     O     0.57400   0.30913   0.49555   0.00000  Uiso   1.00
O3     O     0.65533   0.65889   0.49062   0.00000  Uiso   1.00
O4     O     0.34461   0.34106   0.50940   0.00000  Uiso   1.00
C1     C     0.55317   0.72970   0.49680   0.00000  Uiso   1.00
C2     C     0.44678   0.27025   0.50325   0.00000  Uiso   1.00
O5     O     0.38739   0.51582   0.57886   0.00000  Uiso   1.00
O6     O     0.61254   0.48405   0.42119   0.00000  Uiso   1.00
O7     O     0.61665   0.48388   0.56501   0.00000  Uiso   1.00
O8     O     0.38332   0.51615   0.43504   0.00000  Uiso   1.00
C3     C     0.50245   0.49983   0.59456   0.00000  Uiso   1.00
C4     C     0.49750   0.50011   0.40549   0.00000  Uiso   1.00
Zn1    Zn    0.34879   0.52114   0.50919   0.00000  Uiso   1.00
Zn2    Zn    0.65116   0.47881   0.49086   0.00000  Uiso   1.00
C5     C     0.57773   0.58259   0.81937   0.00000  Uiso   1.00
C6     C     0.41460   0.42308   0.18098   0.00000  Uiso   1.00
O9     O     0.64899   0.66708   0.79061   0.00000  Uiso   1.00
O10    O     0.33586   0.34354   0.21007   0.00000  Uiso   1.00
N1     N     0.50406   0.49868   0.79934   0.00000  Uiso   1.00
N2     N     0.49601   0.50133   0.20063   0.00000  Uiso   1.00
C7     C     0.42976   0.41489   0.82780   0.00000  Uiso   1.00
C8     C     0.57803   0.57954   0.17173   0.00000  Uiso   1.00
C9     C     0.62277   0.48494   0.71562   0.00000  Uiso   1.00
C10    C     0.37843   0.52018   0.28435   0.00000  Uiso   1.00
C11    C     0.62251   0.48500   0.66577   0.00000  Uiso   1.00
C12    C     0.37861   0.51983   0.33420   0.00000  Uiso   1.00
C13    C     0.38426   0.51405   0.67983   0.00000  Uiso   1.00
C14    C     0.61451   0.48088   0.32029   0.00000  Uiso   1.00
C15    C     0.38474   0.51350   0.72964   0.00000  Uiso   1.00
C16    C     0.61400   0.48114   0.27049   0.00000  Uiso   1.00
C17    C     0.50390   0.49901   0.74775   0.00000  Uiso   1.00
C18    C     0.49610   0.50089   0.25226   0.00000  Uiso   1.00
C19    C     0.50239   0.49918   0.89921   0.00000  Uiso   1.00
C20    C     0.49770   0.50094   0.10073   0.00000  Uiso   1.00
C21    C     0.57772   0.58378   0.86941   0.00000  Uiso   1.00
C22    C     0.41421   0.42230   0.13096   0.00000  Uiso   1.00
C23    C     0.65129   0.67047   0.88978   0.00000  Uiso   1.00
C24    C     0.33012   0.34326   0.11114   0.00000  Uiso   1.00
C25    C     0.42811   0.41419   0.87792   0.00000  Uiso   1.00
C26    C     0.58012   0.57993   0.12158   0.00000  Uiso   1.00
C27    C     0.50317   0.49964   0.64757   0.00000  Uiso   1.00
C28    C     0.49677   0.50025   0.35249   0.00000  Uiso   1.00
H1     H     0.28959   0.52604   0.66670   0.00000  Uiso   1.00
H2     H     0.70826   0.46508   0.33348   0.00000  Uiso   1.00
H3     H     0.29132   0.52589   0.75444   0.00000  Uiso   1.00
H4     H     0.70651   0.46474   0.24580   0.00000  Uiso   1.00
H5     H     0.70970   0.73928   0.86751   0.00000  Uiso   1.00
H6     H     0.26180   0.28166   0.13395   0.00000  Uiso   1.00
C29    C     0.58194   0.58263   0.02066   0.00000  Uiso   1.00
C30    C     0.42216   0.41461   0.97906   0.00000  Uiso   1.00
C31    C     0.41691   0.41802   0.03000   0.00000  Uiso   1.00
C32    C     0.57917   0.58506   0.97015   0.00000  Uiso   1.00
C33    C     0.49884   0.50054   0.05029   0.00000  Uiso   1.00
C34    C     0.50126   0.49961   0.94964   0.00000  Uiso   1.00
C35    C     0.66680   0.65993   0.04255   0.00000  Uiso   1.00
C36    C     0.35090   0.32741   0.95645   0.00000  Uiso   1.00
C37    C     0.66515   0.65872   0.09222   0.00000  Uiso   1.00
C38    C     0.35361   0.32780   0.90673   0.00000  Uiso   1.00
O11    O     0.65608   0.65919   0.19195   0.00000  Uiso   1.00
O12    O     0.35914   0.33026   0.80712   0.00000  Uiso   1.00
C39    C     0.65182   0.67168   0.93933   0.00000  Uiso   1.00
C40    C     0.33067   0.34129   0.06154   0.00000  Uiso   1.00
H7     H     0.28521   0.53541   0.35848   0.00000  Uiso   1.00
H8     H     0.71682   0.47323   0.64145   0.00000  Uiso   1.00
H9     H     0.28568   0.53681   0.27056   0.00000  Uiso   1.00
H10    H     0.71646   0.47235   0.72941   0.00000  Uiso   1.00
H11    H     0.73261   0.72064   0.10736   0.00000  Uiso   1.00
H12    H     0.29606   0.25865   0.89105   0.00000  Uiso   1.00
H13    H     0.73942   0.72227   0.02263   0.00000  Uiso   1.00
H14    H     0.29287   0.25451   0.97561   0.00000  Uiso   1.00
H15    H     0.70929   0.74478   0.95188   0.00000  Uiso   1.00
H16    H     0.25864   0.27881   0.04975   0.00000  Uiso   1.00
H17    H     0.62016   0.09737   0.49280   0.00000  Uiso   1.00
H18    H     0.37978   0.90259   0.50726   0.00000  Uiso   1.00
C41    C     0.58395   0.85834   0.49487   0.00000  Uiso   1.00
C42    C     0.41601   0.14161   0.50518   0.00000  Uiso   1.00
C43    C     0.48453   0.93536   0.50092   0.00000  Uiso   1.00
C44    C     0.51542   0.06459   0.49914   0.00000  Uiso   1.00
H19    H     0.11690   0.42757   0.46937   0.00000  Uiso   1.00
H20    H     0.88305   0.57239   0.53067   0.00000  Uiso   1.00
N3     N     0.84981   0.45047   0.47860   0.00000  Uiso   1.00
N4     N     0.15013   0.54949   0.52146   0.00000  Uiso   1.00
C45    C     0.92674   0.50913   0.50378   0.00000  Uiso   1.00
C46    C     0.07321   0.49083   0.49627   0.00000  Uiso   1.00
H21    H     0.10274   0.60824   0.54633   0.00000  Uiso   1.00
H22    H     0.89721   0.39171   0.45373   0.00000  Uiso   1.00
O13    O     0.28312   0.10121   0.51326   0.00000  Uiso   1.00
H23    H     0.25773   0.09958   0.54936   0.00000  Uiso   1.00
O14    O     0.71683   0.89875   0.48677   0.00000  Uiso   1.00
H24    H     0.74219   0.90038   0.45068   0.00000  Uiso   1.00
