# generated using pymatgen
data_ZnH19C31(NO2)3
_symmetry_space_group_name_H-M   'P 1'
_cell_length_a   14.20722000
_cell_length_b   16.46619200
_cell_length_c   16.68073700
_cell_angle_alpha   90.00000000
_cell_angle_beta   98.76710400
_cell_angle_gamma   90.00000000
_symmetry_Int_Tables_number   1
_chemical_formula_structural   ZnH19C31(NO2)3
_chemical_formula_sum   'Zn2 H38 C62 N6 O12'
_cell_volume   3856.67787067
_cell_formula_units_Z   2
loop_
 _symmetry_equiv_pos_site_id
 _symmetry_equiv_pos_as_xyz
  1  'x, y, z'
loop_
 _atom_site_type_symbol
 _atom_site_label
 _atom_site_symmetry_multiplicity
 _atom_site_fract_x
 _atom_site_fract_y
 _atom_site_fract_z
 _atom_site_occupancy
  Zn  Zn1  1  0.11143800  0.50061600  0.50938000  1
  Zn  Zn2  1  0.89964300  0.50049000  0.49163100  1
  H  H1  1  0.93413600  0.92014700  0.70887600  1
  H  H2  1  0.93432300  0.08089100  0.70884300  1
  H  H3  1  0.04749600  0.30815700  0.92989700  1
  H  H4  1  0.04695600  0.69285100  0.93000600  1
  H  H5  1  0.03157100  0.30826100  0.08463200  1
  H  H6  1  0.03102600  0.69285100  0.08473800  1
  H  H7  1  0.88186200  0.08079700  0.25549300  1
  H  H8  1  0.88168500  0.92062700  0.25551100  1
  H  H9  1  0.04705900  0.00052300  0.07918900  1
  H  H10  1  0.06537300  0.00048000  0.94121200  1
  H  H11  1  0.87175000  0.75741800  0.79638100  1
  H  H12  1  0.87190300  0.24314200  0.79595300  1
  H  H13  1  0.16389000  0.70462400  0.68015200  1
  H  H14  1  0.16434600  0.29683400  0.68047200  1
  H  H15  1  0.16376000  0.80727700  0.78632400  1
  H  H16  1  0.16427800  0.19416900  0.78665000  1
  H  H17  1  0.86974300  0.34436200  0.68965400  1
  H  H18  1  0.86965700  0.65619000  0.69008500  1
  H  H19  1  0.14078000  0.79280800  0.23505000  1
  H  H20  1  0.14109800  0.20835700  0.23506800  1
  H  H21  1  0.14506200  0.69100100  0.34141700  1
  H  H22  1  0.14532900  0.31017000  0.34144100  1
  H  H23  1  0.84103900  0.67206800  0.29150000  1
  H  H24  1  0.84133400  0.32923800  0.29128300  1
  H  H25  1  0.83874300  0.77331500  0.18421200  1
  H  H26  1  0.83908600  0.22799700  0.18400300  1
  H  H27  1  0.38869000  0.59767800  0.41989700  1
  H  H28  1  0.40392500  0.44900800  0.38720800  1
  H  H29  1  0.40249800  0.37575700  0.46623300  1
  H  H30  1  0.43999100  0.62892100  0.51865100  1
  H  H31  1  0.45774100  0.53533300  0.63224900  1
  H  H32  1  0.46440000  0.42794100  0.61313300  1
  H  H33  1  0.60923200  0.55501000  0.61230400  1
  H  H34  1  0.62404200  0.44968300  0.61494900  1
  H  H35  1  0.61415700  0.57898900  0.33939800  1
  H  H36  1  0.62054900  0.43319900  0.34412000  1
  H  H37  1  0.52801400  0.31561700  0.53657800  1
  H  H38  1  0.59930900  0.67017500  0.54768600  1
  C  C1  1  0.03295800  0.25544000  0.96465900  1
  C  C2  1  0.03245600  0.74559800  0.96474100  1
  C  C3  1  0.02501000  0.25539300  0.04575500  1
  C  C4  1  0.02451000  0.74569900  0.04583500  1
  C  C5  1  0.00576900  0.17619900  0.06537600  1
  C  C6  1  0.00536600  0.82492300  0.06542500  1
  C  C7  1  0.01854100  0.17625400  0.93827500  1
  C  C8  1  0.01812400  0.82478200  0.93832200  1
  C  C9  1  0.98902600  0.15148300  0.13828100  1
  C  C10  1  0.98869300  0.84970300  0.13832700  1
  C  C11  1  0.96605500  0.06644200  0.15518900  1
  C  C12  1  0.96590500  0.93478900  0.15520800  1
  C  C13  1  0.91480000  0.04248900  0.21510100  1
  C  C14  1  0.91470600  0.95886100  0.21511300  1
  C  C15  1  0.01685600  0.84944200  0.86180100  1
  C  C16  1  0.01720000  0.15156100  0.86175500  1
  C  C17  1  0.00056700  0.93473700  0.83680100  1
  C  C18  1  0.00071900  0.06627800  0.83677900  1
  C  C19  1  0.96055700  0.95869400  0.75981100  1
  C  C20  1  0.96065400  0.04233800  0.75979500  1
  C  C21  1  0.93587000  0.74569300  0.77076500  1
  C  C22  1  0.93608700  0.25505800  0.77049600  1
  C  C23  1  0.93501900  0.68868600  0.71035700  1
  C  C24  1  0.93520600  0.31207000  0.71009000  1
  C  C25  1  0.01681700  0.67296300  0.67745200  1
  C  C26  1  0.01708600  0.32804700  0.67739000  1
  C  C27  1  0.09929700  0.71555700  0.70529200  1
  C  C28  1  0.09968200  0.28569500  0.70543900  1
  C  C29  1  0.09944400  0.77367100  0.76505000  1
  C  C30  1  0.09986600  0.22757700  0.76520300  1
  C  C31  1  0.01787700  0.78828900  0.79823200  1
  C  C32  1  0.01820400  0.21270000  0.79816700  1
  C  C33  1  0.07503800  0.76626700  0.24772800  1
  C  C34  1  0.07535200  0.23493700  0.24769000  1
  C  C35  1  0.07705000  0.70849900  0.30769700  1
  C  C36  1  0.07733800  0.29270500  0.30766000  1
  C  C37  1  0.99321700  0.67422200  0.32431100  1
  C  C38  1  0.99349400  0.32700400  0.32421900  1
  C  C39  1  0.90743100  0.69829400  0.28004600  1
  C  C40  1  0.90773100  0.30298200  0.27988100  1
  C  C41  1  0.90583100  0.75543600  0.21935000  1
  C  C42  1  0.90615900  0.24584900  0.21918500  1
  C  C43  1  0.98959500  0.78974100  0.20333400  1
  C  C44  1  0.98992500  0.21149500  0.20324200  1
  C  C45  1  0.01469700  0.61161300  0.61348100  1
  C  C46  1  0.01491200  0.38942200  0.61343200  1
  C  C47  1  0.99627200  0.38901600  0.38763400  1
  C  C48  1  0.99605400  0.61216600  0.38769300  1
  C  C49  1  0.44317900  0.58142400  0.47206600  1
  C  C50  1  0.43671500  0.43252100  0.44968000  1
  C  C51  1  0.54360600  0.42124900  0.45296000  1
  C  C52  1  0.54439000  0.57731100  0.45163900  1
  C  C53  1  0.41779800  0.50063200  0.50671600  1
  C  C54  1  0.59232400  0.49934100  0.49108900  1
  C  C55  1  0.58169700  0.49875500  0.58125300  1
  C  C56  1  0.47739100  0.48913000  0.58935300  1
  C  C57  1  0.69413200  0.49996200  0.48523100  1
  C  C58  1  0.31666900  0.50069700  0.51452200  1
  C  C59  1  0.54624400  0.57939300  0.36159500  1
  C  C60  1  0.56492700  0.40208600  0.36969400  1
  C  C61  1  0.57602100  0.34797900  0.50322800  1
  C  C62  1  0.59691200  0.65199100  0.48503800  1
  N  N1  1  0.00141100  0.12793600  0.99964100  1
  N  N2  1  0.00105600  0.87315200  0.99966800  1
  N  N3  1  0.99836400  0.00057700  0.11983800  1
  N  N4  1  0.02628700  0.00049900  0.88315600  1
  N  N5  1  0.77503400  0.50037900  0.48264700  1
  N  N6  1  0.23604700  0.50071100  0.51831600  1
  O  O1  1  0.93148300  0.58304100  0.58097600  1
  O  O2  1  0.93166400  0.41791600  0.58092900  1
  O  O3  1  0.09509500  0.58705000  0.59175100  1
  O  O4  1  0.09527400  0.41409800  0.59171700  1
  O  O5  1  0.07953700  0.41758400  0.42011100  1
  O  O6  1  0.07936300  0.58366400  0.42015200  1
  O  O7  1  0.91597600  0.41372000  0.40930500  1
  O  O8  1  0.91578700  0.58735300  0.40934700  1
  O  O9  1  0.47338600  0.58146700  0.31240900  1
  O  O10  1  0.52314300  0.34624400  0.33159800  1
  O  O11  1  0.65700000  0.32262300  0.50527800  1
  O  O12  1  0.63367400  0.69620100  0.44001700  1
