# Generated by REPEAT Assigner based on pymatgen
data_DB0-m29_o81_o1490_f0_pts.sym.43
_audit_creation_date              2022-05-24
_audit_creation_method            REPEAT_Assigner
_cell_length_a                    15.830206
_cell_length_b                    12.170266
_cell_length_c                    13.276687
_cell_angle_alpha                 91.465009
_cell_angle_beta                  87.059196
_cell_angle_gamma                 107.017115
_cell_volume                      2442.497526
_symmetry_space_group_name_H-M    P1
_symmetry_Int_Tables_number       1
loop_
    _symmetry_equiv_pos_site_id
    _symmetry_equiv_pos_as_xyz
    1  x,y,z
loop_
    _atom_site_type_symbol
    _atom_site_label
    _atom_site_fract_x
    _atom_site_fract_y
    _atom_site_fract_z
    _atom_type_partial_charge
    C   C1   0.883402  0.011021  0.851220  -0.167094
    C   C2   0.290740  0.012216  0.895565  0.038946
    C   C3   0.207563  0.010470  0.866081  -0.203463
    C   C4   0.141366  0.014973  0.937018  0.176303
    C   C5   0.058277  0.011356  0.906928  -0.232494
    C   C6   0.991373  0.019250  0.977501  -0.023832
    C   C7   0.799307  0.003101  0.826549  -0.168656
    C   C8   0.732310  0.990878  0.898731  0.027123
    C   C9   0.905122  0.014179  0.951225  0.153640
    C   C10  0.839775  0.015389  0.026399  0.113075
    C   C11  0.750421  0.995676  0.001376  -0.123736
    C   C12  0.306437  0.017535  0.998225  -0.025475
    C   C13  0.239732  0.021469  0.067946  -0.210217
    C   C14  0.158213  0.022212  0.037501  0.158135
    C   C15  0.093795  0.031512  0.107740  -0.224101
    C   C16  0.011594  0.031277  0.077947  0.197019
    C   C17  0.950617  0.046473  0.149774  -0.169030
    C   C18  0.866779  0.041506  0.124438  -0.151886
    H   H1   0.929930  0.017505  0.788360  0.135676
    H   H2   0.193650  0.004240  0.786967  0.147938
    H   H3   0.048927  0.000459  0.827405  0.159686
    H   H4   0.784856  0.000107  0.747671  0.184736
    H   H5   0.252536  0.027249  0.147384  0.197966
    H   H6   0.107951  0.039855  0.186826  0.133943
    H   H7   0.968427  0.063368  0.227381  0.148263
    H   H8   0.825961  0.063741  0.183806  0.144358
    O   O1   0.598649  0.988104  0.055242  -0.581484
    C   C19  0.676218  0.981030  0.079921  0.640367
    O   O2   0.557317  0.752370  0.184504  -0.471539
    O   O3   0.684823  0.954621  0.173138  -0.449652
    O   O4   0.486607  0.863698  0.275096  -0.623609
    C   C20  0.512075  0.770233  0.265568  0.571443
    Fe  Fe1  0.512229  0.982598  0.169591  1.492994
    O   O5   0.392897  0.951349  0.111350  -0.663019
    O   O6   0.463566  0.102636  0.011168  -0.483281
    C   C21  0.391681  0.020949  0.037953  0.773766
    O   O7   0.567037  0.133495  0.238462  -0.670812
    O   O8   0.426564  0.145311  0.238633  -0.550349
    C   C22  0.507886  0.185568  0.267577  0.743549
    O   O9   0.475896  0.814810  0.677001  -0.620547
    O   O10  0.617886  0.876566  0.618076  -0.567107
    C   C23  0.541665  0.796202  0.621636  0.625024
    O   O11  0.634926  0.038875  0.787122  -0.599206
    O   O12  0.581791  0.876288  0.879119  -0.490616
    C   C24  0.644567  0.971916  0.859088  0.701092
    O   O13  0.349974  0.027632  0.723394  -0.519771
    O   O14  0.527492  0.078121  0.611689  -0.585358
    C   C25  0.535997  0.188131  0.626222  0.652467
    O   O15  0.426759  0.971306  0.841605  -0.574086
    C   C26  0.358658  0.004440  0.817595  0.577006
    O   O16  0.535318  0.231237  0.717776  -0.511521
    Fe  Fe2  0.515235  0.977135  0.729446  1.489090
    C   C27  0.539251  0.205202  0.443752  -0.118924
    C   C28  0.537143  0.257377  0.536464  -0.025881
    C   C29  0.528958  0.367899  0.541920  -0.142144
    C   C30  0.523054  0.255598  0.359003  -0.095283
    C   C31  0.509759  0.362280  0.364279  0.389233
    C   C32  0.517671  0.423584  0.454201  -0.127840
    C   C33  0.512378  0.536994  0.452652  0.314368
    C   C34  0.524432  0.606374  0.539338  -0.340065
    C   C35  0.521493  0.717644  0.535576  0.193215
    N   N1   0.484612  0.402929  0.281730  -0.526007
    C   C36  0.473546  0.507814  0.278587  0.542377
    C   C37  0.496957  0.582777  0.361265  -0.334357
    C   C38  0.504266  0.700868  0.357332  0.180935
    C   C39  0.513239  0.764078  0.445697  -0.291404
    H   H9   0.545485  0.119293  0.436764  0.150895
    H   H10  0.519877  0.854942  0.445532  0.189217
    H   H11  0.527677  0.405102  0.616033  0.149713
    H   H12  0.538598  0.578887  0.611168  0.168373
    C   C40  0.425344  0.531033  0.190782  -0.384487
    C   C41  0.357104  0.421615  0.157850  0.203419
    C   C42  0.300129  0.450615  0.080055  0.076520
    C   C43  0.235528  0.341580  0.041456  -0.250312
    H   H13  0.472466  0.561295  0.125744  0.151232
    H   H14  0.388693  0.593492  0.211973  0.079023
    H   H15  0.314484  0.381721  0.223966  -0.022170
    H   H16  0.390689  0.360655  0.123415  -0.013604
    H   H17  0.342752  0.495661  0.015893  0.006466
    H   H18  0.262519  0.506899  0.114724  -0.009115
    H   H19  0.272300  0.285854  0.004063  0.077441
    H   H20  0.193239  0.364018  0.986138  0.047176
    H   H21  0.193237  0.295229  0.105266  0.040324
