# Generated by REPEAT Assigner based on pymatgen
data_DB0-m3_o11_o26_f0_pcu.sym.92
_audit_creation_date              2022-05-24
_audit_creation_method            REPEAT_Assigner
_cell_length_a                    9.920928
_cell_length_b                    11.133585
_cell_length_c                    17.454597
_cell_angle_alpha                 90.006805
_cell_angle_beta                  86.227944
_cell_angle_gamma                 89.997432
_cell_volume                      1923.779511
_symmetry_space_group_name_H-M    P1
_symmetry_Int_Tables_number       1
loop_
    _symmetry_equiv_pos_site_id
    _symmetry_equiv_pos_as_xyz
    1  x,y,z
loop_
    _atom_site_type_symbol
    _atom_site_label
    _atom_site_fract_x
    _atom_site_fract_y
    _atom_site_fract_z
    _atom_type_partial_charge
    O   O1   0.387730  0.680353  0.500394  -0.723346
    O   O2   0.619988  0.680000  0.499934  -0.708639
    C   C1   0.503550  0.736233  0.500856  0.857682
    O   O3   0.368007  0.498013  0.613213  -0.678823
    O   O4   0.600102  0.497934  0.612856  -0.664000
    C   C2   0.480265  0.497400  0.649057  0.740122
    Zn  Zn1  0.347203  0.502254  0.498488  1.102083
    Zn  Zn2  0.653886  0.500387  0.498941  1.081646
    O   O5   0.380803  0.322783  0.496581  -0.683405
    O   O6   0.613991  0.321947  0.496661  -0.679817
    O   O7   0.400436  0.503838  0.384447  -0.626828
    O   O8   0.633517  0.502969  0.384172  -0.630302
    C   C3   0.497161  0.266436  0.496263  0.787998
    C   C4   0.520884  0.504526  0.348388  0.650590
    C   C5   0.473194  0.493717  0.733265  -0.078374
    C   C6   0.590673  0.500980  0.771462  -0.084053
    C   C7   0.586416  0.495456  0.850402  -0.239064
    C   C8   0.464194  0.482671  0.892547  0.298214
    C   C9   0.347063  0.473555  0.854293  -0.270986
    C   C10  0.351053  0.480187  0.775174  -0.045497
    C   C11  0.419169  0.505165  0.146118  -0.274454
    C   C12  0.412388  0.503328  0.225151  -0.078888
    C   C13  0.652622  0.509532  0.222903  -0.066240
    C   C14  0.660409  0.508840  0.143537  -0.260272
    C   C15  0.542663  0.507695  0.104334  0.329406
    C   C16  0.456147  0.471945  0.976859  -0.211818
    C   C17  0.548375  0.521085  0.020047  -0.239520
    C   C18  0.529021  0.505822  0.264112  -0.035794
    H   H1   0.687900  0.510203  0.740337  0.102554
    H   H2   0.314077  0.501826  0.255689  0.097694
    H   H3   0.745019  0.510477  0.252378  0.094060
    H   H4   0.629409  0.574346  0.993108  0.121265
    H   H5   0.251070  0.461895  0.886413  0.129016
    H   H6   0.325701  0.509036  0.117963  0.161581
    H   H7   0.257835  0.473110  0.746761  0.098364
    H   H8   0.372269  0.421568  0.003450  0.100052
    H   H9   0.680871  0.497325  0.877728  0.150487
    C   C19  0.606973  0.069052  0.498222  -0.011509
    C   C20  0.494193  0.134824  0.495085  -0.318137
    H   H10  0.703302  0.114258  0.500599  0.093625
    H   H11  0.396055  0.094324  0.491366  0.156356
    C   C21  0.609639  0.935938  0.497838  -0.005402
    C   C22  0.498418  0.867707  0.501973  -0.347616
    H   H12  0.707844  0.892965  0.494689  0.094441
    H   H13  0.398543  0.906401  0.506403  0.170393
    C   C23  0.079867  0.429747  0.457010  0.098299
    N   N1   0.145928  0.504985  0.496010  -0.292934
    H   H14  0.134032  0.358682  0.425702  0.126695
    H   H15  0.095166  0.580269  0.515905  0.256935
    C   C24  0.932215  0.440901  0.450040  0.117267
    N   N2   0.855257  0.496306  0.500584  -0.303013
    H   H16  0.887679  0.396745  0.402469  0.132781
    H   H17  0.897687  0.522473  0.549994  0.267981
    C   C25  0.795200  0.508119  0.103567  0.363973
    C   C26  0.834437  0.436541  0.041784  -0.192264
    C   C27  0.967412  0.460637  0.026031  -0.290639
    C   C28  0.000543  0.544112  0.079579  -0.031751
    O   O9   0.896475  0.572498  0.127569  -0.144968
    H   H18  0.774227  0.372020  0.012802  0.134070
    H   H19  0.033780  0.421101  0.981344  0.187894
    H   H20  0.100053  0.582280  0.083084  0.114828
