# Generated by REPEAT Assigner based on pymatgen
data_DB0-m3_o153_o4_f0_fsc.sym.34
_audit_creation_date              2022-05-24
_audit_creation_method            REPEAT_Assigner
_cell_length_a                    8.515305
_cell_length_b                    9.287629
_cell_length_c                    13.069240
_cell_angle_alpha                 90.599299
_cell_angle_beta                  86.475722
_cell_angle_gamma                 93.250041
_cell_volume                      1029.967617
_symmetry_space_group_name_H-M    P1
_symmetry_Int_Tables_number       1
loop_
    _symmetry_equiv_pos_site_id
    _symmetry_equiv_pos_as_xyz
    1  x,y,z
loop_
    _atom_site_type_symbol
    _atom_site_label
    _atom_site_fract_x
    _atom_site_fract_y
    _atom_site_fract_z
    _atom_type_partial_charge
    C   C1   0.967003  0.990382  0.133248  0.258652
    C   C2   0.099629  0.987510  0.190563  0.035218
    C   C3   0.247933  0.980632  0.142224  -0.174119
    C   C4   0.266479  0.976279  0.037181  -0.276082
    C   C5   0.137617  0.978788  0.978836  0.278915
    C   C6   0.987153  0.983731  0.025861  -0.097649
    C   C7   0.161375  0.977872  0.872914  -0.338723
    C   C8   0.035397  0.984908  0.812244  0.053639
    C   C9   0.884758  0.984232  0.858654  0.293408
    C   C10  0.860807  0.980750  0.963678  -0.288046
    C   C11  0.055725  0.997479  0.706273  -0.040234
    C   C12  0.926857  0.019680  0.652116  -0.276851
    C   C13  0.777126  0.007849  0.696716  0.194053
    C   C14  0.755238  0.988264  0.800413  -0.423378
    C   C15  0.818716  0.002098  0.185165  -0.439995
    C   C16  0.804594  0.001007  0.290817  0.143025
    C   C17  0.935365  0.988046  0.344145  -0.331826
    C   C18  0.082631  0.989097  0.296579  -0.014878
    H   H1   0.351574  0.977648  0.185657  0.111479
    H   H2   0.383230  0.970079  0.000618  0.145054
    H   H3   0.944876  0.043926  0.572718  0.103597
    H   H4   0.636988  0.981203  0.835863  0.175864
    H   H5   0.740545  0.977747  0.993464  0.125810
    H   H6   0.279657  0.977059  0.837919  0.138365
    H   H7   0.711261  0.011248  0.147509  0.230553
    H   H8   0.921012  0.976619  0.425081  0.195030
    O   O1   0.590640  0.880893  0.597609  -0.707777
    O   O2   0.596463  0.129206  0.601156  -0.553007
    C   C19  0.644625  0.006144  0.631453  0.704620
    O   O3   0.608616  0.128067  0.388521  -0.688714
    O   O4   0.592157  0.878795  0.385124  -0.645064
    C   C20  0.653828  0.003423  0.351273  0.712264
    O   O5   0.268476  0.117794  0.397400  -0.663055
    O   O6   0.263558  0.868985  0.393250  -0.675074
    C   C21  0.215594  0.992147  0.362487  0.802913
    O   O7   0.250506  0.871347  0.606689  -0.742754
    O   O8   0.267495  0.119389  0.610421  -0.618356
    C   C22  0.206363  0.995391  0.645166  0.842502
    Zn  Zn1  0.435940  0.160246  0.497732  0.939425
    Zn  Zn2  0.423082  0.838546  0.497509  1.081278
    C   C23  0.411022  0.565551  0.413183  0.140942
    N   N1   0.418340  0.649134  0.496850  -0.022779
    C   C24  0.436187  0.579583  0.585078  -0.085437
    H   H9   0.444328  0.640298  0.655726  0.124661
    C   C25  0.446245  0.429950  0.586922  0.029087
    N   N2   0.440159  0.349784  0.499273  -0.109066
    C   C26  0.420214  0.424661  0.414453  0.191315
    C   C27  0.411331  0.405838  0.302172  -0.102419
    C   C28  0.401384  0.574442  0.300708  -0.206887
    H   H10  0.522532  0.369037  0.264663  0.108703
    H   H11  0.300658  0.347255  0.281276  0.080612
    H   H12  0.507350  0.630777  0.262838  0.086270
    H   H13  0.285428  0.608980  0.279080  0.108162
    C   C29  0.467604  0.365509  0.686097  0.324930
    C   C30  0.338409  0.330794  0.751960  -0.293674
    C   C31  0.359122  0.288216  0.850812  -0.078435
    C   C32  0.508939  0.282898  0.884588  0.063527
    Cl  Cl1  0.535395  0.234461  0.011228  -0.117255
    C   C33  0.637980  0.320588  0.819626  -0.096823
    C   C34  0.617193  0.363805  0.721035  -0.243570
    H   H14  0.220759  0.340749  0.727118  0.151420
    H   H15  0.257790  0.262128  0.902539  0.129186
    H   H16  0.755335  0.319054  0.846637  0.122178
    H   H17  0.718278  0.397644  0.671201  0.125270
