# generated using pymatgen
data_Cu3H39C65(Cl3O4)3
_symmetry_space_group_name_H-M   'P 1'
_cell_length_a   21.32897400
_cell_length_b   24.81838800
_cell_length_c   24.76854100
_cell_angle_alpha   100.64190400
_cell_angle_beta   115.49674500
_cell_angle_gamma   64.55256900
_symmetry_Int_Tables_number   1
_chemical_formula_structural   Cu3H39C65(Cl3O4)3
_chemical_formula_sum   'Cu6 H78 C130 Cl18 O24'
_cell_volume   10686.16881672
_cell_formula_units_Z   2
loop_
 _symmetry_equiv_pos_site_id
 _symmetry_equiv_pos_as_xyz
  1  'x, y, z'
loop_
 _atom_site_type_symbol
 _atom_site_label
 _atom_site_symmetry_multiplicity
 _atom_site_fract_x
 _atom_site_fract_y
 _atom_site_fract_z
 _atom_site_occupancy
  Cu  Cu1  1  0.05370500  0.95384100  0.54470900  1
  Cu  Cu2  1  0.96547900  0.03922300  0.46178300  1
  Cu  Cu3  1  0.51006400  0.04194400  0.55204700  1
  Cu  Cu4  1  0.51078600  0.96080600  0.46503700  1
  Cu  Cu5  1  0.05742300  0.50019300  0.00527600  1
  Cu  Cu6  1  0.93455500  0.49360100  0.00254600  1
  H  H1  1  0.65568500  0.04560700  0.42412300  1
  H  H2  1  0.78699600  0.94356800  0.42971000  1
  H  H3  1  0.77874900  0.89904900  0.52244200  1
  H  H4  1  0.87219500  0.95525200  0.60619600  1
  H  H5  1  0.74108000  0.05721800  0.60055800  1
  H  H6  1  0.74906000  0.10177400  0.50758500  1
  H  H7  1  0.08686100  0.66325500  0.25501000  1
  H  H8  1  0.10045900  0.73056300  0.32840000  1
  H  H9  1  0.96686200  0.85415600  0.22834400  1
  H  H10  1  0.06100100  0.79702900  0.25635400  1
  H  H11  1  0.91857000  0.79938300  0.15896400  1
  H  H12  1  0.88254900  0.80098200  0.29673600  1
  H  H13  1  0.86838100  0.83588600  0.23568500  1
  H  H14  1  0.03831500  0.71838200  0.35038500  1
  H  H15  1  0.02844200  0.64937400  0.27570900  1
  H  H16  1  0.17340600  0.09196300  0.52393200  1
  H  H17  1  0.32400800  0.02433900  0.59561800  1
  H  H18  1  0.29346100  0.92039200  0.56174100  1
  H  H19  1  0.33429500  0.90593400  0.46546400  1
  H  H20  1  0.00701900  0.22694500  0.85161800  1
  H  H21  1  0.93667100  0.28098700  0.66417300  1
  H  H22  1  0.89540400  0.29456700  0.76826600  1
  H  H23  1  0.91100300  0.34470300  0.73661700  1
  H  H24  1  0.12781000  0.19356700  0.74159700  1
  H  H25  1  0.05906900  0.24480400  0.68185500  1
  H  H26  1  0.12131000  0.27213200  0.80478900  1
  H  H27  1  0.09962400  0.14699400  0.79067600  1
  H  H28  1  0.09941100  0.21207600  0.85854200  1
  H  H29  1  0.04164900  0.32212300  0.74628100  1
  H  H30  1  0.15814900  0.34043500  0.27918900  1
  H  H31  1  0.23439000  0.26984600  0.35123100  1
  H  H32  1  0.26586500  0.15368700  0.23450800  1
  H  H33  1  0.20784100  0.19004600  0.27674700  1
  H  H34  1  0.13004200  0.26243100  0.20682200  1
  H  H35  1  0.18626200  0.22408400  0.16324000  1
  H  H36  1  0.39272000  0.23534400  0.30594300  1
  H  H37  1  0.37421600  0.17783200  0.25289400  1
  H  H38  1  0.31664500  0.30379500  0.23218600  1
  H  H39  1  0.31294300  0.28756900  0.36311200  1
  H  H40  1  0.23736700  0.35740300  0.29080600  1
  H  H41  1  0.29619200  0.24658900  0.17959800  1
  H  H42  1  0.85810200  0.74325800  0.83424400  1
  H  H43  1  0.79298200  0.81781900  0.76337900  1
  H  H44  1  0.71492500  0.71218500  0.64745000  1
  H  H45  1  0.77947400  0.74275400  0.65934900  1
  H  H46  1  0.62395600  0.80127500  0.74496300  1
  H  H47  1  0.61352300  0.75622200  0.67819400  1
  H  H48  1  0.68573100  0.71560400  0.79755400  1
  H  H49  1  0.71683000  0.84009900  0.78612800  1
  H  H50  1  0.77527400  0.76333200  0.84749100  1
  H  H51  1  0.68482900  0.67392500  0.73014500  1
  H  H52  1  0.01414400  0.78856100  0.01982300  1
  H  H53  1  0.20068200  0.67020200  0.15652900  1
  H  H54  1  0.12906000  0.70003300  0.21747500  1
  H  H55  1  0.83423600  0.57592100  0.20357300  1
  H  H56  1  0.92270000  0.64356400  0.37684700  1
  H  H57  1  0.93055700  0.71864700  0.33744100  1
  H  H58  1  0.69688700  0.82236300  0.02603300  1
  H  H59  1  0.64145900  0.85146800  0.17650700  1
  H  H60  1  0.76967500  0.79294600  0.23754100  1
  H  H61  1  0.19929500  0.23623200  0.43416100  1
  H  H62  1  0.06607900  0.16008400  0.28778300  1
  H  H63  1  0.12297200  0.06988100  0.34397300  1
  H  H64  1  0.20458300  0.92644300  0.24598300  1
  H  H65  1  0.05015900  0.90542100  0.29686300  1
  H  H66  1  0.10297200  0.94382600  0.39475800  1
  H  H67  1  0.02220400  0.99221200  0.76567400  1
  H  H68  1  0.84605100  0.14546100  0.79327100  1
  H  H69  1  0.90605400  0.20818300  0.79280100  1
  H  H70  1  0.67574400  0.32784300  0.58196700  1
  H  H71  1  0.78623200  0.14258000  0.61997900  1
  H  H72  1  0.90420400  0.15099500  0.67135400  1
  H  H73  1  0.07786900  0.57269600  0.82079800  1
  H  H74  1  0.99818400  0.74901300  0.76336400  1
  H  H75  1  0.87202400  0.75838300  0.72526800  1
  H  H76  1  0.76148000  0.50097800  0.65127300  1
  H  H77  1  0.83946500  0.57125400  0.56142800  1
  H  H78  1  0.84972600  0.64708200  0.63599100  1
  C  C1  1  0.00088900  0.91656000  0.42146500  1
  C  C2  1  0.89202600  0.99935900  0.51090200  1
  C  C3  1  0.01785900  0.07646200  0.58497700  1
  C  C4  1  0.12716900  0.99396500  0.49579400  1
  C  C5  1  0.77556700  0.96936600  0.46843200  1
  C  C6  1  0.70579000  0.02505000  0.46535100  1
  C  C7  1  0.70413200  0.00074800  0.51592300  1
  C  C8  1  0.77294900  0.94502800  0.51906700  1
  C  C9  1  0.82231400  0.97569000  0.56479700  1
  C  C10  1  0.75219200  0.03148800  0.56170100  1
  C  C11  1  0.75500900  0.05576700  0.51104800  1
  C  C12  1  0.82378200  0.00000300  0.51411200  1
  C  C13  1  0.04317900  0.73066600  0.31215100  1
  C  C14  1  0.00022000  0.80626200  0.24032800  1
  C  C15  1  0.97579400  0.76931100  0.18610000  1
  C  C16  1  0.97966700  0.62799100  0.12462800  1
  C  C17  1  0.98437100  0.79148000  0.28825100  1
  C  C18  1  0.03396400  0.68637900  0.26181200  1
  C  C19  1  0.96709900  0.71656700  0.20394600  1
  C  C20  1  0.89315300  0.74209200  0.21685100  1
  C  C21  1  0.90391900  0.79359900  0.26145600  1
  C  C22  1  0.97219300  0.66853000  0.15978400  1
  C  C23  1  0.99097700  0.83547100  0.33627800  1
  C  C24  1  0.99578700  0.87220700  0.37543100  1
  C  C25  1  0.21086400  0.04976500  0.51039000  1
  C  C26  1  0.23207500  0.04224100  0.45732200  1
  C  C27  1  0.31297600  0.00477100  0.49669300  1
  C  C28  1  0.29223100  0.01246700  0.54956300  1
  C  C29  1  0.27549900  0.95666100  0.53135000  1
  C  C30  1  0.29717700  0.94868000  0.47855100  1
  C  C31  1  0.21576100  0.98589500  0.43894200  1
  C  C32  1  0.19499500  0.99388500  0.49211000  1
  C  C33  1  0.03910700  0.17559300  0.77783100  1
  C  C34  1  0.93484200  0.25669000  0.69635000  1
  C  C35  1  0.93259300  0.29787900  0.74993500  1
  C  C36  1  0.00929800  0.36740900  0.88125400  1
  C  C37  1  0.01246200  0.20324000  0.71660300  1
  C  C38  1  0.04010000  0.22343100  0.82599800  1
  C  C39  1  0.01196100  0.28275100  0.79758300  1
  C  C40  1  0.06424000  0.27953800  0.76956200  1
  C  C41  1  0.06965500  0.22856200  0.72502800  1
  C  C42  1  0.01101100  0.32914000  0.84348500  1
  C  C43  1  0.01716800  0.15792200  0.66985100  1
  C  C44  1  0.01891100  0.12075800  0.63106800  1
  C  C45  1  0.43458500  0.08468400  0.43001400  1
  C  C46  1  0.63389700  0.00050000  0.51438800  1
  C  C47  1  0.58585900  0.91801400  0.58708200  1
  C  C48  1  0.38521500  0.00398000  0.50091000  1
  C  C49  1  0.07957900  0.41868300  0.08767100  1
  C  C50  1  0.98671600  0.58020500  0.08225500  1
  C  C51  1  0.91263600  0.57429800  0.91949500  1
  C  C52  1  0.00564900  0.41306300  0.92605700  1
  C  C53  1  0.26744900  0.27420800  0.32918400  1
  C  C54  1  0.24021500  0.19639200  0.25525600  1
  C  C55  1  0.18783400  0.24396600  0.20750400  1
  C  C56  1  0.12659300  0.37523100  0.13473200  1
  C  C57  1  0.30198000  0.21503100  0.30171100  1
  C  C58  1  0.21640200  0.32132700  0.28074800  1
  C  C59  1  0.21637400  0.29325400  0.22097800  1
  C  C60  1  0.29605200  0.26761300  0.22315100  1
  C  C61  1  0.34776200  0.22124200  0.27228200  1
  C  C62  1  0.16688400  0.33841100  0.17391500  1
  C  C63  1  0.35071400  0.16946500  0.34831900  1
  C  C64  1  0.38966000  0.13119900  0.38607500  1
  C  C65  1  0.75465800  0.80210600  0.76847100  1
  C  C66  1  0.75599400  0.72860800  0.68349800  1
  C  C67  1  0.81311600  0.67661900  0.72833400  1
  C  C68  1  0.86670900  0.61643900  0.87127800  1
  C  C69  1  0.70789600  0.78214800  0.70972100  1
  C  C70  1  0.79750300  0.75081100  0.81192100  1
  C  C71  1  0.78614800  0.69438200  0.78115900  1
  C  C72  1  0.70135700  0.70897500  0.75880400  1
  C  C73  1  0.65504200  0.76489500  0.72112100  1
  C  C74  1  0.82990800  0.65082500  0.82981600  1
  C  C75  1  0.66400900  0.83125400  0.66674000  1
  C  C76  1  0.62821300  0.87111700  0.63065700  1
  C  C77  1  0.02380800  0.75448800  0.15020000  1
  C  C78  1  0.99474900  0.78307600  0.09578300  1
  C  C79  1  0.03746600  0.76668400  0.06209900  1
  C  C80  1  0.11018300  0.72444500  0.08259000  1
  C  C81  1  0.14199600  0.70068200  0.13859500  1
  C  C82  1  0.09983300  0.71645700  0.17252700  1
  C  C83  1  0.88773300  0.69309100  0.24342300  1
  C  C84  1  0.85917100  0.65114600  0.20711000  1
  C  C85  1  0.85608000  0.60768400  0.23231500  1
  C  C86  1  0.87917100  0.60440300  0.29284200  1
  C  C87  1  0.90496500  0.64550300  0.32902600  1
  C  C88  1  0.90880200  0.68923000  0.30506600  1
  C  C89  1  0.81339700  0.77429500  0.16881700  1
  C  C90  1  0.78907500  0.78218300  0.10674800  1
  C  C91  1  0.71449800  0.81671200  0.07330000  1
  C  C92  1  0.66178700  0.84240100  0.09793600  1
  C  C93  1  0.68292200  0.83259900  0.15687500  1
  C  C94  1  0.75692800  0.79894900  0.19134900  1
  C  C95  1  0.20037000  0.09773500  0.42116100  1
  C  C96  1  0.21905000  0.14664000  0.44643700  1
  C  C97  1  0.18498500  0.19838500  0.41385200  1
  C  C98  1  0.13058400  0.20321100  0.35682800  1
  C  C99  1  0.11031500  0.15594600  0.33197600  1
  C  C100  1  0.14414800  0.10405200  0.36401000  1
  C  C101  1  0.18318400  0.96100000  0.37742100  1
  C  C102  1  0.21209900  0.95423500  0.33453900  1
  C  C103  1  0.18217600  0.93089300  0.27902000  1
  C  C104  1  0.12389900  0.91357300  0.26521000  1
  C  C105  1  0.09572500  0.91914800  0.30732400  1
  C  C106  1  0.12552800  0.94200500  0.36302600  1
  C  C107  1  0.00137200  0.13653900  0.77936800  1
  C  C108  1  0.03352700  0.07471900  0.77241900  1
  C  C109  1  0.99750400  0.03985300  0.77208600  1
  C  C110  1  0.93029900  0.06502200  0.77931300  1
  C  C111  1  0.89904500  0.12546600  0.78777200  1
  C  C112  1  0.93421800  0.16090200  0.78807700  1
  C  C113  1  0.86115100  0.24706300  0.66235800  1
  C  C114  1  0.79446700  0.29589600  0.63402400  1
  C  C115  1  0.72658600  0.28950000  0.60346100  1
  C  C116  1  0.72307100  0.23488300  0.59910000  1
  C  C117  1  0.78814300  0.18600300  0.62426500  1
  C  C118  1  0.85624800  0.19169300  0.65462800  1
  C  C119  1  0.89615400  0.67007900  0.75169100  1
  C  C120  1  0.95827200  0.61699900  0.77844000  1
  C  C121  1  0.03124700  0.61363800  0.80018900  1
  C  C122  1  0.04590600  0.66074300  0.79557100  1
  C  C123  1  0.98706500  0.71188200  0.76795300  1
  C  C124  1  0.91372300  0.71650700  0.74601900  1
  C  C125  1  0.80758600  0.62180900  0.68844300  1
  C  C126  1  0.78487400  0.57712600  0.69232100  1
  C  C127  1  0.77909700  0.53458700  0.64785800  1
  C  C128  1  0.79721500  0.53269200  0.60060500  1
  C  C129  1  0.82340100  0.57310400  0.59780000  1
  C  C130  1  0.82887800  0.61639000  0.64097000  1
  Cl  Cl1  1  0.90842100  0.84534200  0.06980400  1
  Cl  Cl2  1  0.16399000  0.70484700  0.03965300  1
  Cl  Cl3  1  0.82216900  0.64944900  0.12869700  1
  Cl  Cl4  1  0.87436500  0.54882700  0.32349000  1
  Cl  Cl5  1  0.84133100  0.74726000  0.06254400  1
  Cl  Cl6  1  0.56760000  0.88511400  0.05368700  1
  Cl  Cl7  1  0.27989200  0.14816900  0.52123800  1
  Cl  Cl8  1  0.08337600  0.27061000  0.31760100  1
  Cl  Cl9  1  0.28489300  0.97626800  0.34694500  1
  Cl  Cl10  1  0.08622500  0.88416200  0.19450200  1
  Cl  Cl11  1  0.11872100  0.03752000  0.76211800  1
  Cl  Cl12  1  0.88445000  0.02025600  0.77729300  1
  Cl  Cl13  1  0.79229700  0.36685900  0.63134800  1
  Cl  Cl14  1  0.63679400  0.22711900  0.55968300  1
  Cl  Cl15  1  0.95309500  0.55004800  0.78555600  1
  Cl  Cl16  1  0.13916300  0.65502500  0.82347500  1
  Cl  Cl17  1  0.77000700  0.56304200  0.75181100  1
  Cl  Cl18  1  0.78990400  0.47751100  0.54566500  1
  O  O1  1  0.04364400  0.89884800  0.47705500  1
  O  O2  1  0.96300400  0.97287200  0.40563800  1
  O  O3  1  0.95845400  0.96017900  0.54319800  1
  O  O4  1  0.88235500  0.03696400  0.47438800  1
  O  O5  1  0.05682800  0.02018700  0.60077000  1
  O  O6  1  0.97472000  0.09419600  0.52946400  1
  O  O7  1  0.13673500  0.95563400  0.53154100  1
  O  O8  1  0.06076900  0.03343800  0.46392100  1
  O  O9  1  0.45545200  0.09953600  0.48676900  1
  O  O10  1  0.45079500  0.02936800  0.41115500  1
  O  O11  1  0.60551500  0.03394700  0.55256000  1
  O  O12  1  0.60279000  0.96728700  0.47389800  1
  O  O13  1  0.57007600  0.97333300  0.60591500  1
  O  O14  1  0.56524500  0.90328600  0.53034700  1
  O  O15  1  0.41790100  0.03545200  0.54287900  1
  O  O16  1  0.41519300  0.96903400  0.46430400  1
  O  O17  1  0.11214200  0.44236200  0.07030600  1
  O  O18  1  0.00603800  0.43667100  0.06798500  1
  O  O19  1  0.04031000  0.56468000  0.06260600  1
  O  O20  1  0.93392700  0.55895800  0.06018000  1
  O  O21  1  0.98572500  0.56038400  0.94290500  1
  O  O22  1  0.87929400  0.55468100  0.94048500  1
  O  O23  1  0.05461600  0.43789400  0.94428000  1
  O  O24  1  0.94849700  0.43219900  0.94197500  1
