# Generated by REPEAT Assigner based on pymatgen
data_DB0-m3_o2_o20_f0_pcu.sym.48
_audit_creation_date              2022-05-24
_audit_creation_method            REPEAT_Assigner
_cell_length_a                    15.209484
_cell_length_b                    14.164563
_cell_length_c                    14.531299
_cell_angle_alpha                 90.000000
_cell_angle_beta                  89.996529
_cell_angle_gamma                 90.000000
_cell_volume                      3130.560395
_symmetry_space_group_name_H-M    P1
_symmetry_Int_Tables_number       1
loop_
    _symmetry_equiv_pos_site_id
    _symmetry_equiv_pos_as_xyz
    1  x,y,z
loop_
    _atom_site_type_symbol
    _atom_site_label
    _atom_site_fract_x
    _atom_site_fract_y
    _atom_site_fract_z
    _atom_type_partial_charge
    O   O1   0.369085  0.585380  0.499511  -0.628789
    O   O2   0.631031  0.422218  0.502296  -0.652395
    O   O3   0.630915  0.585380  0.500489  -0.628795
    O   O4   0.368969  0.422218  0.497704  -0.652391
    C   C1   0.327908  0.504029  0.498393  0.622337
    C   C2   0.672092  0.504029  0.501608  0.622337
    O   O5   0.501439  0.585415  0.362958  -0.574450
    O   O6   0.497048  0.422313  0.637019  -0.613358
    O   O7   0.498561  0.585415  0.637043  -0.574449
    O   O8   0.502952  0.422313  0.362981  -0.613351
    C   C3   0.502817  0.503864  0.320261  0.798251
    C   C4   0.497183  0.503864  0.679739  0.798253
    Zn  Zn1  0.500000  0.611870  0.500000  0.985320
    Zn  Zn2  0.500000  0.395757  0.500000  1.041669
    C   C5   0.472789  0.106066  0.424825  -0.359912
    C   C6   0.563196  0.901782  0.545674  -0.441085
    C   C7   0.527211  0.106066  0.575175  -0.359913
    C   C8   0.436804  0.901782  0.454326  -0.441099
    H   H1   0.455103  0.068379  0.363190  0.143538
    H   H2   0.616130  0.938929  0.579183  0.183686
    H   H3   0.544897  0.068379  0.636810  0.143540
    H   H4   0.383870  0.938930  0.420817  0.183692
    C   C9   0.462106  0.203058  0.429785  0.321026
    C   C10  0.558697  0.804477  0.552343  0.398547
    C   C11  0.537894  0.203058  0.570216  0.321022
    C   C12  0.441303  0.804477  0.447658  0.398557
    N   N1   0.500000  0.253599  0.500000  -0.303736
    N   N2   0.500000  0.753939  0.500000  -0.340222
    C   C13  0.502616  0.503850  0.221528  -0.269191
    C   C14  0.497384  0.503850  0.778472  -0.269208
    C   C15  0.501860  0.503909  0.138613  0.112362
    C   C16  0.498140  0.503909  0.861387  0.112408
    C   C17  0.500589  0.503964  0.041457  -0.042927
    C   C18  0.499411  0.503964  0.958543  -0.042987
    C   C19  0.500000  0.055990  0.500000  0.202133
    C   C20  0.500000  0.951864  0.500000  0.303066
    C   C21  0.095539  0.587169  0.522520  -0.164048
    C   C22  0.905780  0.426085  0.524736  -0.140543
    C   C23  0.904461  0.587169  0.477480  -0.164032
    C   C24  0.094220  0.426085  0.475264  -0.140557
    H   H5   0.062365  0.650889  0.543956  0.110949
    H   H6   0.939813  0.362905  0.546198  0.101622
    H   H7   0.937635  0.650889  0.456044  0.110944
    H   H8   0.060187  0.362905  0.453802  0.101627
    C   C25  0.186273  0.586570  0.521223  -0.086581
    C   C26  0.815234  0.425153  0.524070  -0.138542
    C   C27  0.813727  0.586570  0.478777  -0.086609
    C   C28  0.184766  0.425153  0.475931  -0.138519
    H   H9   0.221165  0.650111  0.540200  0.109202
    H   H10  0.781499  0.361476  0.543375  0.150498
    H   H11  0.778835  0.650111  0.459801  0.109215
    H   H12  0.218501  0.361476  0.456625  0.150487
    C   C29  0.231448  0.505193  0.498560  -0.000976
    C   C30  0.768552  0.505193  0.501441  -0.000953
    C   C31  0.048507  0.506877  0.499375  0.091257
    C   C32  0.951493  0.506877  0.500625  0.091250
    C   C33  0.410500  0.248548  0.353349  -0.260505
    C   C34  0.328251  0.193530  0.324364  0.479523
    C   C35  0.272610  0.165248  0.407025  -0.311992
    C   C36  0.273866  0.255060  0.260491  -0.390015
    H   H13  0.453765  0.256872  0.292450  0.063038
    H   H14  0.386231  0.317551  0.375189  0.143698
    H   H15  0.346151  0.129638  0.284640  -0.071854
    H   H16  0.281619  0.215928  0.464228  0.053046
    H   H17  0.291622  0.093813  0.430886  0.029692
    H   H18  0.202213  0.163336  0.387339  0.071681
    H   H19  0.246757  0.316377  0.298376  0.070879
    H   H20  0.218998  0.213115  0.231233  0.083857
    H   H21  0.315739  0.280724  0.203241  0.073178
    C   C37  0.623780  0.760840  0.617548  -0.356169
    C   C38  0.617102  0.800949  0.715258  0.569099
    C   C39  0.523228  0.799227  0.751483  -0.392459
    C   C40  0.674858  0.742651  0.778699  -0.423762
    H   H22  0.690904  0.774919  0.591079  0.073841
    H   H23  0.616449  0.684908  0.623430  0.146479
    H   H24  0.641801  0.874469  0.717426  -0.099435
    H   H25  0.495110  0.727506  0.745229  0.095687
    H   H26  0.481368  0.850371  0.713907  0.048145
    H   H27  0.523369  0.819588  0.825164  0.075750
    H   H28  0.648378  0.669975  0.784927  0.098817
    H   H29  0.676811  0.775727  0.847834  0.090925
    H   H30  0.742620  0.739697  0.750693  0.064269
    C   C41  0.589500  0.248548  0.646651  -0.260495
    C   C42  0.671749  0.193530  0.675636  0.479502
    C   C43  0.727390  0.165248  0.592976  -0.311983
    C   C44  0.726134  0.255060  0.739509  -0.389991
    H   H31  0.546235  0.256872  0.707550  0.063040
    H   H32  0.613770  0.317551  0.624811  0.143700
    H   H33  0.653849  0.129638  0.715360  -0.071852
    H   H34  0.718381  0.215928  0.535772  0.053041
    H   H35  0.708378  0.093813  0.569114  0.029692
    H   H36  0.797787  0.163336  0.612661  0.071680
    H   H37  0.753243  0.316377  0.701624  0.070871
    H   H38  0.781002  0.213115  0.768767  0.083853
    H   H39  0.684261  0.280724  0.796759  0.073172
    C   C45  0.376220  0.760840  0.382453  -0.356169
    C   C46  0.382898  0.800949  0.284742  0.569098
    C   C47  0.476772  0.799227  0.248517  -0.392466
    C   C48  0.325142  0.742651  0.221302  -0.423767
    H   H40  0.309096  0.774919  0.408921  0.073841
    H   H41  0.383550  0.684908  0.376570  0.146476
    H   H42  0.358199  0.874469  0.282574  -0.099434
    H   H43  0.504890  0.727506  0.254772  0.095690
    H   H44  0.518632  0.850371  0.286094  0.048146
    H   H45  0.476630  0.819588  0.174837  0.075752
    H   H46  0.351622  0.669975  0.215073  0.098819
    H   H47  0.323189  0.775726  0.152166  0.090924
    H   H48  0.257380  0.739697  0.249307  0.064272
