# generated using pymatgen
data_ZnH20C41N2O7
_symmetry_space_group_name_H-M   'P 1'
_cell_length_a   14.90098700
_cell_length_b   15.96560300
_cell_length_c   27.62682000
_cell_angle_alpha   89.98919300
_cell_angle_beta   103.60157800
_cell_angle_gamma   86.01176300
_symmetry_Int_Tables_number   1
_chemical_formula_structural   ZnH20C41N2O7
_chemical_formula_sum   'Zn2 H40 C82 N4 O14'
_cell_volume   6371.78311537
_cell_formula_units_Z   2
loop_
 _symmetry_equiv_pos_site_id
 _symmetry_equiv_pos_as_xyz
  1  'x, y, z'
loop_
 _atom_site_type_symbol
 _atom_site_label
 _atom_site_symmetry_multiplicity
 _atom_site_fract_x
 _atom_site_fract_y
 _atom_site_fract_z
 _atom_site_occupancy
  Zn  Zn1  1  0.41201300  0.47958300  0.49176000  1
  Zn  Zn2  1  0.61274200  0.52349600  0.51358600  1
  H  H1  1  0.40102300  0.57564200  0.73694900  1
  H  H2  1  0.41944800  0.39808800  0.24492900  1
  H  H3  1  0.51735400  0.71295500  0.88422400  1
  H  H4  1  0.59523600  0.29769900  0.13307100  1
  H  H5  1  0.60150000  0.58794600  0.36235700  1
  H  H6  1  0.65264700  0.44687600  0.66894000  1
  H  H7  1  0.60524400  0.59218600  0.27499100  1
  H  H8  1  0.66443300  0.44265800  0.75848900  1
  H  H9  1  0.45061100  0.70184100  0.11482600  1
  H  H10  1  0.56297900  0.29619900  0.88746100  1
  H  H11  1  0.45888900  0.70654500  0.03103400  1
  H  H12  1  0.56150200  0.29199400  0.97223800  1
  H  H13  1  0.51220900  0.71384100  0.96855100  1
  H  H14  1  0.60231400  0.29668500  0.04904400  1
  H  H15  1  0.26835500  0.02061500  0.45557700  1
  H  H16  1  0.75793700  0.98250100  0.53877500  1
  H  H17  1  0.46214100  0.21605300  0.50022300  1
  H  H18  1  0.56134500  0.78690700  0.51207200  1
  H  H19  1  0.74315100  0.27186500  0.54165000  1
  H  H20  1  0.28328100  0.73094900  0.45493800  1
  H  H21  1  0.23527700  0.87954400  0.44684100  1
  H  H22  1  0.79127900  0.12338700  0.54724500  1
  H  H23  1  0.37057500  0.12695600  0.47677300  1
  H  H24  1  0.65512700  0.87617400  0.51920300  1
  H  H25  1  0.01465500  0.70095400  0.55874000  1
  H  H26  1  0.00365700  0.31083100  0.43527600  1
  H  H27  1  0.23900200  0.55034600  0.51546400  1
  H  H28  1  0.78361400  0.45315100  0.48898400  1
  H  H29  1  0.31291900  0.34024100  0.44088200  1
  H  H30  1  0.71317300  0.66207200  0.56588300  1
  H  H31  1  0.86730600  0.71245900  0.57598500  1
  H  H32  1  0.15648400  0.29353900  0.42534800  1
  H  H33  1  0.13004600  0.62950900  0.52557600  1
  H  H34  1  0.88583300  0.38358300  0.46543700  1
  H  H35  1  0.26075200  0.59487500  0.67954100  1
  H  H36  1  0.17414500  0.71195600  0.61412300  1
  H  H37  1  0.28797300  0.74328300  0.55762800  1
  H  H38  1  0.28889500  0.35796500  0.27690700  1
  H  H39  1  0.26865400  0.22100500  0.32681300  1
  H  H40  1  0.41177700  0.20562600  0.40397500  1
  C  C1  1  0.45626000  0.66094900  0.49020300  1
  C  C2  1  0.56854400  0.34211100  0.51506900  1
  C  C3  1  0.51561100  0.51256800  0.59765400  1
  C  C4  1  0.50965100  0.49030500  0.40769600  1
  C  C5  1  0.53159400  0.57897200  0.82938100  1
  C  C6  1  0.54308200  0.42734400  0.18227700  1
  C  C7  1  0.54701600  0.43221900  0.83032400  1
  C  C8  1  0.49146300  0.56948300  0.17578100  1
  C  C9  1  0.60310700  0.47237200  0.73392600  1
  C  C10  1  0.56244800  0.54887500  0.28747600  1
  C  C11  1  0.59683700  0.47588700  0.68339300  1
  C  C12  1  0.56134000  0.54534200  0.33710800  1
  C  C13  1  0.44846000  0.55172400  0.67042500  1
  C  C14  1  0.45816600  0.43486000  0.32108600  1
  C  C15  1  0.45479100  0.54630500  0.72114500  1
  C  C16  1  0.45773000  0.44060600  0.27102900  1
  C  C17  1  0.53178800  0.50735900  0.75297600  1
  C  C18  1  0.51044700  0.49666300  0.25413600  1
  C  C19  1  0.53864900  0.50414800  0.90530500  1
  C  C20  1  0.52438000  0.50012900  0.10448600  1
  C  C21  1  0.53043200  0.57880900  0.87928300  1
  C  C22  1  0.54695700  0.42743800  0.13272800  1
  C  C23  1  0.52157300  0.65321400  0.90328500  1
  C  C24  1  0.57498800  0.35533700  0.11159300  1
  C  C25  1  0.54843700  0.43048100  0.88061600  1
  C  C26  1  0.49714000  0.57170300  0.12651000  1
  C  C27  1  0.51964800  0.51447700  0.65124300  1
  C  C28  1  0.50923700  0.48900900  0.35443800  1
  C  C29  1  0.51069600  0.57618700  0.02772000  1
  C  C30  1  0.54920500  0.42748400  0.98157800  1
  C  C31  1  0.55180600  0.42733200  0.03256800  1
  C  C32  1  0.52095400  0.57797600  0.97868000  1
  C  C33  1  0.52901600  0.50122300  0.05479300  1
  C  C34  1  0.53646100  0.50319700  0.95535400  1
  C  C35  1  0.48104600  0.64749300  0.05030900  1
  C  C36  1  0.55771400  0.35350900  0.95576200  1
  C  C37  1  0.47416000  0.64500700  0.09895700  1
  C  C38  1  0.55695100  0.35519700  0.90597400  1
  C  C39  1  0.51662300  0.65301300  0.95225200  1
  C  C40  1  0.57713500  0.35499500  0.06219600  1
  C  C41  1  0.42681100  0.75077200  0.48371700  1
  C  C42  1  0.59825500  0.25218700  0.51985800  1
  C  C43  1  0.30778800  0.86019900  0.46067600  1
  C  C44  1  0.71827800  0.14273600  0.53646900  1
  C  C45  1  0.33491000  0.77611800  0.46531100  1
  C  C46  1  0.69102600  0.22680300  0.53333500  1
  C  C47  1  0.49134400  0.81028600  0.49649700  1
  C  C48  1  0.53327400  0.19265100  0.50956400  1
  C  C49  1  0.46509400  0.89617100  0.49097600  1
  C  C50  1  0.56002800  0.10680700  0.51116800  1
  C  C51  1  0.37191700  0.91952700  0.47363800  1
  C  C52  1  0.65373300  0.08344700  0.52533400  1
  C  C53  1  0.52857800  0.95902800  0.50259900  1
  C  C54  1  0.49657000  0.04399500  0.49883200  1
  C  C55  1  0.40185000  0.06402700  0.48186300  1
  C  C56  1  0.62363800  0.93900500  0.51701700  1
  C  C57  1  0.34127300  0.00263200  0.46909000  1
  C  C58  1  0.68459000  0.00040800  0.52807400  1
  C  C59  1  0.85152800  0.65396400  0.55726900  1
  C  C60  1  0.17194100  0.35166300  0.44456400  1
  C  C61  1  0.76508700  0.62564200  0.55177400  1
  C  C62  1  0.25983900  0.37785100  0.45310300  1
  C  C63  1  0.80713400  0.50833700  0.50878400  1
  C  C64  1  0.21576300  0.49626300  0.49433200  1
  C  C65  1  0.89679200  0.53404300  0.51408200  1
  C  C66  1  0.12452200  0.47287500  0.48573000  1
  C  C67  1  0.91681500  0.60884500  0.53802000  1
  C  C68  1  0.10467200  0.39856200  0.46128500  1
  C  C69  1  0.96616000  0.48858300  0.49583200  1
  C  C70  1  0.05367400  0.51979000  0.50185100  1
  C  C71  1  0.06802900  0.59792200  0.52326000  1
  C  C72  1  0.95029300  0.41262900  0.47170800  1
  C  C73  1  0.00100500  0.64076000  0.54176100  1
  C  C74  1  0.01828800  0.36945300  0.45406200  1
  C  C75  1  0.37226500  0.60551000  0.63960900  1
  C  C76  1  0.28725900  0.62218100  0.65039300  1
  C  C77  1  0.24253200  0.68209600  0.61692900  1
  C  C78  1  0.30270400  0.69775200  0.58785500  1
  C  C79  1  0.41424500  0.36445800  0.33784100  1
  C  C80  1  0.33405800  0.33311500  0.31115300  1
  C  C81  1  0.32373000  0.26302600  0.33646800  1
  C  C82  1  0.39869300  0.25584800  0.37649000  1
  N  N1  1  0.53815000  0.50606800  0.80539800  1
  N  N2  1  0.51462400  0.49777500  0.20298000  1
  N  N3  1  0.74407500  0.55431500  0.52735600  1
  N  N4  1  0.28055700  0.44891400  0.47783600  1
  O  O1  1  0.39283600  0.60628700  0.48442900  1
  O  O2  1  0.63197300  0.39675800  0.52048800  1
  O  O3  1  0.54520200  0.63889600  0.50169800  1
  O  O4  1  0.47951700  0.36417300  0.50396500  1
  O  O5  1  0.43853300  0.49385200  0.56659000  1
  O  O6  1  0.58596900  0.50975800  0.43879800  1
  O  O7  1  0.59160800  0.52516300  0.58338300  1
  O  O8  1  0.43360300  0.47701900  0.42198200  1
  O  O9  1  0.52682300  0.65228200  0.80466100  1
  O  O10  1  0.56981900  0.35711500  0.21026400  1
  O  O11  1  0.46110100  0.63876200  0.19644900  1
  O  O12  1  0.55158000  0.35994400  0.80580500  1
  O  O13  1  0.38219100  0.65179000  0.60163800  1
  O  O14  1  0.45428200  0.31739900  0.37758300  1
