# generated using pymatgen
data_CuH26C34(NO3)2
_symmetry_space_group_name_H-M   'P 1'
_cell_length_a   17.67378400
_cell_length_b   16.22289500
_cell_length_c   23.36405400
_cell_angle_alpha   90.00000000
_cell_angle_beta   90.01322700
_cell_angle_gamma   90.00000000
_symmetry_Int_Tables_number   1
_chemical_formula_structural   CuH26C34(NO3)2
_chemical_formula_sum   'Cu2 H52 C68 N4 O12'
_cell_volume   6698.94003124
_cell_formula_units_Z   2
loop_
 _symmetry_equiv_pos_site_id
 _symmetry_equiv_pos_as_xyz
  1  'x, y, z'
loop_
 _atom_site_type_symbol
 _atom_site_label
 _atom_site_symmetry_multiplicity
 _atom_site_fract_x
 _atom_site_fract_y
 _atom_site_fract_z
 _atom_site_occupancy
  Cu  Cu1  1  0.49947000  0.57859300  0.50025600  1
  Cu  Cu2  1  0.49960200  0.41388000  0.50027100  1
  H  H1  1  0.31484400  0.47307300  0.94533500  1
  H  H2  1  0.68569700  0.47682600  0.05531400  1
  H  H3  1  0.56493600  0.60006300  0.21021100  1
  H  H4  1  0.43297600  0.59840200  0.79064300  1
  H  H5  1  0.44564600  0.38150000  0.32410700  1
  H  H6  1  0.55665600  0.38292500  0.67662100  1
  H  H7  1  0.44397500  0.37381400  0.22016900  1
  H  H8  1  0.55887600  0.37546100  0.78042000  1
  H  H9  1  0.87585500  0.62723900  0.49671800  1
  H  H10  1  0.12309500  0.36522800  0.50040300  1
  H  H11  1  0.12310400  0.62748900  0.49584800  1
  H  H12  1  0.87612100  0.36534600  0.50715700  1
  H  H13  1  0.73785800  0.62811300  0.49790400  1
  H  H14  1  0.26109800  0.36427600  0.49941200  1
  H  H15  1  0.26113300  0.62834300  0.49486400  1
  H  H16  1  0.73808700  0.36438300  0.50847000  1
  H  H17  1  0.59629900  0.86043300  0.55474200  1
  H  H18  1  0.42159000  0.13205600  0.43059800  1
  H  H19  1  0.40907900  0.86084200  0.44016600  1
  H  H20  1  0.58474200  0.13161100  0.56462900  1
  H  H21  1  0.59316800  0.70920400  0.55577700  1
  H  H22  1  0.42066400  0.28344500  0.43291800  1
  H  H23  1  0.40822100  0.70965200  0.44229900  1
  H  H24  1  0.58188300  0.28290900  0.56547800  1
  H  H25  1  0.15970100  0.37483800  0.08533800  1
  H  H26  1  0.13907100  0.48427500  0.08535700  1
  H  H27  1  0.10092700  0.41867300  0.02987700  1
  H  H28  1  0.20735300  0.49907700  0.99333400  1
  H  H29  1  0.23070300  0.38937600  0.99545400  1
  H  H30  1  0.29105400  0.41214500  0.09026900  1
  H  H31  1  0.27430700  0.52237000  0.08261000  1
  H  H32  1  0.84117200  0.37872600  0.91532300  1
  H  H33  1  0.86117400  0.48829600  0.91504700  1
  H  H34  1  0.89984800  0.42318600  0.97060000  1
  H  H35  1  0.79313900  0.50285300  0.00729800  1
  H  H36  1  0.77016300  0.39306500  0.00515200  1
  H  H37  1  0.70992200  0.41583800  0.91021800  1
  H  H38  1  0.72575600  0.52615700  0.91826500  1
  H  H39  1  0.60019900  0.75027600  0.39714500  1
  H  H40  1  0.64031900  0.78216100  0.32935500  1
  H  H41  1  0.55297700  0.82768400  0.35445900  1
  H  H42  1  0.52892700  0.72454400  0.27839400  1
  H  H43  1  0.48844500  0.69274000  0.34570000  1
  H  H44  1  0.61030600  0.60841900  0.36282200  1
  H  H45  1  0.63814400  0.63522600  0.29233900  1
  H  H46  1  0.39669400  0.74404400  0.60034300  1
  H  H47  1  0.35539100  0.77863400  0.66708800  1
  H  H48  1  0.44254300  0.82407300  0.64149300  1
  H  H49  1  0.46730200  0.72515100  0.71997200  1
  H  H50  1  0.50821000  0.69017500  0.65360800  1
  H  H51  1  0.38478200  0.60492100  0.63908400  1
  H  H52  1  0.36000600  0.63385800  0.70973700  1
  C  C1  1  0.35410700  0.49628900  0.49753900  1
  C  C2  1  0.64495300  0.49617900  0.50294700  1
  C  C3  1  0.50471100  0.49657200  0.39022000  1
  C  C4  1  0.49439800  0.49601800  0.61036600  1
  C  C5  1  0.56557700  0.48480400  0.88049400  1
  C  C6  1  0.43475500  0.48344100  0.12022800  1
  C  C7  1  0.43327100  0.47786100  0.88219000  1
  C  C8  1  0.56717700  0.47951300  0.11851700  1
  C  C9  1  0.43351000  0.47682500  0.94124600  1
  C  C10  1  0.56694500  0.47829700  0.05946300  1
  C  C11  1  0.50091100  0.47765400  0.97070700  1
  C  C12  1  0.49952500  0.47768100  0.03000900  1
  C  C13  1  0.56896900  0.47912900  0.94048100  1
  C  C14  1  0.43144100  0.47783200  0.06023300  1
  C  C15  1  0.36577900  0.47371300  0.97033500  1
  C  C16  1  0.63471500  0.47640200  0.03035800  1
  C  C17  1  0.36293800  0.47278000  0.02964600  1
  C  C18  1  0.63753300  0.47528700  0.97105000  1
  C  C19  1  0.53862800  0.55233600  0.23563600  1
  C  C20  1  0.46008500  0.55129500  0.76513900  1
  C  C21  1  0.54165900  0.55679900  0.29465800  1
  C  C22  1  0.45665100  0.55564900  0.70612100  1
  C  C23  1  0.50687700  0.49543100  0.32730500  1
  C  C24  1  0.49256400  0.49508800  0.67335000  1
  C  C25  1  0.47265800  0.42984300  0.29971300  1
  C  C26  1  0.52854800  0.43058900  0.70094400  1
  C  C27  1  0.47087500  0.42570500  0.24087800  1
  C  C28  1  0.53067900  0.42657100  0.75977000  1
  C  C29  1  0.50334200  0.48729300  0.20858400  1
  C  C30  1  0.49688600  0.48721200  0.79212500  1
  C  C31  1  0.84527600  0.56967000  0.49939700  1
  C  C32  1  0.15372400  0.42286200  0.49905200  1
  C  C33  1  0.15372900  0.56982400  0.49649100  1
  C  C34  1  0.84542400  0.42290900  0.50524000  1
  C  C35  1  0.76728200  0.56981500  0.50012600  1
  C  C36  1  0.23171800  0.42266700  0.49848600  1
  C  C37  1  0.23173300  0.56996100  0.49591300  1
  C  C38  1  0.76741900  0.42271200  0.50598100  1
  C  C39  1  0.72789200  0.49624300  0.50329400  1
  C  C40  1  0.27117800  0.49629800  0.49704800  1
  C  C41  1  0.88432900  0.49629800  0.50181000  1
  C  C42  1  0.11474500  0.49635500  0.49818700  1
  C  C43  1  0.96546700  0.49632300  0.50052300  1
  C  C44  1  0.03360600  0.49636000  0.49940800  1
  C  C45  1  0.55437000  0.82773700  0.52986000  1
  C  C46  1  0.45707700  0.16475900  0.46067300  1
  C  C47  1  0.44978500  0.82797600  0.46607500  1
  C  C48  1  0.54807400  0.16449800  0.53547600  1
  C  C49  1  0.55248200  0.74279700  0.53033000  1
  C  C50  1  0.45658100  0.24972200  0.46213800  1
  C  C51  1  0.44931500  0.74303100  0.46749600  1
  C  C52  1  0.54622300  0.24946300  0.53593600  1
  C  C53  1  0.50240700  0.87068500  0.49774000  1
  C  C54  1  0.50284200  0.12178900  0.49781200  1
  C  C55  1  0.50296600  0.95910100  0.49740600  1
  C  C56  1  0.50312000  0.03336000  0.49744000  1
  C  C57  1  0.28723500  0.46421800  0.05966400  1
  C  C58  1  0.21969000  0.44547800  0.02130900  1
  C  C59  1  0.15043500  0.42980500  0.05800200  1
  C  C60  1  0.71330000  0.46771600  0.94100900  1
  C  C61  1  0.78095200  0.44923000  0.97930700  1
  C  C62  1  0.85019800  0.43386900  0.94253600  1
  C  C63  1  0.58810500  0.62477000  0.32002300  1
  C  C64  1  0.54213400  0.70373000  0.32248000  1
  C  C65  1  0.58694400  0.77025900  0.35287900  1
  C  C66  1  0.40887700  0.62274100  0.68100900  1
  C  C67  1  0.45434900  0.70188300  0.67643400  1
  C  C68  1  0.40917900  0.76631700  0.64421000  1
  N  N1  1  0.49857400  0.48287500  0.85314000  1
  N  N2  1  0.50179000  0.48301700  0.14756600  1
  N  N3  1  0.49927200  0.70183300  0.50036800  1
  N  N4  1  0.49969300  0.29064500  0.50029000  1
  O  O1  1  0.38961500  0.56707400  0.49627200  1
  O  O2  1  0.60944300  0.42537300  0.50462000  1
  O  O3  1  0.60944400  0.56691300  0.50021400  1
  O  O4  1  0.38962700  0.42554700  0.49996900  1
  O  O5  1  0.49949600  0.56724500  0.41705300  1
  O  O6  1  0.49906300  0.42530300  0.58348700  1
  O  O7  1  0.49416500  0.56667800  0.58331500  1
  O  O8  1  0.50535300  0.42574700  0.41720200  1
  O  O9  1  0.62781500  0.49623200  0.84857000  1
  O  O10  1  0.37233000  0.49324400  0.15220100  1
  O  O11  1  0.36772700  0.47305800  0.85317200  1
  O  O12  1  0.63280600  0.47635600  0.14753300  1
