# generated using pymatgen
data_ZnH6C15N3O8
_symmetry_space_group_name_H-M   'P 1'
_cell_length_a   8.44037400
_cell_length_b   11.32624800
_cell_length_c   15.06848000
_cell_angle_alpha   98.71985100
_cell_angle_beta   89.84856600
_cell_angle_gamma   83.48251200
_symmetry_Int_Tables_number   1
_chemical_formula_structural   ZnH6C15N3O8
_chemical_formula_sum   'Zn2 H12 C30 N6 O16'
_cell_volume   1414.37168745
_cell_formula_units_Z   2
loop_
 _symmetry_equiv_pos_site_id
 _symmetry_equiv_pos_as_xyz
  1  'x, y, z'
loop_
 _atom_site_type_symbol
 _atom_site_label
 _atom_site_symmetry_multiplicity
 _atom_site_fract_x
 _atom_site_fract_y
 _atom_site_fract_z
 _atom_site_occupancy
  Zn  Zn1  1  0.51938000  0.86820300  0.50367700  1
  Zn  Zn2  1  0.48061800  0.13179500  0.49632300  1
  H  H1  1  0.99046800  0.07235000  0.56954600  1
  H  H2  1  0.00953200  0.92764900  0.43045400  1
  H  H3  1  0.24950900  0.00935000  0.80223600  1
  H  H4  1  0.75049100  0.99064900  0.19776300  1
  H  H5  1  0.81271400  0.14655400  0.93775500  1
  H  H6  1  0.18728600  0.85344500  0.06224500  1
  H  H7  1  0.70434800  0.29705400  0.50744200  1
  H  H8  1  0.29565200  0.70294600  0.49255800  1
  H  H9  1  0.20846600  0.29797700  0.48076100  1
  H  H10  1  0.79153400  0.70202200  0.51923900  1
  H  H11  1  0.82339300  0.48328900  0.51739500  1
  H  H12  1  0.17660800  0.51671000  0.48260400  1
  C  C1  1  0.85168400  0.04322200  0.68038900  1
  C  C2  1  0.14831600  0.95677700  0.31961100  1
  C  C3  1  0.85277600  0.01848100  0.76745900  1
  C  C4  1  0.14722400  0.98151800  0.23254000  1
  C  C5  1  0.99577500  0.01085100  0.81258500  1
  C  C6  1  0.00422500  0.98914800  0.18741500  1
  C  C7  1  0.13719300  0.01965900  0.76834200  1
  C  C8  1  0.86280700  0.98034100  0.23165800  1
  C  C9  1  0.13460700  0.04381800  0.68128400  1
  C  C10  1  0.86539300  0.95618100  0.31871600  1
  C  C11  1  0.99130800  0.05988400  0.63923000  1
  C  C12  1  0.00869200  0.94011500  0.36077000  1
  C  C13  1  0.89288200  0.08083900  0.96547500  1
  C  C14  1  0.10711800  0.91916000  0.03452500  1
  C  C15  1  0.89591000  0.08096800  0.05713700  1
  C  C16  1  0.10409100  0.91903100  0.94286200  1
  C  C17  1  0.00342700  0.99906700  0.09172900  1
  C  C18  1  0.99657300  0.00093200  0.90827100  1
  C  C19  1  0.71332500  0.02951500  0.62381900  1
  C  C20  1  0.28667500  0.97048400  0.37618000  1
  C  C21  1  0.28002400  0.03216900  0.62634200  1
  C  C22  1  0.71997600  0.96783000  0.37365800  1
  C  C23  1  0.70598000  0.53065700  0.51215600  1
  C  C24  1  0.29402000  0.46934300  0.48784300  1
  C  C25  1  0.68789400  0.65358600  0.51353100  1
  C  C26  1  0.31210600  0.34641300  0.48646900  1
  C  C27  1  0.41174700  0.65395000  0.49845600  1
  C  C28  1  0.58825300  0.34604900  0.50154400  1
  C  C29  1  0.42614500  0.53103300  0.49658500  1
  C  C30  1  0.57385500  0.46896600  0.50341500  1
  N  N1  1  0.45807800  0.28675900  0.49287700  1
  N  N2  1  0.54192300  0.71324100  0.50712300  1
  N  N3  1  0.70895000  0.99597800  0.80884800  1
  N  N4  1  0.29105000  0.00402200  0.19115200  1
  N  N5  1  0.79536900  0.17022100  0.11503900  1
  N  N6  1  0.20463100  0.82977800  0.88496100  1
  O  O1  1  0.64499500  0.12425300  0.59265000  1
  O  O2  1  0.35500500  0.87574600  0.40735000  1
  O  O3  1  0.68003700  0.91987700  0.59593800  1
  O  O4  1  0.31996300  0.08012300  0.40406200  1
  O  O5  1  0.35107500  0.92301300  0.60082200  1
  O  O6  1  0.64892600  0.07698700  0.39917700  1
  O  O7  1  0.31405000  0.12585800  0.59119500  1
  O  O8  1  0.68595100  0.87414200  0.40880400  1
  O  O9  1  0.71494100  0.93299900  0.87432200  1
  O  O10  1  0.57143500  0.02844500  0.77591500  1
  O  O11  1  0.28505900  0.06700000  0.12567700  1
  O  O12  1  0.42856500  0.97155400  0.22408500  1
  O  O13  1  0.83398700  0.20070300  0.19814100  1
  O  O14  1  0.68099300  0.23535500  0.08123800  1
  O  O15  1  0.16601300  0.79929700  0.80185900  1
  O  O16  1  0.31900700  0.76464500  0.91876200  1
