data_DB0-m3_o156_o1510_f0_fsc.sym.28_repeat
_audit_creation_date              2024-02-20
_audit_creation_method            'Materials Studio'
_symmetry_space_group_name_H-M    'P1'
_symmetry_Int_Tables_number       1
_symmetry_cell_setting            triclinic
loop_
_symmetry_equiv_pos_as_xyz
  x,y,z
_cell_length_a                    17.6221
_cell_length_b                    8.5486
_cell_length_c                    19.3041
_cell_angle_alpha                 90.0000
_cell_angle_beta                  91.0402
_cell_angle_gamma                 90.0000
loop_
_atom_site_label
_atom_site_type_symbol
_atom_site_fract_x
_atom_site_fract_y
_atom_site_fract_z
_atom_site_U_iso_or_equiv
_atom_site_adp_type
_atom_site_occupancy
H1     H     0.02924   0.99988   0.54834   0.00000  Uiso   1.00
H2     H     0.97123   0.00042   0.45093   0.00000  Uiso   1.00
C1     C     0.01072   0.14058   0.63649   0.00000  Uiso   1.00
C2     C     0.98897   0.85947   0.36273   0.00000  Uiso   1.00
C3     C     0.99808   0.13802   0.36361   0.00000  Uiso   1.00
C4     C     0.00208   0.86194   0.63547   0.00000  Uiso   1.00
C5     C     0.99873   0.14190   0.70690   0.00000  Uiso   1.00
C6     C     0.99985   0.85801   0.29222   0.00000  Uiso   1.00
C7     C     0.00879   0.13869   0.29301   0.00000  Uiso   1.00
C8     C     0.99164   0.86103   0.70606   0.00000  Uiso   1.00
C9     C     0.99306   0.00117   0.74238   0.00000  Uiso   1.00
C10    C     0.00626   0.99844   0.25669   0.00000  Uiso   1.00
C11    C     0.01680   0.00048   0.60251   0.00000  Uiso   1.00
C12    C     0.98337   0.99962   0.39670   0.00000  Uiso   1.00
C13    C     0.93665   0.96514   0.07419   0.00000  Uiso   1.00
C14    C     0.93351   0.05063   0.92586   0.00000  Uiso   1.00
C15    C     0.06029   0.95230   0.92488   0.00000  Uiso   1.00
C16    C     0.06750   0.03740   0.07319   0.00000  Uiso   1.00
H3     H     0.88443   0.93365   0.04755   0.00000  Uiso   1.00
H4     H     0.88483   0.09303   0.95341   0.00000  Uiso   1.00
H5     H     0.11076   0.91050   0.95153   0.00000  Uiso   1.00
H6     H     0.11795   0.06968   0.04563   0.00000  Uiso   1.00
C17    C     0.93928   0.96292   0.14554   0.00000  Uiso   1.00
C18    C     0.93128   0.05026   0.85434   0.00000  Uiso   1.00
C19    C     0.05765   0.95067   0.85353   0.00000  Uiso   1.00
C20    C     0.06977   0.03652   0.14472   0.00000  Uiso   1.00
H7     H     0.88880   0.93406   0.17385   0.00000  Uiso   1.00
H8     H     0.88059   0.08857   0.82691   0.00000  Uiso   1.00
H9     H     0.10658   0.91199   0.82522   0.00000  Uiso   1.00
H10    H     0.12210   0.06408   0.17213   0.00000  Uiso   1.00
C21    C     0.00566   0.99862   0.18098   0.00000  Uiso   1.00
C22    C     0.99334   0.99972   0.81809   0.00000  Uiso   1.00
C23    C     0.00081   0.00210   0.03754   0.00000  Uiso   1.00
C24    C     0.99819   0.00216   0.96152   0.00000  Uiso   1.00
O1     O     0.06374   0.67266   0.56723   0.00000  Uiso   1.00
O2     O     0.93626   0.32720   0.43193   0.00000  Uiso   1.00
O3     O     0.92804   0.66594   0.43126   0.00000  Uiso   1.00
O4     O     0.07189   0.33392   0.56784   0.00000  Uiso   1.00
O5     O     0.93336   0.66197   0.57461   0.00000  Uiso   1.00
O6     O     0.06659   0.33812   0.42446   0.00000  Uiso   1.00
O7     O     0.05869   0.66536   0.42384   0.00000  Uiso   1.00
O8     O     0.94125   0.33476   0.57534   0.00000  Uiso   1.00
C25    C     0.99972   0.71981   0.59350   0.00000  Uiso   1.00
C26    C     0.00028   0.28021   0.40557   0.00000  Uiso   1.00
C27    C     0.99145   0.71736   0.40470   0.00000  Uiso   1.00
C28    C     0.00846   0.28269   0.59449   0.00000  Uiso   1.00
Zn1    Zn    0.91513   0.49520   0.50222   0.00000  Uiso   1.00
Zn2    Zn    0.08483   0.50475   0.49690   0.00000  Uiso   1.00
C29    C     0.77451   0.48156   0.44234   0.00000  Uiso   1.00
C30    C     0.22557   0.51819   0.55668   0.00000  Uiso   1.00
N1     N     0.81515   0.48468   0.50355   0.00000  Uiso   1.00
N2     N     0.18481   0.51524   0.49554   0.00000  Uiso   1.00
C31    C     0.77546   0.48098   0.56384   0.00000  Uiso   1.00
C32    C     0.22436   0.51910   0.43517   0.00000  Uiso   1.00
C33    C     0.65641   0.49396   0.37854   0.00000  Uiso   1.00
C34    C     0.34376   0.50334   0.62027   0.00000  Uiso   1.00
C35    C     0.69602   0.49311   0.44117   0.00000  Uiso   1.00
C36    C     0.30402   0.50591   0.55770   0.00000  Uiso   1.00
C37    C     0.65692   0.49761   0.50156   0.00000  Uiso   1.00
C38    C     0.34302   0.50221   0.49716   0.00000  Uiso   1.00
C39    C     0.69674   0.49144   0.56309   0.00000  Uiso   1.00
C40    C     0.30312   0.50925   0.43579   0.00000  Uiso   1.00
C41    C     0.65745   0.49091   0.62457   0.00000  Uiso   1.00
C42    C     0.34227   0.51146   0.37425   0.00000  Uiso   1.00
C43    C     0.53831   0.49358   0.31355   0.00000  Uiso   1.00
C44    C     0.46154   0.49670   0.68453   0.00000  Uiso   1.00
C45    C     0.57784   0.49586   0.37651   0.00000  Uiso   1.00
C46    C     0.42215   0.49907   0.62179   0.00000  Uiso   1.00
C47    C     0.53887   0.50057   0.43780   0.00000  Uiso   1.00
C48    C     0.46109   0.49869   0.56049   0.00000  Uiso   1.00
C49    C     0.46001   0.51513   0.31257   0.00000  Uiso   1.00
C50    C     0.54003   0.49407   0.68560   0.00000  Uiso   1.00
C51    C     0.42093   0.50980   0.37439   0.00000  Uiso   1.00
C52    C     0.57897   0.49484   0.62395   0.00000  Uiso   1.00
C53    C     0.57843   0.49982   0.50030   0.00000  Uiso   1.00
C54    C     0.42151   0.49999   0.49809   0.00000  Uiso   1.00
C55    C     0.53945   0.49818   0.56160   0.00000  Uiso   1.00
C56    C     0.46049   0.50215   0.43669   0.00000  Uiso   1.00
H11    H     0.68696   0.49943   0.33078   0.00000  Uiso   1.00
H12    H     0.31383   0.50328   0.66847   0.00000  Uiso   1.00
H13    H     0.68784   0.48834   0.67353   0.00000  Uiso   1.00
H14    H     0.31126   0.50876   0.32566   0.00000  Uiso   1.00
N3     N     0.81118   0.44434   0.62884   0.00000  Uiso   1.00
H15    H     0.85591   0.51778   0.64203   0.00000  Uiso   1.00
H16    H     0.82479   0.32570   0.63098   0.00000  Uiso   1.00
N4     N     0.18852   0.55637   0.37030   0.00000  Uiso   1.00
H17    H     0.14369   0.48321   0.35705   0.00000  Uiso   1.00
H18    H     0.17514   0.67514   0.36829   0.00000  Uiso   1.00
N5     N     0.99622   0.28721   0.74288   0.00000  Uiso   1.00
H19    H     0.94367   0.29584   0.76662   0.00000  Uiso   1.00
H20    H     0.03876   0.28612   0.78124   0.00000  Uiso   1.00
N6     N     0.00483   0.71257   0.25659   0.00000  Uiso   1.00
H21    H     0.95980   0.70572   0.22089   0.00000  Uiso   1.00
H22    H     0.05562   0.71220   0.22957   0.00000  Uiso   1.00
N7     N     0.01730   0.28369   0.25765   0.00000  Uiso   1.00
H23    H     0.06944   0.28247   0.23292   0.00000  Uiso   1.00
H24    H     0.97407   0.29193   0.22012   0.00000  Uiso   1.00
N8     N     0.98029   0.71650   0.74107   0.00000  Uiso   1.00
H25    H     0.02515   0.70019   0.77633   0.00000  Uiso   1.00
H26    H     0.93001   0.72558   0.76857   0.00000  Uiso   1.00
N9     N     0.80853   0.44087   0.37817   0.00000  Uiso   1.00
H27    H     0.81811   0.32060   0.37565   0.00000  Uiso   1.00
H28    H     0.85434   0.50943   0.36454   0.00000  Uiso   1.00
N10    N     0.19169   0.55848   0.62096   0.00000  Uiso   1.00
H29    H     0.18194   0.67869   0.62352   0.00000  Uiso   1.00
H30    H     0.14589   0.48982   0.63452   0.00000  Uiso   1.00
N11    N     0.57793   0.45930   0.25116   0.00000  Uiso   1.00
H31    H     0.61250   0.36249   0.26127   0.00000  Uiso   1.00
H32    H     0.53968   0.41663   0.21396   0.00000  Uiso   1.00
N12    N     0.42110   0.49693   0.74789   0.00000  Uiso   1.00
H33    H     0.43701   0.59561   0.77645   0.00000  Uiso   1.00
H34    H     0.43546   0.39630   0.77577   0.00000  Uiso   1.00
N13    N     0.41996   0.55232   0.24942   0.00000  Uiso   1.00
H35    H     0.38541   0.64859   0.25948   0.00000  Uiso   1.00
H36    H     0.45794   0.59679   0.21367   0.00000  Uiso   1.00
N14    N     0.58092   0.49073   0.75005   0.00000  Uiso   1.00
H37    H     0.56676   0.58997   0.77850   0.00000  Uiso   1.00
H38    H     0.56522   0.39068   0.77723   0.00000  Uiso   1.00
