# generated using pymatgen
data_V2H21C38N3O10
_symmetry_space_group_name_H-M   'P 1'
_cell_length_a   6.82379200
_cell_length_b   18.12344300
_cell_length_c   20.94035100
_cell_angle_alpha   107.35990100
_cell_angle_beta   89.33760500
_cell_angle_gamma   90.77899500
_symmetry_Int_Tables_number   1
_chemical_formula_structural   V2H21C38N3O10
_chemical_formula_sum   'V4 H42 C76 N6 O20'
_cell_volume   2471.43832530
_cell_formula_units_Z   2
loop_
 _symmetry_equiv_pos_site_id
 _symmetry_equiv_pos_as_xyz
  1  'x, y, z'
loop_
 _atom_site_type_symbol
 _atom_site_label
 _atom_site_symmetry_multiplicity
 _atom_site_fract_x
 _atom_site_fract_y
 _atom_site_fract_z
 _atom_site_occupancy
  V  V1  1  0.93106600  0.49534900  0.49867800  1
  V  V2  1  0.43162600  0.51370600  0.50149400  1
  V  V3  1  0.32033200  0.01344200  0.00169600  1
  V  V4  1  0.81978200  0.99499800  0.99876600  1
  H  H1  1  0.80212600  0.69437200  0.25440000  1
  H  H2  1  0.36390700  0.65041100  0.20871300  1
  H  H3  1  0.44969100  0.81311200  0.24604100  1
  H  H4  1  0.45272100  0.13164100  0.70043900  1
  H  H5  1  0.45865500  0.32540300  0.85469100  1
  H  H6  1  0.28582800  0.28037300  0.72617000  1
  H  H7  1  0.72856900  0.86011500  0.27028500  1
  H  H8  1  0.66419700  0.99468100  0.30076700  1
  H  H9  1  0.80525900  0.12388900  0.31383200  1
  H  H10  1  0.16217200  0.14432800  0.32328200  1
  H  H11  1  0.37793600  0.03544300  0.31942300  1
  H  H12  1  0.23756200  0.90641100  0.30610900  1
  H  H13  1  0.72142600  0.43789600  0.82452200  1
  H  H14  1  0.97022600  0.52755800  0.81508300  1
  H  H15  1  0.23825300  0.55311300  0.74475200  1
  H  H16  1  0.38481000  0.44570900  0.65680200  1
  H  H17  1  0.26292200  0.31278600  0.63914300  1
  H  H18  1  0.99453000  0.28749500  0.70947100  1
  H  H19  1  0.36182800  0.86771000  0.37812900  1
  H  H20  1  0.41700100  0.86202300  0.48617400  1
  H  H21  1  0.33942200  0.79908200  0.57261800  1
  H  H22  1  0.05727100  0.70988500  0.55861500  1
  H  H23  1  0.85198200  0.68400100  0.45836800  1
  H  H24  1  0.92871500  0.74734800  0.37214200  1
  H  H25  1  0.14633400  0.65096100  0.09258100  1
  H  H26  1  0.93788500  0.62823200  0.99767300  1
  H  H27  1  0.65468200  0.67589000  0.95062700  1
  H  H28  1  0.42453700  0.76577200  0.02516200  1
  H  H29  1  0.47817800  0.80817900  0.14671700  1
  H  H30  1  0.76143800  0.76083100  0.19369000  1
  H  H31  1  0.94740800  0.19550500  0.62901200  1
  H  H32  1  0.93594300  0.14123200  0.50997100  1
  H  H33  1  0.73471200  0.12469100  0.40991600  1
  H  H34  1  0.37735500  0.14076200  0.42109400  1
  H  H35  1  0.22156900  0.17362500  0.53241600  1
  H  H36  1  0.42226400  0.19037200  0.63236400  1
  H  H37  1  0.04670300  0.25870900  0.82436700  1
  H  H38  1  0.29363200  0.16689000  0.82553600  1
  H  H39  1  0.36532700  0.02858200  0.80126500  1
  H  H40  1  0.15200400  0.93124100  0.72573000  1
  H  H41  1  0.86657900  0.97226100  0.67468900  1
  H  H42  1  0.79431700  0.11030700  0.69910100  1
  C  C1  1  0.64505000  0.42672900  0.57903000  1
  C  C2  1  0.65040400  0.39862300  0.39353800  1
  C  C3  1  0.15608700  0.58232000  0.42113600  1
  C  C4  1  0.15048200  0.61041500  0.60664800  1
  C  C5  1  0.14028000  0.67237000  0.66805900  1
  C  C6  1  0.13128800  0.72422600  0.71974000  1
  C  C7  1  0.12055200  0.78490000  0.78034500  1
  C  C8  1  0.11151000  0.83672600  0.83204500  1
  C  C9  1  0.17437000  0.79628800  0.30806200  1
  C  C10  1  0.99771500  0.80724300  0.27063500  1
  C  C11  1  0.10273300  0.88010600  0.12401700  1
  C  C12  1  0.14884700  0.62788800  0.37570600  1
  C  C13  1  0.30410100  0.78543600  0.24682600  1
  C  C14  1  0.12232100  0.79609000  0.20890100  1
  C  C15  1  0.25895100  0.69827900  0.22801100  1
  C  C16  1  0.13062000  0.71127100  0.29025500  1
  C  C17  1  0.07847600  0.71104300  0.19150400  1
  C  C18  1  0.94788000  0.72159200  0.25262800  1
  C  C19  1  0.11082800  0.84199500  0.16223800  1
  C  C20  1  0.14120800  0.66571800  0.33724700  1
  C  C21  1  0.52805600  0.18786000  0.72308200  1
  C  C22  1  0.70936100  0.21725800  0.69552200  1
  C  C23  1  0.63323100  0.38092000  0.62429900  1
  C  C24  1  0.61776900  0.12836700  0.87648300  1
  C  C25  1  0.43833800  0.26845700  0.73745700  1
  C  C26  1  0.62158500  0.29615000  0.70889600  1
  C  C27  1  0.53134500  0.29304100  0.80713200  1
  C  C28  1  0.62189800  0.21327900  0.79200800  1
  C  C29  1  0.71260100  0.31928000  0.77712700  1
  C  C30  1  0.80114000  0.24092300  0.76328900  1
  C  C31  1  0.62664600  0.34258800  0.66245800  1
  C  C32  1  0.62200900  0.16679700  0.83839400  1
  C  C33  1  0.64003000  0.33659100  0.33219200  1
  C  C34  1  0.63090600  0.28464300  0.28058200  1
  C  C35  1  0.62006100  0.22385500  0.22006700  1
  C  C36  1  0.61098300  0.17194300  0.16843200  1
  C  C37  1  0.60070600  0.10999700  0.10702600  1
  C  C38  1  0.60647000  0.08240600  0.92163900  1
  C  C39  1  0.10121200  0.89860400  0.89350600  1
  C  C40  1  0.09533600  0.92597400  0.07882600  1
  C  C41  1  0.94180800  0.94254600  0.30296100  1
  C  C42  1  0.82105600  0.00361900  0.30493500  1
  C  C43  1  0.90010700  0.07607700  0.31226700  1
  C  C44  1  0.10013400  0.08753900  0.31756000  1
  C  C45  1  0.22105100  0.02650600  0.31543000  1
  C  C46  1  0.14202200  0.95403100  0.30809500  1
  C  C47  1  0.96673300  0.40581300  0.76670000  1
  C  C48  1  0.03468300  0.48035000  0.77646300  1
  C  C49  1  0.18493600  0.49468300  0.73703400  1
  C  C50  1  0.26709700  0.43448500  0.68774300  1
  C  C51  1  0.19882600  0.35998600  0.67786600  1
  C  C52  1  0.04859200  0.34571200  0.71733100  1
  C  C53  1  0.17885400  0.80784700  0.42358000  1
  C  C54  1  0.29309200  0.82279000  0.48000300  1
  C  C55  1  0.24960900  0.78750400  0.52845700  1
  C  C56  1  0.09147100  0.73748900  0.52060000  1
  C  C57  1  0.97652500  0.72290800  0.46436800  1
  C  C58  1  0.02010300  0.75813700  0.41588200  1
  C  C59  1  0.86651100  0.69119400  0.09863300  1
  C  C60  1  0.83677300  0.66770900  0.03045500  1
  C  C61  1  0.67798700  0.69441900  0.00406400  1
  C  C62  1  0.54897400  0.74478400  0.04583500  1
  C  C63  1  0.57897300  0.76850900  0.11397600  1
  C  C64  1  0.73772300  0.74175800  0.14036400  1
  C  C65  1  0.69164900  0.16636600  0.57734200  1
  C  C66  1  0.77894100  0.14827700  0.51492700  1
  C  C67  1  0.66611500  0.13898100  0.45881000  1
  C  C68  1  0.46583700  0.14796800  0.46507200  1
  C  C69  1  0.37849500  0.16631300  0.52746400  1
  C  C70  1  0.49127400  0.17551400  0.58358500  1
  C  C71  1  0.04034500  0.14723000  0.76351000  1
  C  C72  1  0.19986800  0.12414500  0.79232300  1
  C  C73  1  0.24009800  0.04659900  0.77871900  1
  C  C74  1  0.12056300  0.99203900  0.73637700  1
  C  C75  1  0.96065300  0.01504300  0.70773100  1
  C  C76  1  0.92044800  0.09259700  0.72130800  1
  N  N1  1  0.85978500  0.86864600  0.29529900  1
  N  N2  1  0.81291700  0.39140900  0.80694700  1
  N  N3  1  0.22292600  0.84402300  0.37418300  1
  N  N4  1  0.02919400  0.66378000  0.12527000  1
  N  N5  1  0.80781500  0.17599200  0.63450600  1
  N  N6  1  0.99988800  0.22655200  0.77769800  1
  O  O1  1  0.48286400  0.42900100  0.41904200  1
  O  O2  1  0.82063400  0.43551800  0.55575400  1
  O  O3  1  0.98254500  0.58002600  0.58115200  1
  O  O4  1  0.82473400  0.41501900  0.42048100  1
  O  O5  1  0.98686500  0.55841800  0.43845800  1
  O  O6  1  0.47855800  0.45065100  0.56175400  1
  O  O7  1  0.65832200  0.55085200  0.50706400  1
  O  O8  1  0.32962300  0.57350900  0.44435900  1
  O  O9  1  0.32551300  0.59406400  0.57966400  1
  O  O10  1  0.15530900  0.45820200  0.49310700  1
  O  O11  1  0.77304500  0.05847700  0.93889300  1
  O  O12  1  0.42639700  0.09354700  0.08009600  1
  O  O13  1  0.26447800  0.95003000  0.06162700  1
  O  O14  1  0.43088900  0.07356700  0.94488900  1
  O  O15  1  0.26912000  0.92898400  0.91904700  1
  O  O16  1  0.76828100  0.07973400  0.08146900  1
  O  O17  1  0.59312600  0.95797300  0.99324900  1
  O  O18  1  0.92617100  0.91479800  0.92053700  1
  O  O19  1  0.92170700  0.93513700  0.05586400  1
  O  O20  1  0.09604400  0.05056200  0.00731600  1
