# generated using pymatgen
data_ZnH8C15S(NO2)2
_symmetry_space_group_name_H-M   'P 1'
_cell_length_a   8.52818300
_cell_length_b   10.70919800
_cell_length_c   13.41823100
_cell_angle_alpha   97.64165800
_cell_angle_beta   90.09576700
_cell_angle_gamma   90.00839600
_symmetry_Int_Tables_number   1
_chemical_formula_structural   ZnH8C15S(NO2)2
_chemical_formula_sum   'Zn2 H16 C30 S2 N4 O8'
_cell_volume   1214.60185595
_cell_formula_units_Z   2
loop_
 _symmetry_equiv_pos_site_id
 _symmetry_equiv_pos_as_xyz
  1  'x, y, z'
loop_
 _atom_site_type_symbol
 _atom_site_label
 _atom_site_symmetry_multiplicity
 _atom_site_fract_x
 _atom_site_fract_y
 _atom_site_fract_z
 _atom_site_occupancy
  Zn  Zn1  1  0.49768000  0.49182000  0.11058700  1
  Zn  Zn2  1  0.49763600  0.50268100  0.88913400  1
  H  H1  1  0.99402700  0.58880000  0.05808900  1
  H  H2  1  0.99339500  0.40562800  0.94293500  1
  H  H3  1  0.25397400  0.90108700  0.99613800  1
  H  H4  1  0.25428500  0.09176700  0.00026400  1
  H  H5  1  0.60923000  0.10141200  0.98578700  1
  H  H6  1  0.51637700  0.18710200  0.38980200  1
  H  H7  1  0.50328700  0.71122100  0.59408900  1
  H  H8  1  0.50227100  0.70504000  0.44054800  1
  H  H9  1  0.50305300  0.30970700  0.72769600  1
  H  H10  1  0.49971100  0.68611600  0.26266300  1
  H  H11  1  0.23591300  0.85865000  0.81366700  1
  H  H12  1  0.24214400  0.71933500  0.72245100  1
  H  H13  1  0.32543200  0.86565800  0.69229200  1
  H  H14  1  0.22240500  0.14713600  0.18085600  1
  H  H15  1  0.21937000  0.30815900  0.24073800  1
  H  H16  1  0.26894900  0.18180600  0.31248900  1
  C  C1  1  0.99594800  0.68664200  0.04663400  1
  C  C2  1  0.13631100  0.74380900  0.03227000  1
  C  C3  1  0.14004400  0.86549900  0.01123100  1
  C  C4  1  0.85759300  0.74773900  0.03333100  1
  C  C5  1  0.85975000  0.87250000  0.01569000  1
  C  C6  1  0.00182900  0.93376300  0.00732200  1
  C  C7  1  0.00180800  0.05975200  0.99082100  1
  C  C8  1  0.14012300  0.12782200  0.98620100  1
  C  C9  1  0.13624400  0.25007800  0.96655900  1
  C  C10  1  0.72107000  0.05576300  0.99220500  1
  C  C11  1  0.85942900  0.12082700  0.98344400  1
  C  C12  1  0.85704500  0.24628200  0.96674400  1
  C  C13  1  0.99548700  0.30750700  0.95355300  1
  C  C14  1  0.27749000  0.66718300  0.02222600  1
  C  C15  1  0.27779800  0.32677300  0.97681600  1
  C  C16  1  0.71557600  0.32429800  0.97712200  1
  C  C17  1  0.71536600  0.67065100  0.02314600  1
  C  C18  1  0.50222700  0.39794600  0.69688000  1
  C  C19  1  0.49885300  0.61763200  0.72101900  1
  C  C20  1  0.50242800  0.61979700  0.61855400  1
  C  C21  1  0.50415600  0.50808700  0.55282900  1
  C  C22  1  0.50504800  0.39661600  0.59392800  1
  C  C23  1  0.50200300  0.61109800  0.40092700  1
  C  C24  1  0.50392700  0.50369300  0.44821200  1
  C  C25  1  0.50432400  0.38772300  0.38853600  1
  C  C26  1  0.51015800  0.27889400  0.43373800  1
  C  C27  1  0.50031500  0.60106600  0.29783600  1
  C  C28  1  0.49861000  0.38138300  0.28422300  1
  C  C29  1  0.30660800  0.80609700  0.75279200  1
  C  C30  1  0.27950600  0.21602300  0.23841500  1
  S  S1  1  0.49427900  0.76356900  0.80277100  1
  S  S2  1  0.48465600  0.23288600  0.20606200  1
  N  N1  1  0.72368700  0.93393100  0.00727200  1
  N  N2  1  0.49825300  0.50743500  0.75896200  1
  N  N3  1  0.50952900  0.28542200  0.53440100  1
  N  N4  1  0.49800800  0.48792900  0.24089800  1
  O  O1  1  0.32813200  0.62977700  0.93089500  1
  O  O2  1  0.33302800  0.62503500  0.10258100  1
  O  O3  1  0.32856300  0.36424300  0.06841400  1
  O  O4  1  0.33323100  0.36903600  0.89639800  1
  O  O5  1  0.66624700  0.36379300  0.06856700  1
  O  O6  1  0.66168000  0.36883000  0.89715200  1
  O  O7  1  0.66597200  0.63086500  0.93183300  1
  O  O8  1  0.66164900  0.62583200  0.10283100  1
