# Generated by REPEAT Assigner based on pymatgen
data_DB0-m3_o17_o24_f0_nbo.sym.118
_audit_creation_date              2022-05-24
_audit_creation_method            REPEAT_Assigner
_cell_length_a                    36.758541
_cell_length_b                    30.187625
_cell_length_c                    21.508078
_cell_angle_alpha                 90.000000
_cell_angle_beta                  55.036724
_cell_angle_gamma                 90.000000
_cell_volume                      19559.065640
_symmetry_space_group_name_H-M    P1
_symmetry_Int_Tables_number       1
loop_
    _symmetry_equiv_pos_site_id
    _symmetry_equiv_pos_as_xyz
    1  x,y,z
loop_
    _atom_site_type_symbol
    _atom_site_label
    _atom_site_fract_x
    _atom_site_fract_y
    _atom_site_fract_z
    _atom_type_partial_charge
    O   O1    0.067976  0.534886  0.433495  -0.731752
    O   O2    0.935648  0.533706  0.561965  -0.740181
    O   O3    0.567976  0.034886  0.433495  -0.731764
    O   O4    0.435648  0.033706  0.561965  -0.740223
    O   O5    0.067349  0.458351  0.434372  -0.741550
    O   O6    0.935009  0.457226  0.566712  -0.723857
    O   O7    0.567349  0.958351  0.434372  -0.741553
    O   O8    0.435009  0.957226  0.566712  -0.723899
    C   C1    0.088338  0.496476  0.413664  0.805629
    C   C2    0.914650  0.495639  0.584636  0.775095
    C   C3    0.588338  0.996476  0.413664  0.805631
    C   C4    0.414650  0.995639  0.584636  0.775132
    O   O9    0.002311  0.533630  0.590907  -0.694730
    O   O10   0.002974  0.534968  0.405036  -0.678021
    O   O11   0.502311  0.033630  0.590907  -0.694713
    O   O12   0.502974  0.034968  0.405036  -0.678047
    O   O13   0.001160  0.457023  0.592155  -0.709226
    O   O14   0.999360  0.458449  0.408596  -0.731923
    O   O15   0.501160  0.957023  0.592155  -0.709196
    O   O16   0.499360  0.958449  0.408596  -0.731905
    C   C5    0.001833  0.495364  0.620125  0.516833
    C   C6    0.001039  0.496736  0.378227  0.526620
    C   C7    0.501833  0.995364  0.620125  0.516830
    C   C8    0.501039  0.996736  0.378227  0.526670
    Zn  Zn1   0.001711  0.546278  0.499033  1.331431
    Zn  Zn2   0.501711  0.046278  0.499033  1.331453
    Zn  Zn3   0.001257  0.445792  0.499215  1.354526
    Zn  Zn4   0.501257  0.945792  0.499215  1.354537
    C   C9    0.021482  0.459455  0.709623  -0.178393
    C   C10   0.959764  0.481603  0.312467  -0.156071
    C   C11   0.521482  0.959455  0.709623  -0.178417
    C   C12   0.459764  0.981603  0.312467  -0.156033
    C   C13   0.980308  0.461780  0.790990  -0.125591
    C   C14   0.991713  0.459382  0.235866  -0.050392
    C   C15   0.480308  0.961780  0.790990  -0.125498
    C   C16   0.491713  0.959382  0.235866  -0.050447
    H   H1    0.961944  0.433078  0.828282  0.055666
    H   H2    0.987634  0.425927  0.219336  0.035052
    H   H3    0.461944  0.933078  0.828282  0.055629
    H   H4    0.487634  0.925927  0.219336  0.035065
    H   H5    0.037746  0.428910  0.676343  0.063709
    H   H6    0.929110  0.466790  0.362048  0.062844
    H   H7    0.537746  0.928910  0.676343  0.063705
    H   H8    0.429110  0.966790  0.362048  0.062836
    C   C17   0.002591  0.497231  0.807645  0.330462
    C   C18   0.993958  0.502072  0.196968  0.400015
    C   C19   0.502591  0.997231  0.807645  0.330316
    C   C20   0.493958  0.002072  0.196968  0.400058
    C   C21   0.043190  0.495027  0.727505  0.019765
    C   C22   0.962649  0.523999  0.272339  -0.183659
    C   C23   0.543190  0.995027  0.727505  0.019863
    C   C24   0.462649  0.023999  0.272339  -0.183682
    C   C25   0.024416  0.531203  0.704975  -0.238226
    C   C26   0.001528  0.539898  0.272546  -0.126218
    C   C27   0.524416  0.031203  0.704975  -0.238234
    C   C28   0.501528  0.039898  0.272546  -0.126072
    C   C29   0.983215  0.533290  0.786264  -0.068139
    C   C30   0.033313  0.517469  0.196385  -0.132743
    C   C31   0.483215  0.033290  0.786264  -0.068137
    C   C32   0.533313  0.017469  0.196385  -0.132879
    C   C33   0.960965  0.497859  0.768634  -0.075614
    C   C34   0.030984  0.474912  0.236305  -0.157129
    C   C35   0.460965  0.997859  0.768634  -0.075607
    C   C36   0.530984  0.974912  0.236305  -0.157011
    C   C37   0.002139  0.495663  0.688611  0.439147
    C   C38   0.999045  0.497330  0.311409  0.429561
    C   C39   0.502139  0.995663  0.688611  0.439100
    C   C40   0.499045  0.997330  0.311409  0.429407
    H   H9    0.043065  0.559917  0.667949  0.067403
    H   H10   0.005484  0.573652  0.288244  0.050746
    H   H11   0.543065  0.059917  0.667949  0.067397
    H   H12   0.505484  0.073652  0.288244  0.050716
    H   H13   0.967315  0.563906  0.819603  0.025725
    H   H14   0.064018  0.532617  0.147436  0.057735
    H   H15   0.467315  0.063906  0.819603  0.025730
    H   H16   0.564018  0.032617  0.147436  0.057757
    H   H17   0.926573  0.498982  0.784008  0.029893
    H   H18   0.059665  0.454304  0.222638  0.061076
    H   H19   0.426573  0.998982  0.784008  0.029889
    H   H20   0.559665  0.954304  0.222638  0.061057
    C   C41   0.343483  0.475484  0.114473  -0.242950
    C   C42   0.659434  0.474334  0.882932  -0.251175
    C   C43   0.843483  0.975484  0.114473  -0.242912
    C   C44   0.159434  0.974334  0.882932  -0.251236
    C   C45   0.366088  0.501572  0.134410  0.127460
    C   C46   0.636938  0.501173  0.863750  0.137616
    C   C47   0.866088  0.001572  0.134410  0.127311
    C   C48   0.136938  0.001173  0.863750  0.137672
    C   C49   0.342966  0.526035  0.200206  -0.337662
    C   C50   0.660109  0.526757  0.799305  -0.338834
    C   C51   0.842966  0.026035  0.200206  -0.337631
    C   C52   0.160109  0.026757  0.799305  -0.338893
    C   C53   0.297250  0.525417  0.245031  0.235937
    C   C54   0.705816  0.526416  0.754999  0.199700
    C   C55   0.797250  0.025417  0.245031  0.235995
    C   C56   0.205816  0.026416  0.754999  0.199826
    C   C57   0.274404  0.498581  0.226320  0.054119
    C   C58   0.728588  0.498696  0.772691  0.084263
    C   C59   0.774404  0.998581  0.226320  0.054106
    C   C60   0.228588  0.998696  0.772691  0.084187
    C   C61   0.297335  0.472875  0.161155  -0.030721
    C   C62   0.705583  0.471951  0.836567  -0.035721
    C   C63   0.797335  0.972875  0.161155  -0.030711
    C   C64   0.205583  0.971951  0.836567  -0.035685
    C   C65   0.274398  0.551812  0.308843  -0.261033
    C   C66   0.728733  0.553992  0.692772  -0.180195
    C   C67   0.774398  0.051812  0.308843  -0.261088
    C   C68   0.228733  0.053992  0.692772  -0.180370
    C   C69   0.228731  0.551950  0.353745  -0.186813
    C   C70   0.774390  0.554276  0.648267  -0.335155
    C   C71   0.728731  0.051950  0.353745  -0.186805
    C   C72   0.274390  0.054276  0.648267  -0.335054
    C   C73   0.205772  0.524813  0.336027  0.241853
    C   C74   0.797296  0.526052  0.664597  0.389400
    C   C75   0.705772  0.024813  0.336027  0.241881
    C   C76   0.297296  0.026052  0.664597  0.389380
    C   C77   0.228597  0.497669  0.273086  -0.124065
    C   C78   0.774394  0.497905  0.726155  -0.179926
    C   C79   0.728597  0.997669  0.273086  -0.124091
    C   C80   0.274394  0.997905  0.726155  -0.179884
    C   C81   0.205488  0.469578  0.257171  0.298072
    C   C82   0.797414  0.468865  0.740830  0.318981
    C   C83   0.705488  0.969578  0.257171  0.298081
    C   C84   0.297414  0.968865  0.740830  0.318964
    C   C85   0.227869  0.443123  0.193579  -0.386761
    C   C86   0.774972  0.441510  0.803254  -0.392627
    C   C87   0.727869  0.943123  0.193579  -0.386749
    C   C88   0.274972  0.941510  0.803254  -0.392620
    C   C89   0.273889  0.445021  0.143883  0.146247
    C   C90   0.728955  0.443329  0.852903  0.153793
    C   C91   0.773889  0.945021  0.143883  0.146240
    C   C92   0.228955  0.943329  0.852903  0.153800
    C   C93   0.159962  0.524954  0.381189  -0.294817
    C   C94   0.843115  0.526003  0.619299  -0.461536
    C   C95   0.659962  0.024954  0.381189  -0.294839
    C   C96   0.343115  0.026003  0.619299  -0.461563
    C   C97   0.136846  0.496273  0.365921  0.076785
    C   C98   0.866136  0.496156  0.632999  0.158661
    C   C99   0.636846  0.996273  0.365921  0.076803
    C   C100  0.366136  0.996156  0.632999  0.158685
    C   C101  0.159675  0.467986  0.304718  -0.350031
    C   C102  0.843200  0.467139  0.693124  -0.366981
    C   C103  0.659675  0.967986  0.304718  -0.350042
    C   C104  0.343200  0.967139  0.693124  -0.366992
    H   H21   0.363109  0.456283  0.063184  0.137887
    H   H22   0.639702  0.454389  0.933293  0.135840
    H   H23   0.863109  0.956283  0.063184  0.137895
    H   H24   0.139702  0.954389  0.933293  0.135861
    H   H25   0.360659  0.546783  0.215485  0.159309
    H   H26   0.642427  0.548165  0.784855  0.158185
    H   H27   0.860659  0.046783  0.215485  0.159290
    H   H28   0.142427  0.048165  0.784855  0.158189
    H   H29   0.292189  0.572910  0.323472  0.151688
    H   H30   0.710999  0.575866  0.679063  0.136435
    H   H31   0.792189  0.072910  0.323472  0.151705
    H   H32   0.210999  0.075866  0.679063  0.136501
    H   H33   0.211092  0.573090  0.403186  0.120149
    H   H34   0.792038  0.576337  0.600135  0.168723
    H   H35   0.711092  0.073090  0.403186  0.120153
    H   H36   0.292038  0.076337  0.600135  0.168695
    H   H37   0.142142  0.546688  0.429824  0.147223
    H   H38   0.860953  0.548407  0.571613  0.207000
    H   H39   0.642142  0.046688  0.429824  0.147219
    H   H40   0.360952  0.048407  0.571613  0.207001
    H   H41   0.141451  0.445911  0.292329  0.173305
    H   H42   0.861299  0.444203  0.704494  0.172493
    H   H43   0.641451  0.945911  0.292329  0.173310
    H   H44   0.361299  0.944203  0.704494  0.172503
    H   H45   0.208044  0.421472  0.184405  0.162811
    H   H46   0.794733  0.419178  0.811531  0.163085
    H   H47   0.708044  0.921472  0.184405  0.162805
    H   H48   0.294733  0.919178  0.811531  0.163081
    O   O17   0.960527  0.434118  0.037315  -0.690311
    O   O18   0.036970  0.436950  0.971652  -0.711696
    O   O19   0.460527  0.934118  0.037315  -0.690282
    O   O20   0.536970  0.936950  0.971652  -0.711723
    C   C105  0.999401  0.414987  0.004747  0.751885
    C   C106  0.499401  0.914987  0.004747  0.751876
    O   O21   0.961313  0.497222  0.943094  -0.697278
    O   O22   0.033891  0.506074  0.062377  -0.658609
    O   O23   0.461313  0.997222  0.943094  -0.697316
    O   O24   0.533891  0.006074  0.062377  -0.658621
    O   O25   0.037755  0.501571  0.873430  -0.709325
    O   O26   0.957514  0.500990  0.132184  -0.707993
    O   O27   0.537755  0.001571  0.873430  -0.709357
    O   O28   0.457514  0.000990  0.132184  -0.708008
    C   C107  0.000571  0.498670  0.878488  0.534776
    C   C108  0.994815  0.504044  0.127044  0.479731
    C   C109  0.500571  0.998670  0.878488  0.534900
    C   C110  0.494815  0.004044  0.127044  0.479748
    Zn  Zn5   0.947451  0.499901  0.048767  1.322171
    Zn  Zn6   0.047787  0.503152  0.956749  1.307081
    Zn  Zn7   0.447451  0.999901  0.048767  1.322188
    Zn  Zn8   0.547787  0.003152  0.956749  1.307112
    O   O29   0.958294  0.566070  0.034081  -0.682010
    O   O30   0.034591  0.568951  0.967460  -0.672590
    O   O31   0.458294  0.066070  0.034081  -0.682031
    O   O32   0.534591  0.068951  0.967460  -0.672608
    C   C111  0.995690  0.588312  0.000582  0.662887
    C   C112  0.495690  0.088312  0.000582  0.662877
    O   O33   0.499498  0.436101  0.051576  -0.724829
    O   O34   0.503021  0.436901  0.940838  -0.702086
    O   O35   0.999498  0.936101  0.051576  -0.724816
    O   O36   0.003021  0.936901  0.940838  -0.702092
    C   C113  0.501099  0.415875  0.996015  0.695058
    C   C114  0.001099  0.915875  0.996015  0.694787
    O   O37   0.435511  0.504099  0.119430  -0.676708
    O   O38   0.567597  0.502776  0.878398  -0.681164
    O   O39   0.935511  0.004099  0.119430  -0.676704
    O   O40   0.067597  0.002776  0.878398  -0.681182
    O   O41   0.435242  0.501289  0.012407  -0.712612
    O   O42   0.567848  0.501727  0.985512  -0.711897
    O   O43   0.935242  0.001289  0.012407  -0.712613
    O   O44   0.067848  0.001727  0.985512  -0.711901
    C   C115  0.414656  0.502580  0.086356  0.698684
    C   C116  0.588417  0.502093  0.911568  0.704045
    C   C117  0.914656  0.002580  0.086356  0.698828
    C   C118  0.088417  0.002093  0.911568  0.704069
    Zn  Zn9   0.501908  0.501687  0.068960  1.318070
    Zn  Zn10  0.501155  0.503254  0.928935  1.316320
    Zn  Zn11  0.001908  0.001687  0.068960  1.318059
    Zn  Zn12  0.001155  0.003254  0.928935  1.316363
    O   O45   0.502031  0.568081  0.055100  -0.695552
    O   O46   0.501607  0.568874  0.948240  -0.710849
    O   O47   0.002031  0.068081  0.055100  -0.695552
    O   O48   0.001607  0.068874  0.948240  -0.710860
    C   C119  0.501915  0.589186  0.001883  0.656402
    C   C120  0.001915  0.089186  0.001883  0.656365
    C   C121  0.521241  0.660458  0.031384  -0.439053
    C   C122  0.482222  0.660360  0.973750  -0.435110
    C   C123  0.021241  0.160458  0.031384  -0.439015
    C   C124  0.982222  0.160360  0.973750  -0.435055
    C   C125  0.501800  0.637692  0.002456  0.249561
    C   C126  0.001800  0.137692  0.002456  0.249563
    C   C127  0.481337  0.706369  0.974148  0.260187
    C   C128  0.521864  0.706544  0.031165  0.264876
    C   C129  0.981337  0.206369  0.974148  0.260111
    C   C130  0.021864  0.206544  0.031165  0.264811
    C   C131  0.501545  0.729390  0.002673  -0.096852
    C   C132  0.001545  0.229390  0.002673  -0.096804
    C   C133  0.459742  0.729340  0.947649  -0.224084
    C   C134  0.543150  0.729815  0.058001  -0.221262
    C   C135  0.959742  0.229340  0.947649  -0.224016
    C   C136  0.043150  0.229815  0.058001  -0.221213
    C   C137  0.952901  0.274785  0.960872  -0.129260
    C   C138  0.049558  0.275386  0.045207  -0.139484
    C   C139  0.452901  0.774785  0.960872  -0.129244
    C   C140  0.549558  0.775386  0.045207  -0.139460
    C   C141  0.976454  0.297946  0.983199  0.218203
    C   C142  0.025996  0.298325  0.022643  0.201739
    C   C143  0.476454  0.797946  0.983199  0.218213
    C   C144  0.525996  0.798325  0.022643  0.201741
    C   C145  0.001369  0.275196  0.002783  -0.092137
    C   C146  0.501369  0.775196  0.002783  -0.092137
    C   C147  0.976106  0.343909  0.984700  -0.323639
    C   C148  0.025813  0.344390  0.021563  -0.300860
    C   C149  0.476106  0.843909  0.984700  -0.323657
    C   C150  0.525813  0.844390  0.021563  -0.300883
    C   C151  0.000743  0.366698  0.003326  0.068993
    C   C152  0.500743  0.866698  0.003326  0.069027
    H   H49   0.537468  0.640961  0.050659  0.209012
    H   H50   0.466022  0.640804  0.954514  0.209625
    H   H51   0.037468  0.140961  0.050659  0.209003
    H   H52   0.966022  0.140804  0.954514  0.209605
    H   H53   0.958939  0.363579  0.967374  0.169220
    H   H54   0.042607  0.364416  0.039216  0.159570
    H   H55   0.458939  0.863579  0.967374  0.169211
    H   H56   0.542607  0.864416  0.039216  0.159569
    C   C153  0.523975  0.344422  0.929420  -0.422580
    C   C154  0.474170  0.345219  0.063661  -0.399683
    C   C155  0.023975  0.844422  0.929420  -0.422789
    C   C156  0.974170  0.845219  0.063661  -0.399876
    C   C157  0.499951  0.367499  0.996315  0.194446
    C   C158  0.999951  0.867499  0.996315  0.194839
    C   C159  0.471416  0.299364  0.064869  0.246669
    C   C160  0.523456  0.298424  0.929357  0.283546
    C   C161  0.971416  0.799364  0.064869  0.246698
    C   C162  0.023456  0.798424  0.929357  0.283592
    C   C163  0.496822  0.275691  0.997489  -0.087952
    C   C164  0.996822  0.775691  0.997489  -0.087997
    C   C165  0.442873  0.276883  0.132444  -0.077081
    C   C166  0.549455  0.274794  0.862128  -0.130787
    C   C167  0.942873  0.776883  0.132444  -0.077044
    C   C168  0.049455  0.774794  0.862128  -0.130765
    C   C169  0.940810  0.731461  0.132102  -0.300707
    C   C170  0.048332  0.729265  0.863753  -0.256974
    C   C171  0.440810  0.231461  0.132102  -0.300691
    C   C172  0.548332  0.229265  0.863753  -0.256946
    C   C173  0.967972  0.707058  0.066131  0.269238
    C   C174  0.021109  0.706016  0.930988  0.222811
    C   C175  0.467972  0.207058  0.066131  0.269261
    C   C176  0.521109  0.206016  0.930988  0.222820
    C   C177  0.995506  0.729507  0.998251  -0.123846
    C   C178  0.495506  0.229507  0.998251  -0.123884
    C   C179  0.967960  0.660694  0.067679  -0.288653
    C   C180  0.019097  0.659730  0.931272  -0.224294
    C   C181  0.467960  0.160694  0.067679  -0.288663
    C   C182  0.519097  0.159730  0.931272  -0.224317
    C   C183  0.994082  0.637126  0.999979  0.112179
    C   C184  0.494082  0.137126  0.999979  0.112216
    H   H57   0.543899  0.363467  0.878087  0.196070
    H   H58   0.455317  0.364907  0.114437  0.193474
    H   H59   0.043899  0.863467  0.878087  0.196143
    H   H60   0.955317  0.864907  0.114437  0.193538
    H   H61   0.917174  0.715973  0.185629  0.134871
    H   H62   0.069785  0.712580  0.810423  0.135854
    H   H63   0.417174  0.215973  0.185629  0.134862
    H   H64   0.569785  0.212580  0.810423  0.135848
    C   C185  0.298480  0.416923  0.073167  0.010597
    C   C186  0.268614  0.391222  0.060293  -0.059446
    C   C187  0.267992  0.347143  0.062247  -0.441644
    H   H65   0.320433  0.393606  0.076992  0.056267
    H   H66   0.319060  0.438625  0.023002  0.035983
    H   H67   0.247597  0.408657  0.048056  0.098366
    H   H68   0.288770  0.328844  0.074039  0.173580
    H   H69   0.246269  0.329205  0.052217  0.161391
    C   C188  0.704296  0.414332  0.922510  0.003750
    C   C189  0.734117  0.388149  0.934900  -0.054014
    C   C190  0.734903  0.344101  0.931573  -0.453441
    H   H70   0.682587  0.391324  0.917497  0.059474
    H   H71   0.683465  0.435427  0.973430  0.037537
    H   H72   0.754967  0.405195  0.947909  0.099289
    H   H73   0.714290  0.326186  0.918991  0.177460
    H   H74   0.756590  0.325803  0.941276  0.164360
    C   C191  0.798480  0.916923  0.073167  0.010554
    C   C192  0.768614  0.891222  0.060294  -0.059393
    C   C193  0.767992  0.847143  0.062247  -0.441676
    H   H75   0.820433  0.893606  0.076992  0.056275
    H   H76   0.819060  0.938625  0.023002  0.035987
    H   H77   0.747597  0.908657  0.048056  0.098353
    H   H78   0.788770  0.828844  0.074039  0.173586
    H   H79   0.746269  0.829205  0.052217  0.161400
    C   C194  0.204296  0.914332  0.922510  0.003716
    C   C195  0.234117  0.888149  0.934900  -0.053982
    C   C196  0.234903  0.844101  0.931573  -0.453461
    H   H80   0.182587  0.891324  0.917497  0.059481
    H   H81   0.183465  0.935427  0.973430  0.037540
    H   H82   0.254967  0.905195  0.947909  0.099283
    H   H83   0.214290  0.826186  0.918991  0.177465
    H   H84   0.256590  0.825803  0.941276  0.164364
    C   C197  0.445619  0.705356  0.902881  0.279730
    C   C198  0.485259  0.686290  0.832013  -0.113202
    C   C199  0.480050  0.661940  0.786159  -0.456745
    H   H85   0.429958  0.726914  0.883214  0.003609
    H   H86   0.421118  0.679113  0.937925  -0.018571
    H   H87   0.518368  0.692575  0.817261  0.120571
    H   H88   0.447082  0.655660  0.800269  0.167834
    H   H89   0.508826  0.648294  0.734565  0.166682
    C   C200  0.557222  0.705987  0.102955  0.274099
    C   C201  0.517590  0.686684  0.173552  -0.116601
    C   C202  0.522770  0.662397  0.219500  -0.453688
    H   H90   0.572607  0.727670  0.122975  0.006503
    H   H91   0.581914  0.679884  0.067913  -0.016943
    H   H92   0.484504  0.692753  0.188050  0.120881
    H   H93   0.555711  0.656335  0.205657  0.167355
    H   H94   0.493997  0.648583  0.270906  0.166169
    C   C203  0.945619  0.205356  0.902881  0.279687
    C   C204  0.985259  0.186290  0.832013  -0.113202
    C   C205  0.980050  0.161940  0.786159  -0.456714
    H   H95   0.929958  0.226914  0.883214  0.003630
    H   H96   0.921118  0.179113  0.937925  -0.018567
    H   H97   0.018368  0.192575  0.817261  0.120561
    H   H98   0.947082  0.155660  0.800269  0.167829
    H   H99   0.008826  0.148294  0.734565  0.166670
    C   C206  0.057222  0.205987  0.102955  0.274089
    C   C207  0.017590  0.186684  0.173552  -0.116622
    C   C208  0.022770  0.162397  0.219500  -0.453653
    H   H100  0.072607  0.227670  0.122975  0.006505
    H   H101  0.081914  0.179884  0.067913  -0.016944
    H   H102  0.984504  0.192753  0.188050  0.120876
    H   H103  0.055710  0.156335  0.205657  0.167355
    H   H104  0.993997  0.148583  0.270906  0.166157
    C   C209  0.918638  0.298249  0.955382  0.074590
    C   C210  0.939675  0.317839  0.878277  0.022414
    C   C211  0.915239  0.340405  0.861673  -0.456108
    H   H105  0.901359  0.324218  0.999460  0.032020
    H   H106  0.891382  0.275575  0.968717  0.023684
    H   H107  0.974972  0.313715  0.835792  0.071457
    H   H108  0.879946  0.344640  0.904053  0.174320
    H   H109  0.930644  0.354678  0.805681  0.158212
    C   C212  0.083043  0.299408  0.052103  0.098817
    C   C213  0.060986  0.319048  0.129414  0.018673
    C   C214  0.084359  0.342961  0.146773  -0.484834
    H   H110  0.100284  0.325466  0.008185  0.027507
    H   H111  0.110464  0.277228  0.039511  0.018636
    H   H112  0.025741  0.314068  0.171315  0.078666
    H   H113  0.119575  0.348153  0.104933  0.183230
    H   H114  0.068149  0.357407  0.202818  0.167587
    C   C215  0.418638  0.798249  0.955382  0.074634
    C   C216  0.439675  0.817839  0.878277  0.022392
    C   C217  0.415239  0.840405  0.861673  -0.456003
    H   H115  0.401359  0.824218  0.999460  0.031998
    H   H116  0.391382  0.775575  0.968717  0.023677
    H   H117  0.474972  0.813715  0.835792  0.071453
    H   H118  0.379946  0.844640  0.904053  0.174286
    H   H119  0.430644  0.854678  0.805681  0.158173
    C   C218  0.583043  0.799408  0.052103  0.098809
    C   C219  0.560986  0.819048  0.129414  0.018675
    C   C220  0.584359  0.842961  0.146773  -0.484825
    H   H120  0.600284  0.825466  0.008185  0.027509
    H   H121  0.610464  0.777228  0.039511  0.018639
    H   H122  0.525741  0.814068  0.171315  0.078663
    H   H123  0.619575  0.848153  0.104933  0.183227
    H   H124  0.568149  0.857407  0.202818  0.167579
    C   C221  0.413165  0.300116  0.207085  0.025217
    C   C222  0.439779  0.317613  0.234120  0.030608
    C   C223  0.419905  0.339768  0.299146  -0.513979
    H   H125  0.388219  0.276838  0.250613  0.054376
    H   H126  0.394399  0.327082  0.202349  0.033930
    H   H127  0.475339  0.312216  0.200847  0.081653
    H   H128  0.384350  0.345220  0.332613  0.188394
    H   H129  0.439282  0.352433  0.318728  0.174209
    C   C224  0.579549  0.296839  0.786478  0.067013
    C   C225  0.552902  0.317496  0.761796  0.024195
    C   C226  0.573135  0.339215  0.696314  -0.509557
    H   H130  0.602116  0.272220  0.742927  0.040780
    H   H131  0.600886  0.321798  0.788758  0.026661
    H   H132  0.517021  0.314755  0.797143  0.082028
    H   H133  0.609008  0.342016  0.660769  0.186631
    H   H134  0.553732  0.354178  0.678439  0.171759
    C   C227  0.913165  0.800116  0.207085  0.025204
    C   C228  0.939779  0.817613  0.234120  0.030586
    C   C229  0.919905  0.839768  0.299146  -0.513969
    H   H135  0.888219  0.776838  0.250613  0.054381
    H   H136  0.894399  0.827082  0.202349  0.033930
    H   H137  0.975339  0.812216  0.200847  0.081658
    H   H138  0.884350  0.845220  0.332613  0.188394
    H   H139  0.939282  0.852433  0.318728  0.174206
    C   C230  0.079549  0.796839  0.786478  0.067026
    C   C231  0.052902  0.817496  0.761796  0.024171
    C   C232  0.073135  0.839215  0.696314  -0.509549
    H   H140  0.102116  0.772220  0.742927  0.040779
    H   H141  0.100886  0.821798  0.788758  0.026653
    H   H142  0.017021  0.814755  0.797143  0.082038
    H   H143  0.109008  0.842016  0.660769  0.186631
    H   H144  0.053732  0.854178  0.678439  0.171758
    C   C233  0.938912  0.636139  0.141701  -0.000077
    C   C234  0.892828  0.634383  0.161244  0.064779
    C   C235  0.860976  0.612172  0.221574  -0.569828
    H   H145  0.939509  0.651665  0.187726  0.066066
    H   H146  0.950634  0.602237  0.139938  0.115800
    H   H147  0.885407  0.651020  0.125074  0.089989
    H   H148  0.868027  0.594847  0.257443  0.219593
    H   H149  0.827826  0.611084  0.234520  0.175251
    C   C236  0.040944  0.634300  0.857730  -0.009690
    C   C237  0.089352  0.628908  0.822903  0.074463
    C   C238  0.115775  0.611990  0.753643  -0.523089
    H   H150  0.035649  0.651495  0.818007  0.047206
    H   H151  0.026026  0.601266  0.864688  0.109182
    H   H152  0.103063  0.639321  0.853721  0.076750
    H   H153  0.102223  0.602290  0.722263  0.188267
    H   H154  0.150971  0.608259  0.728211  0.166561
    C   C239  0.438912  0.136139  0.141701  -0.000147
    C   C240  0.392828  0.134383  0.161244  0.064871
    C   C241  0.360976  0.112172  0.221574  -0.569898
    H   H155  0.439509  0.151665  0.187726  0.066085
    H   H156  0.450634  0.102237  0.139938  0.115824
    H   H157  0.385407  0.151020  0.125074  0.089965
    H   H158  0.368027  0.094847  0.257443  0.219600
    H   H159  0.327826  0.111084  0.234520  0.175280
    C   C242  0.540944  0.134300  0.857730  -0.009672
    C   C243  0.589352  0.128908  0.822903  0.074461
    C   C244  0.615775  0.111990  0.753643  -0.523088
    H   H160  0.535649  0.151495  0.818007  0.047199
    H   H161  0.526026  0.101266  0.864688  0.109181
    H   H162  0.603063  0.139321  0.853720  0.076748
    H   H163  0.602223  0.102290  0.722263  0.188268
    H   H164  0.650971  0.108259  0.728211  0.166561
    C   C245  0.091072  0.492963  0.702071  0.023307
    C   C246  0.121320  0.494042  0.617544  -0.059603
    C   C247  0.165039  0.494119  0.582948  -0.483151
    H   H165  0.096564  0.461924  0.723170  0.033396
    H   H166  0.098262  0.521738  0.725272  0.062961
    H   H167  0.107948  0.494986  0.583863  0.108958
    H   H168  0.178793  0.493315  0.616038  0.181716
    H   H169  0.186968  0.495088  0.521524  0.166727
    C   C248  0.922879  0.552717  0.296728  0.263986
    C   C249  0.900821  0.566324  0.377505  -0.119062
    C   C250  0.865734  0.592993  0.410821  -0.473720
    H   H170  0.899153  0.533866  0.290771  -0.011894
    H   H171  0.934271  0.582684  0.260708  -0.027659
    H   H172  0.913484  0.554953  0.409490  0.119704
    H   H173  0.852634  0.604997  0.379925  0.176615
    H   H174  0.850272  0.603024  0.469202  0.163476
    C   C251  0.591072  0.992963  0.702071  0.023275
    C   C252  0.621320  0.994042  0.617544  -0.059600
    C   C253  0.665039  0.994119  0.582948  -0.483159
    H   H175  0.596564  0.961924  0.723170  0.033404
    H   H176  0.598262  0.021738  0.725272  0.062964
    H   H177  0.607948  0.994986  0.583863  0.108962
    H   H178  0.678793  0.993315  0.616038  0.181719
    H   H179  0.686968  0.995088  0.521524  0.166729
    C   C254  0.422879  0.052717  0.296728  0.263978
    C   C255  0.400821  0.066324  0.377505  -0.119039
    C   C256  0.365734  0.092993  0.410821  -0.473750
    H   H180  0.399153  0.033866  0.290771  -0.011885
    H   H181  0.434271  0.082684  0.260708  -0.027670
    H   H182  0.413484  0.054953  0.409490  0.119699
    H   H183  0.352634  0.104997  0.379925  0.176623
    H   H184  0.350272  0.103024  0.469202  0.163488
