# Generated by REPEAT Assigner based on pymatgen
data_DB0-m2_o38_o39_f0_fof.sym.15
_audit_creation_date              2022-05-24
_audit_creation_method            REPEAT_Assigner
_cell_length_a                    27.665069
_cell_length_b                    18.854146
_cell_length_c                    16.628166
_cell_angle_alpha                 90.000000
_cell_angle_beta                  62.713240
_cell_angle_gamma                 90.000000
_cell_volume                      7708.138177
_symmetry_space_group_name_H-M    P1
_symmetry_Int_Tables_number       1
loop_
    _symmetry_equiv_pos_site_id
    _symmetry_equiv_pos_as_xyz
    1  x,y,z
loop_
    _atom_site_type_symbol
    _atom_site_label
    _atom_site_fract_x
    _atom_site_fract_y
    _atom_site_fract_z
    _atom_type_partial_charge
    O   O1    0.244020  0.865230  0.505058  -0.411059
    O   O2    0.734324  0.134486  0.551221  -0.479312
    O   O3    0.752673  0.865489  0.493817  -0.440635
    O   O4    0.260367  0.133885  0.456282  -0.451294
    O   O5    0.744020  0.365230  0.505058  -0.411059
    O   O6    0.234324  0.634486  0.551221  -0.479298
    O   O7    0.252673  0.365489  0.493817  -0.440637
    O   O8    0.760367  0.633885  0.456282  -0.451305
    O   O9    0.171757  0.776490  0.632628  -0.541422
    O   O10   0.803697  0.184691  0.384127  -0.491630
    O   O11   0.824912  0.773895  0.370978  -0.524047
    O   O12   0.190035  0.187898  0.620477  -0.510288
    O   O13   0.671757  0.276490  0.632628  -0.541444
    O   O14   0.303697  0.684691  0.384127  -0.491652
    O   O15   0.324912  0.273895  0.370978  -0.524050
    O   O16   0.690035  0.687898  0.620477  -0.510296
    Cu  Cu1   0.204901  0.780560  0.500832  0.909076
    Cu  Cu2   0.785532  0.213353  0.507300  0.923930
    Cu  Cu3   0.790452  0.780893  0.502625  0.905381
    Cu  Cu4   0.209947  0.213713  0.495697  0.929732
    Cu  Cu5   0.704901  0.280560  0.500832  0.909084
    Cu  Cu6   0.285532  0.713353  0.507300  0.923902
    Cu  Cu7   0.290452  0.280893  0.502625  0.905412
    Cu  Cu8   0.709947  0.713713  0.495697  0.929736
    C   C1    0.287610  0.723677  0.335061  0.598580
    C   C2    0.703332  0.271288  0.672746  0.554448
    C   C3    0.706189  0.727595  0.668928  0.598932
    C   C4    0.293989  0.268617  0.329781  0.547339
    C   C5    0.787610  0.223677  0.335061  0.598591
    C   C6    0.203332  0.771288  0.672746  0.554443
    C   C7    0.206189  0.227595  0.668928  0.598913
    C   C8    0.793989  0.768617  0.329781  0.547336
    O   O17   0.250647  0.774355  0.370075  -0.533612
    O   O18   0.754896  0.252476  0.629413  -0.508576
    O   O19   0.743471  0.777684  0.633136  -0.511470
    O   O20   0.242317  0.250052  0.372083  -0.532939
    O   O21   0.750647  0.274355  0.370075  -0.533627
    O   O22   0.254896  0.752476  0.629413  -0.508585
    O   O23   0.243471  0.277684  0.633136  -0.511471
    O   O24   0.742317  0.750052  0.372083  -0.532940
    O   O25   0.178432  0.685064  0.497536  -0.534813
    O   O26   0.824229  0.302906  0.461894  -0.583373
    O   O27   0.815590  0.685425  0.510465  -0.545555
    O   O28   0.171997  0.304263  0.536678  -0.566100
    O   O29   0.678432  0.185064  0.497536  -0.534806
    O   O30   0.324229  0.802906  0.461894  -0.583354
    O   O31   0.315590  0.185425  0.510465  -0.545543
    O   O32   0.671997  0.804263  0.536678  -0.566110
    C   C9    0.194328  0.630091  0.528673  0.561331
    C   C10   0.797082  0.363346  0.476424  0.594364
    C   C11   0.799318  0.629489  0.481308  0.545477
    C   C12   0.199771  0.364303  0.520094  0.584976
    C   C13   0.694328  0.130091  0.528673  0.561350
    C   C14   0.297082  0.863346  0.476424  0.594346
    C   C15   0.299318  0.129489  0.481308  0.545446
    C   C16   0.699771  0.864303  0.520094  0.584973
    C   C17   0.123767  0.432442  0.516862  -0.258525
    C   C18   0.870979  0.556134  0.492210  -0.190905
    C   C19   0.874838  0.430075  0.473876  -0.177025
    C   C20   0.120139  0.559005  0.525514  -0.226322
    C   C21   0.623767  0.932442  0.516862  -0.258523
    C   C22   0.370979  0.056134  0.492210  -0.190927
    C   C23   0.374838  0.930075  0.473876  -0.177023
    C   C24   0.620139  0.059005  0.525514  -0.226323
    H   H1    0.606763  0.883032  0.508561  0.149555
    H   H2    0.388852  0.104200  0.502098  0.135582
    H   H3    0.394625  0.880290  0.472197  0.153370
    H   H4    0.599683  0.107817  0.525483  0.140255
    H   H5    0.106763  0.383032  0.508561  0.149547
    H   H6    0.888852  0.604200  0.502098  0.135585
    H   H7    0.894625  0.380290  0.472197  0.153370
    H   H8    0.099683  0.607817  0.525483  0.140262
    C   C25   0.171316  0.432351  0.525850  0.083428
    C   C26   0.824590  0.559342  0.479780  0.084356
    C   C27   0.825825  0.431095  0.470007  0.015904
    C   C28   0.168546  0.560559  0.531589  0.084901
    C   C29   0.671316  0.932351  0.525850  0.083428
    C   C30   0.324590  0.059342  0.479780  0.084389
    C   C31   0.325825  0.931095  0.470007  0.015922
    C   C32   0.668546  0.060559  0.531589  0.084878
    C   C33   0.193554  0.496824  0.533739  -0.160755
    C   C34   0.801737  0.496068  0.469442  -0.139886
    C   C35   0.693554  0.996824  0.533739  -0.160750
    C   C36   0.301737  0.996068  0.469442  -0.139918
    C   C37   0.097679  0.495484  0.517209  0.343256
    C   C38   0.896966  0.492033  0.487561  0.293789
    C   C39   0.597679  0.995484  0.517209  0.343270
    C   C40   0.396966  0.992033  0.487561  0.293807
    C   C41   0.089758  0.552270  0.362474  -0.134425
    C   C42   0.906783  0.426376  0.636643  -0.117292
    C   C43   0.995282  0.545754  0.347568  -0.127965
    C   C44   0.999106  0.440104  0.656791  -0.093936
    C   C45   0.589758  0.052270  0.362474  -0.134429
    C   C46   0.406783  0.926376  0.636643  -0.117255
    C   C47   0.495282  0.045754  0.347568  -0.127953
    C   C48   0.499106  0.940104  0.656791  -0.093953
    C   C49   0.087840  0.581099  0.287744  -0.099093
    C   C50   0.909774  0.393505  0.708473  0.038715
    C   C51   0.040135  0.578167  0.280408  0.075127
    C   C52   0.954915  0.404807  0.721995  -0.097661
    C   C53   0.587840  0.081099  0.287744  -0.099101
    C   C54   0.409774  0.893505  0.708473  0.038606
    C   C55   0.540135  0.078167  0.280408  0.075125
    C   C56   0.454915  0.904807  0.721995  -0.097633
    C   C57   0.995746  0.520159  0.425698  0.127277
    C   C58   0.999274  0.464485  0.577703  0.144412
    C   C59   0.043848  0.522842  0.433133  0.161803
    C   C60   0.951491  0.460727  0.569460  0.131522
    C   C61   0.495746  0.020159  0.425698  0.127276
    C   C62   0.499274  0.964485  0.577703  0.144435
    C   C63   0.543848  0.022842  0.433133  0.161805
    C   C64   0.451491  0.960727  0.569460  0.131529
    C   C65   0.448832  0.990446  0.494451  -0.214718
    C   C66   0.546088  0.994930  0.509383  -0.236892
    C   C67   0.948832  0.490446  0.494451  -0.214703
    C   C68   0.046088  0.494930  0.509383  -0.236872
    H   H9    0.128637  0.551946  0.362567  0.148863
    H   H10   0.869468  0.421614  0.632025  0.106576
    H   H11   0.959584  0.542700  0.337554  0.128386
    H   H12   0.032955  0.449559  0.670648  0.130200
    H   H13   0.628637  0.051946  0.362567  0.148873
    H   H14   0.369468  0.921614  0.632025  0.106546
    H   H15   0.459584  0.042700  0.337554  0.128385
    H   H16   0.532955  0.949559  0.670648  0.130193
    H   H17   0.215308  0.670265  0.935001  0.137822
    H   H18   0.797026  0.346593  0.052790  0.135303
    H   H19   0.837904  0.704739  0.966616  0.164019
    H   H20   0.160254  0.307090  0.034591  0.156899
    H   H21   0.715308  0.170265  0.935001  0.137824
    H   H22   0.297026  0.846593  0.052790  0.135321
    H   H23   0.337904  0.204739  0.966616  0.164016
    H   H24   0.660254  0.807090  0.034591  0.156900
    C   C69   0.228807  0.779649  0.945491  0.063478
    C   C70   0.782702  0.237664  0.042751  0.083788
    C   C71   0.775701  0.775855  0.049860  0.004414
    C   C72   0.222515  0.235990  0.951372  -0.010046
    C   C73   0.728807  0.279649  0.945491  0.063518
    C   C74   0.282702  0.737664  0.042751  0.083812
    C   C75   0.275701  0.275855  0.049860  0.004409
    C   C76   0.722515  0.735990  0.951372  -0.010066
    C   C77   0.252801  0.830502  0.976862  0.114410
    C   C78   0.761023  0.186709  0.007743  0.058257
    C   C79   0.725302  0.805202  0.070466  0.102500
    C   C80   0.272937  0.206796  0.930752  0.118200
    C   C81   0.752801  0.330502  0.976862  0.114417
    C   C82   0.261023  0.686709  0.007743  0.058225
    C   C83   0.225302  0.305202  0.070466  0.102488
    C   C84   0.772937  0.706796  0.930752  0.118238
    C   C85   0.278221  0.808540  0.027316  -0.190235
    C   C86   0.734380  0.208737  0.959477  -0.163203
    C   C87   0.699173  0.784483  0.020827  -0.121636
    C   C88   0.299103  0.227632  0.980177  -0.143540
    C   C89   0.778221  0.308540  0.027316  -0.190221
    C   C90   0.234380  0.708737  0.959477  -0.163163
    C   C91   0.199173  0.284483  0.020827  -0.121626
    C   C92   0.799103  0.727632  0.980177  -0.143557
    C   C93   0.148760  0.837802  0.944589  -0.019069
    C   C94   0.861291  0.184340  0.052396  -0.224469
    C   C95   0.851911  0.835441  0.057794  -0.171018
    C   C96   0.146114  0.174355  0.946152  -0.099659
    C   C97   0.648760  0.337802  0.944589  -0.019073
    C   C98   0.361291  0.684340  0.052396  -0.224477
    C   C99   0.351911  0.335441  0.057794  -0.171023
    C   C100  0.646114  0.674355  0.946152  -0.099668
    C   C101  0.119531  0.857508  0.898386  0.040146
    C   C102  0.882709  0.153998  0.105138  0.013152
    C   C103  0.879738  0.855941  0.105704  0.094801
    C   C104  0.119458  0.149656  0.898268  0.042058
    C   C105  0.619531  0.357508  0.898386  0.040181
    C   C106  0.382709  0.653998  0.105138  0.013178
    C   C107  0.379738  0.355940  0.105704  0.094793
    C   C108  0.619458  0.649656  0.898268  0.042064
    C   C109  0.136378  0.833369  0.810612  -0.140106
    C   C110  0.858255  0.167379  0.197256  -0.077407
    C   C111  0.862111  0.831118  0.193395  -0.136410
    C   C112  0.138715  0.169214  0.808347  -0.027794
    C   C113  0.636378  0.333369  0.810612  -0.140122
    C   C114  0.358255  0.667379  0.197256  -0.077428
    C   C115  0.362111  0.331118  0.193395  -0.136394
    C   C116  0.638715  0.669214  0.808347  -0.027782
    H   H25   0.114837  0.849139  0.773362  0.160651
    H   H26   0.875238  0.144839  0.238413  0.131724
    H   H27   0.882781  0.847227  0.231935  0.142796
    H   H28   0.118775  0.150040  0.769983  0.118573
    H   H29   0.614837  0.349139  0.773362  0.160664
    H   H30   0.375238  0.644839  0.238413  0.131742
    H   H31   0.382781  0.347227  0.231934  0.142796
    H   H32   0.618775  0.650040  0.769983  0.118568
    C   C117  0.181953  0.791048  0.768482  0.001896
    C   C118  0.812288  0.209423  0.237326  -0.038601
    C   C119  0.816276  0.788750  0.234119  0.060148
    C   C120  0.184013  0.212133  0.765951  -0.042592
    C   C121  0.681953  0.291048  0.768482  0.001891
    C   C122  0.312288  0.709423  0.237326  -0.038562
    C   C123  0.316276  0.288750  0.234119  0.060133
    C   C124  0.684013  0.712133  0.765951  -0.042614
    C   C125  0.210963  0.772942  0.814290  -0.045902
    C   C126  0.788277  0.233504  0.185758  -0.054776
    C   C127  0.787917  0.771287  0.186944  -0.144589
    C   C128  0.210697  0.235286  0.813656  -0.097065
    C   C129  0.710963  0.272942  0.814290  -0.045899
    C   C130  0.288277  0.733504  0.185758  -0.054810
    C   C131  0.287917  0.271287  0.186944  -0.144572
    C   C132  0.710697  0.735286  0.813656  -0.097065
    H   H33   0.247149  0.740710  0.782046  0.108540
    H   H34   0.750190  0.262050  0.216930  0.114870
    H   H35   0.751528  0.739258  0.217592  0.119253
    H   H36   0.247237  0.266870  0.781184  0.116638
    H   H37   0.747149  0.240710  0.782046  0.108543
    H   H38   0.250190  0.762050  0.216930  0.114878
    H   H39   0.251528  0.239258  0.217592  0.119254
    H   H40   0.747237  0.766870  0.781184  0.116639
    C   C133  0.195407  0.797477  0.900724  0.049181
    C   C134  0.811657  0.218610  0.094265  0.146727
    C   C135  0.805768  0.794476  0.099489  0.155800
    C   C136  0.192192  0.215545  0.902777  0.117503
    C   C137  0.695407  0.297477  0.900724  0.049178
    C   C138  0.311657  0.718610  0.094265  0.146722
    C   C139  0.305768  0.294476  0.099489  0.155788
    C   C140  0.692192  0.715545  0.902777  0.117523
    O   O33   0.054158  0.933137  0.884795  -0.489666
    O   O34   0.945713  0.075145  0.120151  -0.503681
    O   O35   0.943214  0.934182  0.121567  -0.486212
    O   O36   0.054306  0.073782  0.885215  -0.474991
    O   O37   0.554158  0.433137  0.884795  -0.489637
    O   O38   0.445713  0.575145  0.120151  -0.503671
    O   O39   0.443214  0.434182  0.121567  -0.486202
    O   O40   0.554306  0.573782  0.885215  -0.474952
    Cu  Cu9   0.496110  0.503607  0.925401  0.886355
    Cu  Cu10  0.502463  0.502942  0.080615  0.893508
    Cu  Cu11  0.996110  0.003607  0.925401  0.886270
    Cu  Cu12  0.002463  0.002942  0.080615  0.893545
    C   C141  0.924387  0.908087  0.068279  0.469586
    C   C142  0.074389  0.098240  0.937460  0.482896
    C   C143  0.073338  0.907144  0.937646  0.478496
    C   C144  0.926915  0.101593  0.067084  0.556223
    C   C145  0.424387  0.408087  0.068279  0.469590
    C   C146  0.574389  0.598240  0.937460  0.482890
    C   C147  0.573338  0.407144  0.937646  0.478478
    C   C148  0.426915  0.601593  0.067084  0.556207
    O   O41   0.942110  0.929253  0.984412  -0.425047
    O   O42   0.057652  0.075916  0.020833  -0.411109
    O   O43   0.055114  0.927073  0.022024  -0.448663
    O   O44   0.942406  0.078330  0.984493  -0.465050
    O   O45   0.442110  0.429253  0.984412  -0.425032
    O   O46   0.557652  0.575916  0.020833  -0.411102
    O   O47   0.555114  0.427073  0.022024  -0.448661
    O   O48   0.442406  0.578330  0.984493  -0.465027
    N   N1    0.242173  0.497490  0.543406  0.571229
    O   O49   0.288655  0.510548  0.473572  -0.333479
    O   O50   0.240952  0.476499  0.618834  -0.337550
    N   N2    0.753489  0.497514  0.458611  0.566357
    O   O51   0.706777  0.510325  0.528070  -0.342890
    O   O52   0.755087  0.476107  0.383058  -0.344641
    N   N3    0.742173  0.997490  0.543406  0.571233
    O   O53   0.788655  0.010548  0.473572  -0.333480
    O   O54   0.740952  0.976499  0.618834  -0.337554
    N   N4    0.253489  0.997514  0.458611  0.566363
    O   O55   0.206777  0.010325  0.528070  -0.342887
    O   O56   0.255087  0.976107  0.383058  -0.344636
    N   N5    0.136313  0.609632  0.216679  0.599824
    O   O57   0.172674  0.638256  0.235515  -0.368548
    O   O58   0.148319  0.596464  0.132858  -0.278398
    N   N6    0.868110  0.344405  0.762887  0.525679
    O   O59   0.824783  0.339437  0.751621  -0.317336
    O   O60   0.879631  0.292146  0.802198  -0.333637
    N   N7    0.035492  0.610834  0.206646  0.517884
    O   O61   0.000897  0.586010  0.181001  -0.364041
    O   O62   0.056581  0.673182  0.178485  -0.305891
    N   N8    0.955703  0.384155  0.804123  0.671220
    O   O63   0.001914  0.371787  0.804235  -0.374350
    O   O64   0.912327  0.392436  0.881018  -0.351313
    N   N9    0.636313  0.109632  0.216679  0.599858
    O   O65   0.672674  0.138256  0.235515  -0.368586
    O   O66   0.648319  0.096464  0.132858  -0.278407
    N   N10   0.368110  0.844405  0.762887  0.525797
    O   O67   0.324783  0.839437  0.751621  -0.317334
    O   O68   0.379631  0.792146  0.802198  -0.333676
    N   N11   0.535492  0.110834  0.206646  0.517886
    O   O69   0.500897  0.086010  0.181001  -0.364043
    O   O70   0.556581  0.173182  0.178485  -0.305896
    N   N12   0.455703  0.884155  0.804123  0.671242
    O   O71   0.501914  0.871787  0.804235  -0.374347
    O   O72   0.412327  0.892436  0.881018  -0.351340
    N   N13   0.253323  0.904606  0.956837  0.519614
    O   O73   0.247740  0.926181  0.887286  -0.314621
    O   O74   0.266175  0.950701  0.002004  -0.311733
    N   N14   0.765439  0.111962  0.019578  0.505041
    O   O75   0.770696  0.087152  0.088111  -0.269088
    O   O76   0.758918  0.067489  0.965560  -0.302743
    N   N15   0.700162  0.857222  0.140276  0.538546
    O   O77   0.648054  0.867973  0.174548  -0.367374
    O   O78   0.729425  0.901800  0.159062  -0.334442
    N   N16   0.297893  0.154321  0.861542  0.536611
    O   O79   0.268501  0.107675  0.846130  -0.346487
    O   O80   0.350219  0.144914  0.825451  -0.364356
    N   N17   0.753323  0.404606  0.956837  0.519597
    O   O81   0.747740  0.426181  0.887286  -0.314621
    O   O82   0.766175  0.450701  0.002004  -0.311721
    N   N18   0.265439  0.611962  0.019578  0.505032
    O   O83   0.270696  0.587152  0.088111  -0.269094
    O   O84   0.258918  0.567489  0.965560  -0.302736
    N   N19   0.200162  0.357222  0.140276  0.538548
    O   O85   0.148054  0.367973  0.174548  -0.367379
    O   O86   0.229425  0.401800  0.159062  -0.334446
    N   N20   0.797893  0.654321  0.861542  0.536588
    O   O87   0.768501  0.607675  0.846130  -0.346475
    O   O88   0.850219  0.644914  0.825451  -0.364353
    N   N21   0.131562  0.857412  0.036771  0.486080
    O   O89   0.119708  0.808158  0.097667  -0.325260
    O   O90   0.138215  0.922239  0.056712  -0.302012
    N   N22   0.891728  0.185724  0.955968  0.717392
    O   O91   0.876885  0.147480  0.906050  -0.347947
    O   O92   0.939105  0.216403  0.918854  -0.380554
    N   N23   0.868094  0.858895  0.967458  0.610606
    O   O93   0.908502  0.827885  0.900372  -0.372730
    O   O94   0.837751  0.903394  0.951096  -0.333371
    N   N24   0.128511  0.155313  0.038437  0.553563
    O   O95   0.158512  0.114254  0.060102  -0.298050
    O   O96   0.085933  0.185870  0.101845  -0.374296
    N   N25   0.631562  0.357412  0.036771  0.486062
    O   O97   0.619708  0.308158  0.097667  -0.325256
    O   O98   0.638215  0.422239  0.056712  -0.302002
    N   N26   0.391728  0.685724  0.955968  0.717419
    O   O99   0.376885  0.647480  0.906050  -0.347946
    O   O100  0.439105  0.716403  0.918854  -0.380561
    N   N27   0.368094  0.358895  0.967458  0.610629
    O   O101  0.408502  0.327885  0.900372  -0.372734
    O   O102  0.337751  0.403394  0.951096  -0.333369
    N   N28   0.628511  0.655313  0.038437  0.553578
    O   O103  0.658512  0.614254  0.060102  -0.298047
    O   O104  0.585933  0.685870  0.101845  -0.374304
