# generated using pymatgen
data_CuH28C52(N3O5)2
_symmetry_space_group_name_H-M   'P 1'
_cell_length_a   32.84948400
_cell_length_b   33.06074500
_cell_length_c   21.87658700
_cell_angle_alpha   90.00000000
_cell_angle_beta   90.00000000
_cell_angle_gamma   90.00000000
_symmetry_Int_Tables_number   1
_chemical_formula_structural   CuH28C52(N3O5)2
_chemical_formula_sum   'Cu4 H112 C208 N24 O40'
_cell_volume   23758.59508128
_cell_formula_units_Z   4
loop_
 _symmetry_equiv_pos_site_id
 _symmetry_equiv_pos_as_xyz
  1  'x, y, z'
loop_
 _atom_site_type_symbol
 _atom_site_label
 _atom_site_symmetry_multiplicity
 _atom_site_fract_x
 _atom_site_fract_y
 _atom_site_fract_z
 _atom_site_occupancy
  Cu  Cu1  1  0.00037000  0.50000300  0.55873200  1
  Cu  Cu2  1  0.99957000  0.49993100  0.43657000  1
  Cu  Cu3  1  0.49974900  0.99999500  0.55889500  1
  Cu  Cu4  1  0.50076000  0.99996700  0.43672600  1
  H  H1  1  0.00048800  0.56347200  0.33942500  1
  H  H2  1  0.00043100  0.43650100  0.65544800  1
  H  H3  1  0.99759900  0.43625000  0.33983600  1
  H  H4  1  0.00235000  0.56372000  0.65588300  1
  H  H5  1  0.50147000  0.06367700  0.33983200  1
  H  H6  1  0.49657600  0.93631000  0.65566700  1
  H  H7  1  0.50018600  0.93644300  0.33976600  1
  H  H8  1  0.49900400  0.06350500  0.65593700  1
  H  H9  1  0.29590800  0.65299400  0.49667800  1
  H  H10  1  0.70431300  0.34685000  0.50022100  1
  H  H11  1  0.70681300  0.65207800  0.49276900  1
  H  H12  1  0.29327100  0.34799600  0.49372200  1
  H  H13  1  0.79591000  0.15299000  0.49728900  1
  H  H14  1  0.20427400  0.84683800  0.49705400  1
  H  H15  1  0.20690700  0.15184100  0.49231900  1
  H  H16  1  0.79353600  0.84804300  0.49719600  1
  H  H17  1  0.86466300  0.35070900  0.59553900  1
  H  H18  1  0.15447500  0.63131300  0.59096700  1
  H  H19  1  0.15116700  0.36485800  0.59093000  1
  H  H20  1  0.86960000  0.65469900  0.59245400  1
  H  H21  1  0.34631700  0.86815000  0.59143700  1
  H  H22  1  0.63429500  0.15048400  0.59496800  1
  H  H23  1  0.63169200  0.84637400  0.59358000  1
  H  H24  1  0.34922100  0.13554800  0.59069100  1
  H  H25  1  0.91667400  0.40335100  0.59547900  1
  H  H26  1  0.10212600  0.57899300  0.59198200  1
  H  H27  1  0.09912000  0.41742400  0.59246600  1
  H  H28  1  0.92155000  0.60178500  0.59335200  1
  H  H29  1  0.39864000  0.92042500  0.59240800  1
  H  H30  1  0.58228900  0.09783000  0.59505900  1
  H  H31  1  0.57960800  0.89910300  0.59412000  1
  H  H32  1  0.40125800  0.08297500  0.59268000  1
  H  H33  1  0.90083800  0.41773900  0.40232000  1
  H  H34  1  0.08110100  0.59909700  0.40114900  1
  H  H35  1  0.07915300  0.39935900  0.40086500  1
  H  H36  1  0.90019400  0.58075200  0.40284500  1
  H  H37  1  0.41882000  0.90113300  0.40115200  1
  H  H38  1  0.60120100  0.08022000  0.40312800  1
  H  H39  1  0.59922800  0.91808100  0.40273800  1
  H  H40  1  0.42065600  0.09981000  0.40067400  1
  H  H41  1  0.84861100  0.36532900  0.40367200  1
  H  H42  1  0.13309100  0.65177300  0.40150400  1
  H  H43  1  0.13105000  0.34658000  0.40065300  1
  H  H44  1  0.84811600  0.63328200  0.40328000  1
  H  H45  1  0.36672200  0.84851900  0.40152100  1
  H  H46  1  0.65345000  0.13265300  0.40438700  1
  H  H47  1  0.65148400  0.86578800  0.40345200  1
  H  H48  1  0.36884300  0.15268900  0.40007100  1
  H  H49  1  0.91204900  0.54958300  0.94184400  1
  H  H50  1  0.08825400  0.45041700  0.05351800  1
  H  H51  1  0.08853800  0.45027500  0.94316500  1
  H  H52  1  0.91177900  0.54974000  0.05218700  1
  H  H53  1  0.41142900  0.04967000  0.94308200  1
  H  H54  1  0.58815700  0.95038300  0.05255500  1
  H  H55  1  0.58789100  0.95030300  0.94218400  1
  H  H56  1  0.41166100  0.04969200  0.05343100  1
  H  H57  1  0.00032500  0.56423200  0.22749000  1
  H  H58  1  0.99998300  0.43550200  0.76751300  1
  H  H59  1  0.99703800  0.43528700  0.22781000  1
  H  H60  1  0.00239700  0.56446400  0.76776800  1
  H  H61  1  0.50135300  0.06457800  0.22788300  1
  H  H62  1  0.49620900  0.93543500  0.76771900  1
  H  H63  1  0.49942700  0.93560300  0.22775400  1
  H  H64  1  0.49909700  0.06437800  0.76783400  1
  H  H65  1  0.86369100  0.18108800  0.53156000  1
  H  H66  1  0.90203600  0.13514900  0.47919200  1
  H  H67  1  0.92251900  0.10665100  0.38082700  1
  H  H68  1  0.90198200  0.13969600  0.28502300  1
  H  H69  1  0.86108500  0.20189700  0.28796800  1
  H  H70  1  0.84070700  0.23120300  0.38525700  1
  H  H71  1  0.13639000  0.81833200  0.53020000  1
  H  H72  1  0.09793600  0.86483700  0.47881600  1
  H  H73  1  0.07757400  0.89438200  0.38108200  1
  H  H74  1  0.09813800  0.86231500  0.28454100  1
  H  H75  1  0.13889500  0.79999200  0.28609800  1
  H  H76  1  0.15924100  0.76971100  0.38272900  1
  H  H77  1  0.13833600  0.18093700  0.45400900  1
  H  H78  1  0.10285300  0.12930400  0.49832300  1
  H  H79  1  0.08402500  0.09291800  0.59136900  1
  H  H80  1  0.10276900  0.12003800  0.69212400  1
  H  H81  1  0.14003000  0.18430900  0.69958700  1
  H  H82  1  0.15867500  0.22145400  0.60751000  1
  H  H83  1  0.86278300  0.81828200  0.46009700  1
  H  H84  1  0.89722300  0.87070600  0.50431300  1
  H  H85  1  0.91475100  0.90804500  0.59710600  1
  H  H86  1  0.89488600  0.88176100  0.69788900  1
  H  H87  1  0.85768100  0.81747800  0.70566200  1
  H  H88  1  0.84016500  0.77949500  0.61382600  1
  H  H89  1  0.36386900  0.68145200  0.52969000  1
  H  H90  1  0.40209300  0.63495600  0.47795300  1
  H  H91  1  0.42243900  0.60570500  0.37999400  1
  H  H92  1  0.40173900  0.63799300  0.28368300  1
  H  H93  1  0.36091100  0.70025500  0.28569100  1
  H  H94  1  0.34071300  0.73032300  0.38252100  1
  H  H95  1  0.63672200  0.31848900  0.53519600  1
  H  H96  1  0.59789700  0.36476700  0.48405200  1
  H  H97  1  0.57675700  0.39389900  0.38641800  1
  H  H98  1  0.59656900  0.36144000  0.28982900  1
  H  H99  1  0.63735500  0.29912600  0.29124800  1
  H  H100  1  0.65845900  0.26924900  0.38779400  1
  H  H101  1  0.63822900  0.68173800  0.45569600  1
  H  H102  1  0.60283600  0.62956200  0.49876900  1
  H  H103  1  0.58396500  0.59221900  0.59093300  1
  H  H104  1  0.60251400  0.61838300  0.69234400  1
  H  H105  1  0.63971700  0.68260900  0.70135600  1
  H  H106  1  0.65853100  0.72062000  0.61014800  1
  H  H107  1  0.36207200  0.31880900  0.45493400  1
  H  H108  1  0.39714800  0.37066500  0.49959300  1
  H  H109  1  0.41590300  0.40687100  0.59286200  1
  H  H110  1  0.39713900  0.37950300  0.69345600  1
  H  H111  1  0.35980200  0.31525700  0.70054000  1
  H  H112  1  0.34118500  0.27833500  0.60825900  1
  C  C1  1  0.99997000  0.53522400  0.31459000  1
  C  C2  1  0.00094200  0.46469700  0.68047200  1
  C  C3  1  0.99847000  0.46442800  0.31482100  1
  C  C4  1  0.00191700  0.53548900  0.68070400  1
  C  C5  1  0.50094000  0.03545800  0.31489600  1
  C  C6  1  0.49746900  0.96450700  0.68066600  1
  C  C7  1  0.50033100  0.96466300  0.31484800  1
  C  C8  1  0.49876900  0.03528300  0.68080100  1
  C  C9  1  0.05449400  0.44420500  0.49715000  1
  C  C10  1  0.94552700  0.55574100  0.49807900  1
  C  C11  1  0.94396400  0.44570400  0.49836900  1
  C  C12  1  0.05607400  0.55416300  0.49697200  1
  C  C13  1  0.55467100  0.94418100  0.49833600  1
  C  C14  1  0.44570400  0.05574400  0.49722400  1
  C  C15  1  0.44412000  0.94580500  0.49707500  1
  C  C16  1  0.55627000  0.05418800  0.49856600  1
  C  C17  1  0.16533600  0.71469600  0.49577300  1
  C  C18  1  0.83488400  0.28511400  0.49983600  1
  C  C19  1  0.83580400  0.71683800  0.49896100  1
  C  C20  1  0.16440300  0.28297400  0.49392300  1
  C  C21  1  0.66537200  0.21468300  0.50103900  1
  C  C22  1  0.33489000  0.78518300  0.49583000  1
  C  C23  1  0.33578800  0.21687000  0.49388600  1
  C  C24  1  0.66458200  0.78322800  0.49801000  1
  C  C25  1  0.21658000  0.66539100  0.49684800  1
  C  C26  1  0.78365500  0.33443600  0.49971900  1
  C  C27  1  0.78574600  0.66637000  0.49576100  1
  C  C28  1  0.21437900  0.33354000  0.49541300  1
  C  C29  1  0.71659900  0.16540000  0.49832200  1
  C  C30  1  0.28362600  0.83446600  0.49732800  1
  C  C31  1  0.28581100  0.16629300  0.49460800  1
  C  C32  1  0.71465000  0.83371100  0.49782800  1
  C  C33  1  0.24622300  0.69495400  0.49660400  1
  C  C34  1  0.75400700  0.30489400  0.49983300  1
  C  C35  1  0.75541500  0.69520500  0.49590400  1
  C  C36  1  0.24476300  0.30475100  0.49464200  1
  C  C37  1  0.74623100  0.19495100  0.49863600  1
  C  C38  1  0.25399000  0.80489700  0.49686500  1
  C  C39  1  0.25542600  0.19507600  0.49400600  1
  C  C40  1  0.74497600  0.80487500  0.49772800  1
  C  C41  1  0.23520900  0.73513400  0.49620700  1
  C  C42  1  0.76501800  0.26471600  0.49946200  1
  C  C43  1  0.76545500  0.73560700  0.49735800  1
  C  C44  1  0.23480400  0.26431600  0.49422900  1
  C  C45  1  0.73522200  0.23512500  0.49945700  1
  C  C46  1  0.26501400  0.76472800  0.49626600  1
  C  C47  1  0.26538700  0.23551000  0.49411200  1
  C  C48  1  0.73493300  0.76445800  0.49750700  1
  C  C49  1  0.19434800  0.74546300  0.49585200  1
  C  C50  1  0.80586400  0.25436900  0.49910800  1
  C  C51  1  0.80605500  0.74691200  0.49840200  1
  C  C52  1  0.19422000  0.25294800  0.49380900  1
  C  C53  1  0.69437400  0.24545400  0.50028000  1
  C  C54  1  0.30587600  0.75440200  0.49583400  1
  C  C55  1  0.30597200  0.24688800  0.49395700  1
  C  C56  1  0.69432700  0.75315500  0.49719200  1
  C  C57  1  0.28680600  0.68439500  0.49645400  1
  C  C58  1  0.71342900  0.31545700  0.50013400  1
  C  C59  1  0.71511200  0.68367600  0.49456900  1
  C  C60  1  0.28504100  0.31636200  0.49409100  1
  C  C61  1  0.78679800  0.18438600  0.49792500  1
  C  C62  1  0.21340200  0.81544700  0.49672600  1
  C  C63  1  0.21514800  0.18347300  0.49318000  1
  C  C64  1  0.78527000  0.81642100  0.49772100  1
  C  C65  1  0.81659200  0.21363400  0.49770700  1
  C  C66  1  0.18359000  0.78621200  0.49545500  1
  C  C67  1  0.18456100  0.21193600  0.49338700  1
  C  C68  1  0.81580100  0.78791000  0.49869000  1
  C  C69  1  0.31661900  0.71363900  0.49527200  1
  C  C70  1  0.68361900  0.28620800  0.49994900  1
  C  C71  1  0.68457500  0.71217300  0.49585400  1
  C  C72  1  0.31563100  0.28790200  0.49400700  1
  C  C73  1  0.87260500  0.36564800  0.55322900  1
  C  C74  1  0.13824700  0.62414400  0.54937200  1
  C  C75  1  0.13522600  0.37248900  0.54928900  1
  C  C76  1  0.87651800  0.63840000  0.55088800  1
  C  C77  1  0.36226900  0.87552600  0.54969100  1
  C  C78  1  0.62693600  0.13493000  0.55294800  1
  C  C79  1  0.62435700  0.86216900  0.55173200  1
  C  C80  1  0.36507700  0.12766500  0.54907200  1
  C  C81  1  0.90192900  0.39546100  0.55296600  1
  C  C82  1  0.10857100  0.59468800  0.54976400  1
  C  C83  1  0.10571900  0.40211400  0.54997100  1
  C  C84  1  0.90566800  0.60839600  0.55124400  1
  C  C85  1  0.39195100  0.90498600  0.55002300  1
  C  C86  1  0.59764700  0.10510500  0.55281200  1
  C  C87  1  0.59509200  0.89206600  0.55190100  1
  C  C88  1  0.39456700  0.09802400  0.54996500  1
  C  C89  1  0.91243100  0.41441300  0.49885200  1
  C  C90  1  0.08779300  0.58531200  0.49661800  1
  C  C91  1  0.08547500  0.41231400  0.49671300  1
  C  C92  1  0.91453300  0.58751800  0.49812600  1
  C  C93  1  0.41244700  0.91460300  0.49673000  1
  C  C94  1  0.58790500  0.08534900  0.49904100  1
  C  C95  1  0.58567400  0.91237800  0.49848400  1
  C  C96  1  0.41467300  0.08757200  0.49668700  1
  C  C97  1  0.89317000  0.40339100  0.44516500  1
  C  C98  1  0.09696100  0.60576700  0.44322200  1
  C  C99  1  0.09470200  0.39218400  0.44302400  1
  C  C100  1  0.89390400  0.59679400  0.44484700  1
  C  C101  1  0.40305800  0.89432100  0.44326200  1
  C  C102  1  0.60807600  0.09538300  0.44566600  1
  C  C103  1  0.60587300  0.90257200  0.44503400  1
  C  C104  1  0.40524900  0.10734600  0.44280100  1
  C  C105  1  0.86356400  0.37387000  0.44574400  1
  C  C106  1  0.12622000  0.63563700  0.44322700  1
  C  C107  1  0.12388200  0.36221700  0.44270800  1
  C  C108  1  0.86439600  0.62637600  0.44490300  1
  C  C109  1  0.37374700  0.86447700  0.44333400  1
  C  C110  1  0.63770800  0.12486700  0.44615200  1
  C  C111  1  0.63548100  0.87308600  0.44520500  1
  C  C112  1  0.37610300  0.13732900  0.44229500  1
  C  C113  1  0.85332300  0.35494200  0.49969200  1
  C  C114  1  0.14690300  0.64481700  0.49624700  1
  C  C115  1  0.14431100  0.35249800  0.49572900  1
  C  C116  1  0.85575800  0.64727800  0.49779600  1
  C  C117  1  0.35329800  0.85509100  0.49649100  1
  C  C118  1  0.64698200  0.14480100  0.49966400  1
  C  C119  1  0.64463100  0.85275700  0.49841500  1
  C  C120  1  0.35586300  0.14736200  0.49533100  1
  C  C121  1  0.99905500  0.49972300  0.21975400  1
  C  C122  1  0.00093500  0.49996900  0.77555000  1
  C  C123  1  0.50037100  0.00010100  0.21990300  1
  C  C124  1  0.49876100  0.99983900  0.77569000  1
  C  C125  1  0.03157000  0.48241600  0.87151100  1
  C  C126  1  0.96850600  0.51724700  0.12377600  1
  C  C127  1  0.96949200  0.51739700  0.87104400  1
  C  C128  1  0.03055500  0.48221100  0.12434800  1
  C  C129  1  0.53030900  0.98231200  0.87116500  1
  C  C130  1  0.46902500  0.01752200  0.12435900  1
  C  C131  1  0.46822000  0.01727600  0.87165300  1
  C  C132  1  0.53116300  0.98263300  0.12403200  1
  C  C133  1  0.96885500  0.51763200  0.93423100  1
  C  C134  1  0.03126900  0.48202100  0.06114000  1
  C  C135  1  0.03173500  0.48207900  0.93470900  1
  C  C136  1  0.96839600  0.51759800  0.06060700  1
  C  C137  1  0.46807600  0.01761600  0.93481100  1
  C  C138  1  0.53133800  0.98219000  0.06084300  1
  C  C139  1  0.53096200  0.98206100  0.93439700  1
  C  C140  1  0.46843200  0.01771000  0.06117700  1
  C  C141  1  0.00017800  0.49983300  0.96614900  1
  C  C142  1  0.99994400  0.49980200  0.02919700  1
  C  C143  1  0.49961000  0.99984700  0.96628400  1
  C  C144  1  0.49978700  0.99990000  0.02933300  1
  C  C145  1  0.93708700  0.53544900  0.96570100  1
  C  C146  1  0.06315300  0.46441500  0.02965000  1
  C  C147  1  0.06334600  0.46438200  0.96667000  1
  C  C148  1  0.93689800  0.53549600  0.02866600  1
  C  C149  1  0.43652600  0.03545900  0.96667600  1
  C  C150  1  0.56295400  0.96442200  0.02896100  1
  C  C151  1  0.56278900  0.96437700  0.96596800  1
  C  C152  1  0.43667100  0.03547100  0.02963500  1
  C  C153  1  0.99973600  0.53569100  0.25160400  1
  C  C154  1  0.00077800  0.46407400  0.74347800  1
  C  C155  1  0.99828900  0.46383400  0.25181900  1
  C  C156  1  0.00171200  0.53593200  0.74368600  1
  C  C157  1  0.50073500  0.03601400  0.25190100  1
  C  C158  1  0.49749300  0.96394900  0.74366900  1
  C  C159  1  0.50007700  0.96415700  0.25184400  1
  C  C160  1  0.49872600  0.03579600  0.74378300  1
  C  C161  1  0.86926200  0.18473400  0.43947600  1
  C  C162  1  0.89269600  0.15003700  0.43749900  1
  C  C163  1  0.90431600  0.13387100  0.38211700  1
  C  C164  1  0.89280700  0.15237100  0.32842800  1
  C  C165  1  0.86982400  0.18719800  0.33010200  1
  C  C166  1  0.85811300  0.20348300  0.38537500  1
  C  C167  1  0.13080300  0.81568900  0.43798200  1
  C  C168  1  0.10732000  0.85038200  0.43679400  1
  C  C169  1  0.09574200  0.86712600  0.38176800  1
  C  C170  1  0.10726300  0.84917300  0.32766000  1
  C  C171  1  0.13017800  0.81429000  0.32855700  1
  C  C172  1  0.14188300  0.79745600  0.38345800  1
  C  C173  1  0.13279300  0.17752100  0.54614300  1
  C  C174  1  0.11129800  0.14167300  0.54226800  1
  C  C175  1  0.10063400  0.12105800  0.59463100  1
  C  C176  1  0.11114000  0.13624400  0.65109600  1
  C  C177  1  0.13208800  0.17223600  0.65525000  1
  C  C178  1  0.14282400  0.19296600  0.60300500  1
  C  C179  1  0.86680200  0.82286500  0.55233500  1
  C  C180  1  0.88825000  0.85873700  0.54828000  1
  C  C181  1  0.89818400  0.87988400  0.60049000  1
  C  C182  1  0.88703800  0.86517700  0.65697300  1
  C  C183  1  0.86611400  0.82918000  0.66130400  1
  C  C184  1  0.85604700  0.80796000  0.60921300  1
  C  C185  1  0.36925400  0.68423800  0.43745600  1
  C  C186  1  0.39269200  0.64952100  0.43602400  1
  C  C187  1  0.40423200  0.63292900  0.38087800  1
  C  C188  1  0.39264300  0.65100900  0.32689900  1
  C  C189  1  0.36969100  0.68586100  0.32804200  1
  C  C190  1  0.35807100  0.70257600  0.38306000  1
  C  C191  1  0.63041500  0.31543600  0.44312100  1
  C  C192  1  0.60694600  0.35013400  0.44201000  1
  C  C193  1  0.59494000  0.36665200  0.38703800  1
  C  C194  1  0.60604100  0.34847700  0.33290100  1
  C  C195  1  0.62896700  0.31359800  0.33372400  1
  C  C196  1  0.64109400  0.29698700  0.38857600  1
  C  C197  1  0.63272800  0.67729900  0.54775400  1
  C  C198  1  0.61123700  0.64149100  0.54301200  1
  C  C199  1  0.60053100  0.62034700  0.59487800  1
  C  C200  1  0.61093700  0.63499300  0.65171100  1
  C  C201  1  0.63185800  0.67095400  0.65672900  1
  C  C202  1  0.64268600  0.69218000  0.60498100  1
  C  C203  1  0.36720300  0.32233500  0.54716100  1
  C  C204  1  0.38866300  0.35821600  0.54347200  1
  C  C205  1  0.39927200  0.37873400  0.59595300  1
  C  C206  1  0.38874200  0.36341900  0.65233200  1
  C  C207  1  0.36775900  0.32743800  0.65628100  1
  C  C208  1  0.35705900  0.30682100  0.60392700  1
  N  N1  1  0.99892200  0.49986400  0.34514900  1
  N  N2  1  0.00086400  0.50016700  0.65014800  1
  N  N3  1  0.50127500  0.00008700  0.34531100  1
  N  N4  1  0.49923700  0.99988100  0.65030700  1
  N  N5  1  0.17703700  0.67570400  0.49621600  1
  N  N6  1  0.82318400  0.32409300  0.49994100  1
  N  N7  1  0.82502700  0.67757700  0.49770100  1
  N  N8  1  0.17510700  0.32225400  0.49503900  1
  N  N9  1  0.67707400  0.17570000  0.49978300  1
  N  N10  1  0.32317900  0.82417600  0.49654800  1
  N  N11  1  0.32507600  0.17759400  0.49448900  1
  N  N12  1  0.67537100  0.82248100  0.49836500  1
  N  N13  1  0.00063900  0.49991100  0.84075400  1
  N  N14  1  0.99935400  0.49966700  0.15456800  1
  N  N15  1  0.49912100  0.99977600  0.84089100  1
  N  N16  1  0.50019600  0.00012700  0.15470900  1
  N  N17  1  0.85757700  0.20100400  0.49663300  1
  N  N18  1  0.14257500  0.79885000  0.49473900  1
  N  N19  1  0.14390600  0.19826200  0.49215300  1
  N  N20  1  0.85649700  0.80150300  0.49854500  1
  N  N21  1  0.35762200  0.70099400  0.49433100  1
  N  N22  1  0.64260900  0.29883900  0.49983600  1
  N  N23  1  0.64388600  0.69859800  0.49428500  1
  N  N24  1  0.35629100  0.30157500  0.49309900  1
  O  O1  1  0.04259100  0.45882600  0.54984700  1
  O  O2  1  0.95729200  0.54101200  0.44552100  1
  O  O3  1  0.96018400  0.54317600  0.55041300  1
  O  O4  1  0.03986900  0.45686200  0.44479600  1
  O  O5  1  0.95625500  0.45996000  0.44570100  1
  O  O6  1  0.04380700  0.53986700  0.54966900  1
  O  O7  1  0.04099600  0.54199000  0.44465800  1
  O  O8  1  0.95888800  0.45803300  0.55061600  1
  O  O9  1  0.54004900  0.95685300  0.55065800  1
  O  O10  1  0.46047000  0.04318500  0.44491900  1
  O  O11  1  0.45752800  0.04109800  0.54991900  1
  O  O12  1  0.54286100  0.95885300  0.44573500  1
  O  O13  1  0.45915200  0.95805000  0.44479400  1
  O  O14  1  0.54121100  0.04199900  0.55082900  1
  O  O15  1  0.54408300  0.03987900  0.44585500  1
  O  O16  1  0.45640500  0.96005300  0.54977200  1
  O  O17  1  0.12530400  0.72298600  0.49601900  1
  O  O18  1  0.87492000  0.27684300  0.49995200  1
  O  O19  1  0.87561600  0.72608700  0.50008800  1
  O  O20  1  0.12459900  0.27366300  0.49368700  1
  O  O21  1  0.62535100  0.22297700  0.50232600  1
  O  O22  1  0.37492400  0.77690100  0.49589900  1
  O  O23  1  0.37559500  0.22617300  0.49407600  1
  O  O24  1  0.62475800  0.77401200  0.49778800  1
  O  O25  1  0.22697200  0.62608300  0.49684500  1
  O  O26  1  0.77329900  0.37375000  0.50004000  1
  O  O27  1  0.77626200  0.62684100  0.49472100  1
  O  O28  1  0.22377500  0.37309300  0.49585900  1
  O  O29  1  0.72699100  0.12610300  0.49724800  1
  O  O30  1  0.27321000  0.87376600  0.49778800  1
  O  O31  1  0.27643300  0.12673300  0.49484700  1
  O  O32  1  0.72410600  0.87325000  0.49815100  1
  O  O33  1  0.06280100  0.46606900  0.84047300  1
  O  O34  1  0.93731600  0.53369100  0.15477400  1
  O  O35  1  0.93854600  0.53389700  0.83955700  1
  O  O36  1  0.06147300  0.46571300  0.15591800  1
  O  O37  1  0.56128300  0.96589400  0.83963500  1
  O  O38  1  0.43801000  0.03395100  0.15578600  1
  O  O39  1  0.43700300  0.03366900  0.84064000  1
  O  O40  1  0.56241300  0.96637500  0.15513600  1
