# generated using pymatgen
data_CuH16C25NO5
_symmetry_space_group_name_H-M   'P 1'
_cell_length_a   10.88649200
_cell_length_b   17.72407200
_cell_length_c   16.22684600
_cell_angle_alpha   89.97497800
_cell_angle_beta   89.99792900
_cell_angle_gamma   89.99846400
_symmetry_Int_Tables_number   1
_chemical_formula_structural   CuH16C25NO5
_chemical_formula_sum   'Cu2 H32 C50 N2 O10'
_cell_volume   3131.01779581
_cell_formula_units_Z   2
loop_
 _symmetry_equiv_pos_site_id
 _symmetry_equiv_pos_as_xyz
  1  'x, y, z'
loop_
 _atom_site_type_symbol
 _atom_site_label
 _atom_site_symmetry_multiplicity
 _atom_site_fract_x
 _atom_site_fract_y
 _atom_site_fract_z
 _atom_site_occupancy
  Cu  Cu1  1  0.50658600  0.49671300  0.58246200  1
  Cu  Cu2  1  0.50928700  0.50031200  0.41791300  1
  H  H1  1  0.25111400  0.66424000  0.16716200  1
  H  H2  1  0.77416100  0.34887800  0.84425000  1
  H  H3  1  0.28779100  0.71676700  0.30524800  1
  H  H4  1  0.74567400  0.28475500  0.71148200  1
  H  H5  1  0.20306600  0.65374100  0.42724400  1
  H  H6  1  0.82357900  0.34237800  0.58396400  1
  H  H7  1  0.04533400  0.48442800  0.27299600  1
  H  H8  1  0.96272100  0.52776200  0.72324000  1
  H  H9  1  0.12897900  0.54844500  0.15129300  1
  H  H10  1  0.88331400  0.47021600  0.85006200  1
  H  H11  1  0.88814500  0.54010100  0.38060500  1
  H  H12  1  0.12759400  0.45903400  0.62050800  1
  H  H13  1  0.41773100  0.88033400  0.61369200  1
  H  H14  1  0.43268100  0.11613800  0.37842400  1
  H  H15  1  0.61082100  0.73403500  0.39183600  1
  H  H16  1  0.57344400  0.26299700  0.61667100  1
  H  H17  1  0.61473800  0.87152900  0.38866100  1
  H  H18  1  0.58312200  0.12582800  0.61900800  1
  H  H19  1  0.64368200  0.58209400  0.86262600  1
  H  H20  1  0.35274200  0.43046600  0.13672200  1
  H  H21  1  0.64308800  0.57772400  0.71179500  1
  H  H22  1  0.35772100  0.43030400  0.28741600  1
  H  H23  1  0.36445400  0.41309500  0.71491100  1
  H  H24  1  0.65828200  0.57955700  0.28638800  1
  H  H25  1  0.36212800  0.41550500  0.86643000  1
  H  H26  1  0.65678900  0.58139100  0.13489100  1
  H  H27  1  0.34674200  0.77805100  0.67860100  1
  H  H28  1  0.44719800  0.69892700  0.67773500  1
  H  H29  1  0.21620100  0.72211100  0.61433100  1
  H  H30  1  0.36771000  0.21799900  0.30981300  1
  H  H31  1  0.46462600  0.29836400  0.31897900  1
  H  H32  1  0.22494500  0.27393500  0.35892300  1
  C  C1  1  0.49984400  0.35321100  0.49611100  1
  C  C2  1  0.51190200  0.64378500  0.50419900  1
  C  C3  1  0.27148300  0.50357700  0.49887800  1
  C  C4  1  0.74450500  0.49373100  0.50157300  1
  C  C5  1  0.23515600  0.66544400  0.29830900  1
  C  C6  1  0.79175600  0.33869700  0.71366800  1
  C  C7  1  0.18811700  0.62967300  0.36687500  1
  C  C8  1  0.83517400  0.37124300  0.64212100  1
  C  C9  1  0.12122800  0.56380800  0.35834500  1
  C  C10  1  0.89549600  0.43978100  0.64511400  1
  C  C11  1  0.09886700  0.53533600  0.28052800  1
  C  C12  1  0.91388900  0.47472400  0.72018200  1
  C  C13  1  0.14592100  0.57121200  0.21202900  1
  C  C14  1  0.86943900  0.44243900  0.79150700  1
  C  C15  1  0.21439300  0.63610800  0.22090700  1
  C  C16  1  0.80826200  0.37445600  0.78825400  1
  C  C17  1  0.94044900  0.52021200  0.43285200  1
  C  C18  1  0.07563200  0.47846200  0.56789500  1
  C  C19  1  0.88006300  0.49360000  0.50197100  1
  C  C20  1  0.13600900  0.50462000  0.49868500  1
  C  C21  1  0.94932500  0.47241800  0.57038300  1
  C  C22  1  0.06683500  0.52719400  0.43080100  1
  C  C23  1  0.46059500  0.84686100  0.56603600  1
  C  C24  1  0.46433600  0.14977500  0.42974000  1
  C  C25  1  0.45635900  0.76892300  0.56896200  1
  C  C26  1  0.45723500  0.22768600  0.42717500  1
  C  C27  1  0.51183100  0.72703100  0.50596700  1
  C  C28  1  0.49879500  0.26986400  0.49457200  1
  C  C29  1  0.56746900  0.76497000  0.44129100  1
  C  C30  1  0.54186800  0.23205000  0.56348500  1
  C  C31  1  0.57065600  0.84270400  0.43939500  1
  C  C32  1  0.54816900  0.15442100  0.56502400  1
  C  C33  1  0.51753500  0.88355700  0.50196000  1
  C  C34  1  0.51047200  0.11336300  0.49781700  1
  C  C35  1  0.51773600  0.96449700  0.49999000  1
  C  C36  1  0.51549400  0.03246700  0.49910700  1
  C  C37  1  0.58200000  0.54425300  0.83074700  1
  C  C38  1  0.42095900  0.46345100  0.16903700  1
  C  C39  1  0.58157800  0.54150200  0.74594400  1
  C  C40  1  0.42420600  0.46339000  0.25385500  1
  C  C41  1  0.42662700  0.44994600  0.74769800  1
  C  C42  1  0.59127400  0.54639500  0.25319300  1
  C  C43  1  0.42494600  0.45133500  0.83280300  1
  C  C44  1  0.59048100  0.54763800  0.16807000  1
  C  C45  1  0.50336900  0.49882300  0.87462300  1
  C  C46  1  0.50538300  0.50519400  0.12567900  1
  C  C47  1  0.50356200  0.50139800  0.96302500  1
  C  C48  1  0.50456700  0.50361900  0.03725100  1
  C  C49  1  0.38615000  0.73368300  0.63843400  1
  C  C50  1  0.39844100  0.26255700  0.35301900  1
  N  N1  1  0.50544600  0.49421700  0.70566000  1
  N  N2  1  0.51088500  0.50274400  0.29469900  1
  O  O1  1  0.49759000  0.38742600  0.56783200  1
  O  O2  1  0.51804500  0.60961100  0.43254900  1
  O  O3  1  0.50847500  0.39044500  0.42670000  1
  O  O4  1  0.50712200  0.60655400  0.57373000  1
  O  O5  1  0.32836400  0.50262400  0.57014700  1
  O  O6  1  0.68752000  0.49438900  0.43035800  1
  O  O7  1  0.33062000  0.50045800  0.42865000  1
  O  O8  1  0.68522300  0.49660600  0.57163900  1
  O  O9  1  0.28999500  0.69008200  0.60747100  1
  O  O10  1  0.29611200  0.30459200  0.37682400  1
