data_DB0-m3_o25_o1510_f0_fsc.sym.19_repeat
_audit_creation_date              2024-02-20
_audit_creation_method            'Materials Studio'
_symmetry_space_group_name_H-M    'P1'
_symmetry_Int_Tables_number       1
_symmetry_cell_setting            triclinic
loop_
_symmetry_equiv_pos_as_xyz
  x,y,z
_cell_length_a                    14.2393
_cell_length_b                    8.5311
_cell_length_c                    19.3396
_cell_angle_alpha                 90.0000
_cell_angle_beta                  91.0356
_cell_angle_gamma                 90.0000
loop_
_atom_site_label
_atom_site_type_symbol
_atom_site_fract_x
_atom_site_fract_y
_atom_site_fract_z
_atom_site_U_iso_or_equiv
_atom_site_adp_type
_atom_site_occupancy
H1     H     0.04158   0.99966   0.54740   0.00000  Uiso   1.00
H2     H     0.95532   0.99960   0.45210   0.00000  Uiso   1.00
C1     C     0.01962   0.13952   0.63618   0.00000  Uiso   1.00
C2     C     0.97949   0.86008   0.36354   0.00000  Uiso   1.00
C3     C     0.97894   0.13959   0.36358   0.00000  Uiso   1.00
C4     C     0.01985   0.86006   0.63630   0.00000  Uiso   1.00
C5     C     0.00735   0.14050   0.70679   0.00000  Uiso   1.00
C6     C     0.99364   0.85937   0.29311   0.00000  Uiso   1.00
C7     C     0.99260   0.14047   0.29313   0.00000  Uiso   1.00
C8     C     0.00742   0.85937   0.70694   0.00000  Uiso   1.00
H3     H     0.00029   0.25052   0.73394   0.00000  Uiso   1.00
H4     H     0.00011   0.74938   0.26585   0.00000  Uiso   1.00
H5     H     0.99980   0.25042   0.26595   0.00000  Uiso   1.00
H6     H     0.00236   0.74929   0.73429   0.00000  Uiso   1.00
C9     C     0.00530   0.00009   0.74273   0.00000  Uiso   1.00
C10    C     0.99572   1.00000   0.25731   0.00000  Uiso   1.00
C11    C     0.03081   0.99975   0.60232   0.00000  Uiso   1.00
C12    C     0.96722   0.99975   0.39732   0.00000  Uiso   1.00
C13    C     0.08085   0.96127   0.07619   0.00000  Uiso   1.00
C14    C     0.92275   0.95339   0.92419   0.00000  Uiso   1.00
C15    C     0.08100   0.04470   0.92757   0.00000  Uiso   1.00
C16    C     0.91962   0.03703   0.07243   0.00000  Uiso   1.00
H7     H     0.14463   0.92792   0.05061   0.00000  Uiso   1.00
H8     H     0.86036   0.91382   0.94990   0.00000  Uiso   1.00
H9     H     0.14276   0.08367   0.95588   0.00000  Uiso   1.00
H10    H     0.85673   0.07011   0.04399   0.00000  Uiso   1.00
C17    C     0.07971   0.96127   0.14761   0.00000  Uiso   1.00
C18    C     0.92348   0.95355   0.85279   0.00000  Uiso   1.00
C19    C     0.08169   0.04676   0.85625   0.00000  Uiso   1.00
C20    C     0.91854   0.03866   0.14372   0.00000  Uiso   1.00
C21    C     0.99851   0.00042   0.18166   0.00000  Uiso   1.00
C22    C     0.00299   0.00070   0.81846   0.00000  Uiso   1.00
C23    C     0.00069   0.99855   0.03812   0.00000  Uiso   1.00
C24    C     0.00157   0.99841   0.96208   0.00000  Uiso   1.00
O1     O     0.08956   0.66942   0.56372   0.00000  Uiso   1.00
O2     O     0.90926   0.33025   0.43614   0.00000  Uiso   1.00
O3     O     0.90957   0.66975   0.43617   0.00000  Uiso   1.00
O4     O     0.08931   0.32996   0.56368   0.00000  Uiso   1.00
O5     O     0.92951   0.66344   0.57931   0.00000  Uiso   1.00
O6     O     0.06934   0.33617   0.42057   0.00000  Uiso   1.00
O7     O     0.06961   0.66329   0.42056   0.00000  Uiso   1.00
O8     O     0.92923   0.33631   0.57927   0.00000  Uiso   1.00
C25    C     0.01351   0.71821   0.59430   0.00000  Uiso   1.00
C26    C     0.98533   0.28132   0.40564   0.00000  Uiso   1.00
C27    C     0.98569   0.71837   0.40562   0.00000  Uiso   1.00
C28    C     0.01320   0.28126   0.59418   0.00000  Uiso   1.00
Zn1    Zn    0.89567   0.50000   0.50780   0.00000  Uiso   1.00
Zn2    Zn    0.10318   0.49968   0.49205   0.00000  Uiso   1.00
C29    C     0.46620   0.36680   0.52635   0.00000  Uiso   1.00
C30    C     0.53264   0.63363   0.47349   0.00000  Uiso   1.00
C31    C     0.53358   0.37728   0.46561   0.00000  Uiso   1.00
C32    C     0.46524   0.62315   0.53423   0.00000  Uiso   1.00
H11    H     0.56274   0.27889   0.43530   0.00000  Uiso   1.00
H12    H     0.43600   0.72154   0.56453   0.00000  Uiso   1.00
H13    H     0.43768   0.25913   0.55030   0.00000  Uiso   1.00
H14    H     0.56110   0.74131   0.44953   0.00000  Uiso   1.00
N1     N     0.77302   0.50030   0.51550   0.00000  Uiso   1.00
N2     N     0.22583   0.49944   0.48435   0.00000  Uiso   1.00
C33    C     0.52369   0.49047   0.56340   0.00000  Uiso   1.00
C34    C     0.47515   0.50999   0.43644   0.00000  Uiso   1.00
C35    C     0.59003   0.50060   0.50474   0.00000  Uiso   1.00
C36    C     0.40880   0.49981   0.49509   0.00000  Uiso   1.00
C37    C     0.69200   0.50045   0.51192   0.00000  Uiso   1.00
C38    C     0.30684   0.49960   0.48791   0.00000  Uiso   1.00
N3     N     0.16321   0.92386   0.18573   0.00000  Uiso   1.00
H15    H     0.17873   0.01830   0.21832   0.00000  Uiso   1.00
H16    H     0.14968   0.82579   0.21620   0.00000  Uiso   1.00
N4     N     0.84091   0.90884   0.81509   0.00000  Uiso   1.00
H17    H     0.82278   0.00076   0.78180   0.00000  Uiso   1.00
H18    H     0.85644   0.81023   0.78555   0.00000  Uiso   1.00
N5     N     0.16507   0.09308   0.82212   0.00000  Uiso   1.00
H19    H     0.18428   0.00266   0.78886   0.00000  Uiso   1.00
H20    H     0.15026   0.19312   0.79290   0.00000  Uiso   1.00
N6     N     0.83365   0.07672   0.17777   0.00000  Uiso   1.00
H21    H     0.81695   0.98335   0.21021   0.00000  Uiso   1.00
H22    H     0.84560   0.17633   0.20796   0.00000  Uiso   1.00
N7     N     0.44466   0.52106   0.36462   0.00000  Uiso   1.00
H23    H     0.50471   0.51850   0.33446   0.00000  Uiso   1.00
H24    H     0.40529   0.42085   0.35317   0.00000  Uiso   1.00
N8     N     0.55430   0.47951   0.63519   0.00000  Uiso   1.00
H25    H     0.49427   0.48116   0.66540   0.00000  Uiso   1.00
H26    H     0.59319   0.58022   0.64669   0.00000  Uiso   1.00
