# generated using pymatgen
data_Zn3H28C66Br4(NO8)2
_symmetry_space_group_name_H-M   'P 1'
_cell_length_a   30.32225500
_cell_length_b   30.32231600
_cell_length_c   55.28312800
_cell_angle_alpha   90.00000000
_cell_angle_beta   90.00000000
_cell_angle_gamma   90.00000000
_symmetry_Int_Tables_number   1
_chemical_formula_structural   Zn3H28C66Br4(NO8)2
_chemical_formula_sum   'Zn12 H112 C264 Br16 N8 O64'
_cell_volume   50829.57437771
_cell_formula_units_Z   4
loop_
 _symmetry_equiv_pos_site_id
 _symmetry_equiv_pos_as_xyz
  1  'x, y, z'
loop_
 _atom_site_type_symbol
 _atom_site_label
 _atom_site_symmetry_multiplicity
 _atom_site_fract_x
 _atom_site_fract_y
 _atom_site_fract_z
 _atom_site_occupancy
  Zn  Zn1  1  0.54994900  0.00004900  0.49996700  1
  Zn  Zn2  1  0.99988800  0.54994300  0.49997300  1
  Zn  Zn3  1  0.45010200  0.99983900  0.50003400  1
  Zn  Zn4  1  0.00015800  0.45009600  0.50003300  1
  Zn  Zn5  1  0.04998700  0.50007400  0.99993000  1
  Zn  Zn6  1  0.49986500  0.04990500  0.99993600  1
  Zn  Zn7  1  0.95013500  0.49986000  0.00007400  1
  Zn  Zn8  1  0.50013100  0.95005400  0.00006700  1
  Zn  Zn9  1  0.50007300  0.50000100  0.52735200  1
  Zn  Zn10  1  0.49999000  0.49987000  0.47258600  1
  Zn  Zn11  1  0.99991700  0.99980500  0.02735500  1
  Zn  Zn12  1  0.00018700  0.00002300  0.97258400  1
  H  H1  1  0.43301000  0.91257600  0.73308600  1
  H  H2  1  0.08678200  0.43313000  0.73319500  1
  H  H3  1  0.56707100  0.08703700  0.73335000  1
  H  H4  1  0.91230900  0.56717700  0.73324500  1
  H  H5  1  0.43440300  0.08882900  0.26679700  1
  H  H6  1  0.08882200  0.56543100  0.26690900  1
  H  H7  1  0.56512700  0.91184500  0.26676600  1
  H  H8  1  0.91184600  0.43469500  0.26665800  1
  H  H9  1  0.93336300  0.41294400  0.23308300  1
  H  H10  1  0.58705200  0.93336200  0.23322600  1
  H  H11  1  0.06741900  0.58741000  0.23335500  1
  H  H12  1  0.41259000  0.06742300  0.23320900  1
  H  H13  1  0.93415100  0.58855400  0.76683300  1
  H  H14  1  0.58844800  0.06508300  0.76691300  1
  H  H15  1  0.06488900  0.41158000  0.76673500  1
  H  H16  1  0.41146800  0.93435400  0.76665200  1
  H  H17  1  0.56992300  0.98821500  0.62122500  1
  H  H18  1  0.01146600  0.56993300  0.62122200  1
  H  H19  1  0.43126800  0.01165200  0.62099100  1
  H  H20  1  0.98806700  0.43127200  0.62099700  1
  H  H21  1  0.56906600  0.00951900  0.37900600  1
  H  H22  1  0.00976400  0.42980100  0.37879500  1
  H  H23  1  0.42972000  0.99051800  0.37881100  1
  H  H24  1  0.99072800  0.56914100  0.37902600  1
  H  H25  1  0.07018900  0.48866800  0.12119800  1
  H  H26  1  0.51184600  0.07011800  0.12118200  1
  H  H27  1  0.93153200  0.51209700  0.12101900  1
  H  H28  1  0.48843800  0.93145800  0.12103300  1
  H  H29  1  0.06887000  0.50915200  0.87897200  1
  H  H30  1  0.50930900  0.92953900  0.87882100  1
  H  H31  1  0.92952500  0.49014000  0.87885100  1
  H  H32  1  0.49027700  0.06888000  0.87899800  1
  H  H33  1  0.57055300  0.98867100  0.57721700  1
  H  H34  1  0.01107900  0.57054200  0.57721700  1
  H  H35  1  0.43113100  0.01118300  0.57698300  1
  H  H36  1  0.98860700  0.43111400  0.57698800  1
  H  H37  1  0.56922900  0.00893700  0.42301400  1
  H  H38  1  0.00919300  0.42918900  0.42280100  1
  H  H39  1  0.42915700  0.99099700  0.42281500  1
  H  H40  1  0.99121500  0.56925600  0.42303200  1
  H  H41  1  0.07075200  0.48908200  0.07718900  1
  H  H42  1  0.51141600  0.07065300  0.07717300  1
  H  H43  1  0.93132800  0.51158700  0.07701300  1
  H  H44  1  0.48893400  0.93122600  0.07702700  1
  H  H45  1  0.06910800  0.50861000  0.92297600  1
  H  H46  1  0.50878200  0.92899200  0.92283000  1
  H  H47  1  0.92903700  0.49065900  0.92285800  1
  H  H48  1  0.49080900  0.06906000  0.92300200  1
  H  H49  1  0.43548000  0.77969800  0.48532600  1
  H  H50  1  0.22039800  0.43555200  0.48574200  1
  H  H51  1  0.56592400  0.22031000  0.48777700  1
  H  H52  1  0.77971200  0.56576100  0.48737000  1
  H  H53  1  0.43265600  0.22052100  0.51265700  1
  H  H54  1  0.22056700  0.56616300  0.51455100  1
  H  H55  1  0.56608400  0.77927000  0.51414400  1
  H  H56  1  0.77939000  0.43250000  0.51225800  1
  H  H57  1  0.93492300  0.27960500  0.98664400  1
  H  H58  1  0.72025900  0.93498300  0.98597400  1
  H  H59  1  0.06541900  0.72022600  0.98646400  1
  H  H60  1  0.27958500  0.06525800  0.98713700  1
  H  H61  1  0.93316100  0.72064700  0.01288900  1
  H  H62  1  0.72066100  0.06670800  0.01323700  1
  H  H63  1  0.06664600  0.27940400  0.01391100  1
  H  H64  1  0.27947200  0.93300100  0.01356500  1
  H  H65  1  0.43536800  0.85994300  0.48563900  1
  H  H66  1  0.14015100  0.43543700  0.48584200  1
  H  H67  1  0.56600200  0.14006500  0.48787700  1
  H  H68  1  0.85995100  0.56590900  0.48768300  1
  H  H69  1  0.43220000  0.14027400  0.51235600  1
  H  H70  1  0.14031900  0.56661700  0.51426900  1
  H  H71  1  0.56654200  0.85952000  0.51407300  1
  H  H72  1  0.85964400  0.43211300  0.51216900  1
  H  H73  1  0.93487000  0.35981600  0.98668800  1
  H  H74  1  0.64005000  0.93487200  0.98628300  1
  H  H75  1  0.06555400  0.63994900  0.98683500  1
  H  H76  1  0.35986100  0.06540700  0.98724200  1
  H  H77  1  0.93270100  0.64036200  0.01279700  1
  H  H78  1  0.64044600  0.06710400  0.01322500  1
  H  H79  1  0.06710100  0.35961900  0.01363300  1
  H  H80  1  0.35975800  0.93255500  0.01320600  1
  H  H81  1  0.52388400  0.72016800  0.53608400  1
  H  H82  1  0.27941800  0.52395700  0.53668000  1
  H  H83  1  0.47263300  0.27937800  0.53600000  1
  H  H84  1  0.72019900  0.47242400  0.53540100  1
  H  H85  1  0.52624900  0.27959200  0.46460500  1
  H  H86  1  0.27968900  0.47745400  0.46380000  1
  H  H87  1  0.47741500  0.72066000  0.46319800  1
  H  H88  1  0.72076500  0.52600600  0.46399900  1
  H  H89  1  0.02599100  0.22045900  0.03638200  1
  H  H90  1  0.77981900  0.02608900  0.03553600  1
  H  H91  1  0.97472500  0.77967300  0.03573200  1
  H  H92  1  0.22059600  0.97455600  0.03657100  1
  H  H93  1  0.02411000  0.77920400  0.96343500  1
  H  H94  1  0.77938100  0.97534600  0.96350300  1
  H  H95  1  0.97527400  0.22027200  0.96434400  1
  H  H96  1  0.22045900  0.02391500  0.96426800  1
  H  H97  1  0.52331200  0.63992400  0.53610900  1
  H  H98  1  0.35966000  0.52333600  0.53696800  1
  H  H99  1  0.47319500  0.35962100  0.53627900  1
  H  H100  1  0.63994700  0.47297400  0.53541100  1
  H  H101  1  0.52611600  0.35984200  0.46456800  1
  H  H102  1  0.35993400  0.47755700  0.46379100  1
  H  H103  1  0.47756900  0.64041600  0.46292600  1
  H  H104  1  0.64052400  0.52585800  0.46369200  1
  H  H105  1  0.02548500  0.14024600  0.03663100  1
  H  H106  1  0.86002700  0.02554700  0.03558300  1
  H  H107  1  0.97535700  0.85994700  0.03578500  1
  H  H108  1  0.14030900  0.97518200  0.03682300  1
  H  H109  1  0.02390200  0.85948800  0.96315600  1
  H  H110  1  0.85959500  0.97538600  0.96326900  1
  H  H111  1  0.97535100  0.14006400  0.96431000  1
  H  H112  1  0.14018500  0.02369900  0.96418800  1
  C  C1  1  0.50106600  0.91362600  0.49993300  1
  C  C2  1  0.08634000  0.50111200  0.50002600  1
  C  C3  1  0.49898700  0.08627100  0.50006000  1
  C  C4  1  0.91369600  0.49892800  0.49997400  1
  C  C5  1  0.00110100  0.41364500  0.00009600  1
  C  C6  1  0.58632000  0.00106900  0.99986400  1
  C  C7  1  0.99902100  0.58629000  0.99990100  1
  C  C8  1  0.41367600  0.99889100  0.00013200  1
  C  C9  1  0.50100300  0.99991300  0.54739000  1
  C  C10  1  0.99990100  0.50098500  0.54739200  1
  C  C11  1  0.49904600  0.99997400  0.45261600  1
  C  C12  1  0.00014400  0.49905500  0.45261900  1
  C  C13  1  0.00113800  0.50022000  0.04739000  1
  C  C14  1  0.50015200  0.00104000  0.04739000  1
  C  C15  1  0.99898300  0.49972000  0.95261900  1
  C  C16  1  0.49983800  0.99891800  0.95261800  1
  C  C17  1  0.47352700  0.97082800  0.73735600  1
  C  C18  1  0.02849300  0.47361800  0.73739400  1
  C  C19  1  0.52658900  0.02872200  0.73745100  1
  C  C20  1  0.97059400  0.52667500  0.73741700  1
  C  C21  1  0.47380500  0.02980000  0.26259700  1
  C  C22  1  0.02981800  0.52601500  0.26264300  1
  C  C23  1  0.52572500  0.97088000  0.26259100  1
  C  C24  1  0.97090100  0.47409100  0.26254900  1
  C  C25  1  0.97388300  0.47119300  0.23735700  1
  C  C26  1  0.52877400  0.97387400  0.23740400  1
  C  C27  1  0.02694300  0.52908900  0.23745300  1
  C  C28  1  0.47088000  0.02693600  0.23740300  1
  C  C29  1  0.97353700  0.52952100  0.76261200  1
  C  C30  1  0.52944700  0.02566400  0.76264200  1
  C  C31  1  0.02546200  0.47060500  0.76258200  1
  C  C32  1  0.47052800  0.97374200  0.76254800  1
  C  C33  1  0.50010300  0.99980200  0.72476400  1
  C  C34  1  0.99956500  0.50018900  0.72476600  1
  C  C35  1  0.49973200  0.00030800  0.27523400  1
  C  C36  1  0.00034000  0.49999900  0.27523600  1
  C  C37  1  0.00045000  0.50017700  0.22476500  1
  C  C38  1  0.49986100  0.00044200  0.22476300  1
  C  C39  1  0.99947100  0.50001700  0.77523700  1
  C  C40  1  0.49996000  0.99965700  0.77523500  1
  C  C41  1  0.45088500  0.93890500  0.72449600  1
  C  C42  1  0.06047900  0.45099200  0.72457200  1
  C  C43  1  0.54928700  0.06072800  0.72468300  1
  C  C44  1  0.93864700  0.54938300  0.72461100  1
  C  C45  1  0.45172200  0.06216300  0.27541800  1
  C  C46  1  0.06217600  0.54803200  0.27550100  1
  C  C47  1  0.54775100  0.93846000  0.27539900  1
  C  C48  1  0.93848000  0.45199600  0.27532000  1
  C  C49  1  0.95123400  0.43927900  0.22449400  1
  C  C50  1  0.56076300  0.95123000  0.22459400  1
  C  C51  1  0.04963100  0.56110500  0.22468700  1
  C  C52  1  0.43893900  0.04963100  0.22458500  1
  C  C53  1  0.95146700  0.56187600  0.77544500  1
  C  C54  1  0.56179700  0.04768900  0.77550300  1
  C  C55  1  0.04750500  0.43818100  0.77537800  1
  C  C56  1  0.43809700  0.95165700  0.77531700  1
  C  C57  1  0.45199400  0.93718300  0.69975700  1
  C  C58  1  0.06229700  0.45209700  0.69983500  1
  C  C59  1  0.54836000  0.06255600  0.69994500  1
  C  C60  1  0.93691400  0.54845000  0.69987100  1
  C  C61  1  0.45272200  0.06386400  0.30015900  1
  C  C62  1  0.06390400  0.54686000  0.30023900  1
  C  C63  1  0.54661700  0.93663100  0.30013600  1
  C  C64  1  0.93667900  0.45295500  0.30005900  1
  C  C65  1  0.95232500  0.43757400  0.19975500  1
  C  C66  1  0.56260300  0.95232100  0.19985700  1
  C  C67  1  0.04868600  0.56295000  0.19994900  1
  C  C68  1  0.43722800  0.04868400  0.19984400  1
  C  C69  1  0.95248000  0.56355600  0.80018500  1
  C  C70  1  0.56350800  0.04653400  0.80024100  1
  C  C71  1  0.04638600  0.43633000  0.80011400  1
  C  C72  1  0.43627900  0.95263300  0.80005500  1
  C  C73  1  0.47604300  0.96850100  0.68680900  1
  C  C74  1  0.03101200  0.47612000  0.68684900  1
  C  C75  1  0.52445300  0.03125900  0.68690300  1
  C  C76  1  0.96824800  0.52452300  0.68686800  1
  C  C77  1  0.47607900  0.03208100  0.31314700  1
  C  C78  1  0.03215500  0.52338500  0.31318800  1
  C  C79  1  0.52318000  0.96833900  0.31313600  1
  C  C80  1  0.96841800  0.47627800  0.31309900  1
  C  C81  1  0.97636600  0.46890100  0.18680900  1
  C  C82  1  0.53134100  0.97635300  0.18685900  1
  C  C83  1  0.02477300  0.53166100  0.18690600  1
  C  C84  1  0.46858100  0.02476100  0.18685300  1
  C  C85  1  0.97583300  0.53175300  0.81316200  1
  C  C86  1  0.53175000  0.02306700  0.81318900  1
  C  C87  1  0.02293900  0.46801500  0.81312700  1
  C  C88  1  0.46801100  0.97596200  0.81309600  1
  C  C89  1  0.50019800  0.99985500  0.69952200  1
  C  C90  1  0.99960800  0.50027600  0.69952500  1
  C  C91  1  0.49966400  0.00024200  0.30047500  1
  C  C92  1  0.00030400  0.49988900  0.30047700  1
  C  C93  1  0.00052800  0.50024700  0.19952300  1
  C  C94  1  0.49992800  0.00051900  0.19952200  1
  C  C95  1  0.99941400  0.49992800  0.80047800  1
  C  C96  1  0.49990600  0.99956300  0.80047600  1
  C  C97  1  0.47726600  0.96893800  0.66161400  1
  C  C98  1  0.03065400  0.47731600  0.66165200  1
  C  C99  1  0.52347500  0.03088400  0.66170400  1
  C  C100  1  0.96870000  0.52351600  0.66167000  1
  C  C101  1  0.47717100  0.03163900  0.33834400  1
  C  C102  1  0.03176300  0.52208400  0.33838300  1
  C  C103  1  0.52193300  0.96863900  0.33833300  1
  C  C104  1  0.96877000  0.47731400  0.33829700  1
  C  C105  1  0.97757200  0.46935500  0.16161300  1
  C  C106  1  0.53101200  0.97754300  0.16166200  1
  C  C107  1  0.02377900  0.53130300  0.16170600  1
  C  C108  1  0.46906200  0.02374800  0.16165500  1
  C  C109  1  0.97693000  0.53128300  0.83835800  1
  C  C110  1  0.53134200  0.02178200  0.83838400  1
  C  C111  1  0.02169700  0.46828700  0.83832300  1
  C  C112  1  0.46834600  0.97701400  0.83829500  1
  C  C113  1  0.53946900  0.99360000  0.61149700  1
  C  C114  1  0.00610800  0.53947100  0.61149700  1
  C  C115  1  0.46183200  0.00627000  0.61136600  1
  C  C116  1  0.99346000  0.46183100  0.61137100  1
  C  C117  1  0.53835300  0.00508300  0.38863300  1
  C  C118  1  0.00533100  0.46041500  0.38851600  1
  C  C119  1  0.46034800  0.99491900  0.38852400  1
  C  C120  1  0.99514700  0.53841800  0.38864500  1
  C  C121  1  0.03972100  0.49405000  0.11148300  1
  C  C122  1  0.50648400  0.03964000  0.11147300  1
  C  C123  1  0.96208300  0.50671500  0.11138300  1
  C  C124  1  0.49383100  0.96200000  0.11139000  1
  C  C125  1  0.03817400  0.50471400  0.88861500  1
  C  C126  1  0.50487900  0.96016600  0.88853000  1
  C  C127  1  0.96016900  0.49454500  0.88854700  1
  C  C128  1  0.49469800  0.03816900  0.88862800  1
  C  C129  1  0.53969100  0.99379600  0.58656900  1
  C  C130  1  0.00594800  0.53968200  0.58656900  1
  C  C131  1  0.46188900  0.00606300  0.58643800  1
  C  C132  1  0.99370300  0.46187600  0.58644300  1
  C  C133  1  0.53831800  0.00481900  0.41356100  1
  C  C134  1  0.00507300  0.46019600  0.41344400  1
  C  C135  1  0.46015600  0.99512800  0.41345100  1
  C  C136  1  0.99536100  0.53835500  0.41357300  1
  C  C137  1  0.03990600  0.49422300  0.08655400  1
  C  C138  1  0.50630100  0.03980900  0.08654500  1
  C  C139  1  0.96210300  0.50648600  0.08645500  1
  C  C140  1  0.49405100  0.96200400  0.08646200  1
  C  C141  1  0.03818000  0.50447200  0.91354200  1
  C  C142  1  0.50464400  0.95998300  0.91345900  1
  C  C143  1  0.96001900  0.49477500  0.91347600  1
  C  C144  1  0.49493500  0.03814300  0.91355600  1
  C  C145  1  0.50086000  0.99992400  0.57389600  1
  C  C146  1  0.99984500  0.50084500  0.57389900  1
  C  C147  1  0.49917800  0.99996900  0.42611200  1
  C  C148  1  0.00020200  0.49920400  0.42611400  1
  C  C149  1  0.00105400  0.50032800  0.07389700  1
  C  C150  1  0.50017800  0.00095100  0.07389600  1
  C  C151  1  0.99906200  0.49963500  0.92611500  1
  C  C152  1  0.49979700  0.99901200  0.92611300  1
  C  C153  1  0.41369800  0.50025300  0.50047700  1
  C  C154  1  0.49979000  0.41362900  0.50050300  1
  C  C155  1  0.58633900  0.49960300  0.49946000  1
  C  C156  1  0.50029000  0.58626800  0.49943700  1
  C  C157  1  0.91374200  0.00024700  0.99938100  1
  C  C158  1  0.99979300  0.91358700  0.99940800  1
  C  C159  1  0.08637800  0.99959800  0.00055700  1
  C  C160  1  0.00029400  0.08622400  0.00053300  1
  C  C161  1  0.50058000  0.99993500  0.62399700  1
  C  C162  1  0.99976100  0.50058800  0.62399900  1
  C  C163  1  0.49940500  0.00002400  0.37600900  1
  C  C164  1  0.00024700  0.49948700  0.37601100  1
  C  C165  1  0.00084700  0.50038300  0.12399800  1
  C  C166  1  0.50014200  0.00077700  0.12399600  1
  C  C167  1  0.99920600  0.49964700  0.87601200  1
  C  C168  1  0.49979500  0.99922300  0.87601000  1
  C  C169  1  0.46442800  0.79710600  0.49156400  1
  C  C170  1  0.20293500  0.46450600  0.49192700  1
  C  C171  1  0.53639700  0.20285500  0.49309300  1
  C  C172  1  0.79714300  0.53625300  0.49273900  1
  C  C173  1  0.46209700  0.20297000  0.50729300  1
  C  C174  1  0.20302500  0.53729200  0.50831700  1
  C  C175  1  0.53721100  0.79686700  0.50795900  1
  C  C176  1  0.79696500  0.46195600  0.50694300  1
  C  C177  1  0.96413100  0.29704300  0.99248100  1
  C  C178  1  0.70286400  0.96418100  0.99186500  1
  C  C179  1  0.03612500  0.70279900  0.99218100  1
  C  C180  1  0.29707900  0.03596800  0.99279900  1
  C  C181  1  0.96238100  0.70303200  0.00723100  1
  C  C182  1  0.70308800  0.03758000  0.00740500  1
  C  C183  1  0.03752900  0.29693500  0.00802200  1
  C  C184  1  0.29702000  0.96222400  0.00785100  1
  C  C185  1  0.46425700  0.84255400  0.49196400  1
  C  C186  1  0.15748400  0.46433200  0.49220500  1
  C  C187  1  0.53652700  0.15740500  0.49337400  1
  C  C188  1  0.84259000  0.53642300  0.49314200  1
  C  C189  1  0.46175300  0.15752300  0.50689900  1
  C  C190  1  0.15757800  0.53765700  0.50793600  1
  C  C191  1  0.53757900  0.84231800  0.50769800  1
  C  C192  1  0.84241700  0.46165200  0.50667000  1
  C  C193  1  0.96399900  0.34249400  0.99272900  1
  C  C194  1  0.65741600  0.96401400  0.99226600  1
  C  C195  1  0.03629500  0.65735200  0.99261300  1
  C  C196  1  0.34252800  0.03614500  0.99307900  1
  C  C197  1  0.96203000  0.65758200  0.00696000  1
  C  C198  1  0.65763600  0.03790400  0.00717400  1
  C  C199  1  0.03788900  0.34238300  0.00763900  1
  C  C200  1  0.34246900  0.96188000  0.00742600  1
  C  C201  1  0.50096700  0.86536500  0.49986500  1
  C  C202  1  0.13460200  0.50103900  0.50004800  1
  C  C203  1  0.49908700  0.13453400  0.50010900  1
  C  C204  1  0.86543300  0.49900200  0.49993400  1
  C  C205  1  0.00100000  0.36537500  0.00015100  1
  C  C206  1  0.63458900  0.00099700  0.99976600  1
  C  C207  1  0.99911800  0.63454400  0.99982800  1
  C  C208  1  0.36542100  0.99896900  0.00021300  1
  C  C209  1  0.50077000  0.77408200  0.49972600  1
  C  C210  1  0.22588500  0.50084700  0.50015200  1
  C  C211  1  0.49930200  0.22581800  0.50022300  1
  C  C212  1  0.77414900  0.49913600  0.49980300  1
  C  C213  1  0.00077200  0.27407400  0.00028600  1
  C  C214  1  0.72589100  0.00083900  0.99959400  1
  C  C215  1  0.99929800  0.72581000  0.99966500  1
  C  C216  1  0.27415500  0.99913800  0.00035900  1
  C  C217  1  0.51386000  0.70277300  0.51993000  1
  C  C218  1  0.29698100  0.51391700  0.52058400  1
  C  C219  1  0.48424200  0.29692900  0.52022000  1
  C  C220  1  0.70282100  0.48401700  0.51956100  1
  C  C221  1  0.51473300  0.29704700  0.48043700  1
  C  C222  1  0.29713100  0.48739100  0.47995500  1
  C  C223  1  0.48735200  0.70304900  0.47929800  1
  C  C224  1  0.70313700  0.51448800  0.47977300  1
  C  C225  1  0.01503200  0.20293300  0.02045600  1
  C  C226  1  0.79720600  0.01512500  0.01956400  1
  C  C227  1  0.98540400  0.79708900  0.01971100  1
  C  C228  1  0.20304400  0.98522900  0.02059400  1
  C  C229  1  0.01351700  0.79683000  0.97940300  1
  C  C230  1  0.79696300  0.98621600  0.97943000  1
  C  C231  1  0.98613700  0.20282900  0.98031800  1
  C  C232  1  0.20296800  0.01332600  0.98028200  1
  C  C233  1  0.51312900  0.65732500  0.51999300  1
  C  C234  1  0.34242700  0.51315800  0.52079600  1
  C  C235  1  0.48496400  0.34237500  0.52044000  1
  C  C236  1  0.65737100  0.48473000  0.51962800  1
  C  C237  1  0.51425600  0.34249900  0.48035500  1
  C  C238  1  0.34258200  0.48785500  0.47990200  1
  C  C239  1  0.48784600  0.65759900  0.47909500  1
  C  C240  1  0.65768900  0.51400100  0.47953800  1
  C  C241  1  0.01433700  0.15748400  0.02065500  1
  C  C242  1  0.84265400  0.01441000  0.01964900  1
  C  C243  1  0.98616300  0.84253500  0.01979400  1
  C  C244  1  0.15759500  0.98598300  0.02078900  1
  C  C245  1  0.01299800  0.84228000  0.97919300  1
  C  C246  1  0.84241500  0.98664700  0.97924000  1
  C  C247  1  0.98658900  0.15737900  0.98024300  1
  C  C248  1  0.15752000  0.01280200  0.98018500  1
  C  C249  1  0.50042500  0.63453100  0.49950900  1
  C  C250  1  0.36543500  0.50042800  0.50039000  1
  C  C251  1  0.49967100  0.36536700  0.50043200  1
  C  C252  1  0.63460000  0.49943100  0.49954200  1
  C  C253  1  0.00040300  0.13449400  0.00047900  1
  C  C254  1  0.86547200  0.00044800  0.99942000  1
  C  C255  1  0.99964600  0.86533100  0.99946300  1
  C  C256  1  0.13463400  0.99945400  0.00051200  1
  C  C257  1  0.50066300  0.72581600  0.49964900  1
  C  C258  1  0.27415100  0.50072500  0.50023000  1
  C  C259  1  0.49942500  0.27408400  0.50029400  1
  C  C260  1  0.72588300  0.49920600  0.49971100  1
  C  C261  1  0.00064700  0.22579600  0.00035500  1
  C  C262  1  0.77416900  0.00073500  0.99952500  1
  C  C263  1  0.99940300  0.77406500  0.99959000  1
  C  C264  1  0.22590100  0.99922500  0.00041300  1
  Br  Br1  1  0.41823400  0.88965000  0.68627500  1
  Br  Br2  1  0.10991300  0.41837800  0.68641100  1
  Br  Br3  1  0.58213200  0.11020900  0.68660000  1
  Br  Br4  1  0.88933900  0.58225700  0.68646900  1
  Br  Br5  1  0.41971500  0.11197700  0.31358200  1
  Br  Br6  1  0.11199800  0.57982000  0.31371800  1
  Br  Br7  1  0.57956900  0.88846200  0.31354000  1
  Br  Br8  1  0.88849400  0.41995100  0.31340900  1
  Br  Br9  1  0.91855300  0.39005200  0.18627100  1
  Br  Br10  1  0.61020800  0.91856300  0.18645000  1
  Br  Br11  1  0.08244300  0.61061600  0.18660700  1
  Br  Br12  1  0.38964600  0.08245900  0.18642500  1
  Br  Br13  1  0.91950600  0.61167500  0.81362700  1
  Br  Br14  1  0.61159000  0.07950700  0.81372300  1
  Br  Br15  1  0.07937800  0.38817200  0.81350100  1
  Br  Br16  1  0.38808100  0.91964600  0.81340100  1
  N  N1  1  0.50043300  0.99992200  0.64980400  1
  N  N2  1  0.99970100  0.50046400  0.64980700  1
  N  N3  1  0.49951000  0.00010300  0.35019700  1
  N  N4  1  0.00026000  0.49963200  0.35020000  1
  N  N5  1  0.00072800  0.50034900  0.14980500  1
  N  N6  1  0.50007500  0.00069300  0.14980400  1
  N  N7  1  0.99927300  0.49973400  0.85020000  1
  N  N8  1  0.49982900  0.99934000  0.85019800  1
  O  O1  1  0.53912100  0.93414300  0.50063400  1
  O  O2  1  0.06579800  0.53915500  0.50070600  1
  O  O3  1  0.46091800  0.06575300  0.49960300  1
  O  O4  1  0.93423800  0.46087100  0.49953700  1
  O  O5  1  0.53699400  0.06559200  0.50047100  1
  O  O6  1  0.06568600  0.46310500  0.49936400  1
  O  O7  1  0.46307000  0.93430500  0.49929700  1
  O  O8  1  0.93435100  0.53694700  0.50041000  1
  O  O9  1  0.03915500  0.43417300  0.00071600  1
  O  O10  1  0.56577800  0.03911100  0.00054600  1
  O  O11  1  0.96095000  0.56577200  0.99952500  1
  O  O12  1  0.43420900  0.96083000  0.99969300  1
  O  O13  1  0.03703300  0.56562000  0.00031200  1
  O  O14  1  0.56565500  0.96306400  0.99928000  1
  O  O15  1  0.96310700  0.43432300  0.99945900  1
  O  O16  1  0.43433000  0.03691300  0.00049000  1
  O  O17  1  0.53907100  0.99907100  0.53613200  1
  O  O18  1  0.00075200  0.53905500  0.53613700  1
  O  O19  1  0.46303400  0.00072700  0.53600600  1
  O  O20  1  0.99914200  0.46301700  0.53600600  1
  O  O21  1  0.53701500  0.99890500  0.46399700  1
  O  O22  1  0.99902800  0.46098600  0.46387100  1
  O  O23  1  0.46098200  0.00108100  0.46387300  1
  O  O24  1  0.00115900  0.53702000  0.46400400  1
  O  O25  1  0.03917800  0.49931900  0.03610300  1
  O  O26  1  0.50094300  0.03908500  0.03610500  1
  O  O27  1  0.96313900  0.50096600  0.03603600  1
  O  O28  1  0.49933000  0.96304500  0.03603300  1
  O  O29  1  0.03698100  0.49871500  0.96397200  1
  O  O30  1  0.49878500  0.96087500  0.96390000  1
  O  O31  1  0.96094500  0.50088400  0.96390400  1
  O  O32  1  0.50092000  0.03691100  0.96397300  1
  O  O33  1  0.43416700  0.49977300  0.52137600  1
  O  O34  1  0.49823900  0.43412000  0.52138000  1
  O  O35  1  0.56561200  0.49816100  0.52028300  1
  O  O36  1  0.49982000  0.56556300  0.52027900  1
  O  O37  1  0.43442500  0.50056600  0.47964000  1
  O  O38  1  0.50065000  0.56577800  0.47854300  1
  O  O39  1  0.56587700  0.50127200  0.47857700  1
  O  O40  1  0.50138800  0.43432800  0.47967500  1
  O  O41  1  0.93440100  0.00163600  0.02022500  1
  O  O42  1  0.00016900  0.93425100  0.02026200  1
  O  O43  1  0.06584100  0.00001500  0.02143700  1
  O  O44  1  0.00175400  0.06569300  0.02140100  1
  O  O45  1  0.93428200  0.99863100  0.97851900  1
  O  O46  1  0.99878400  0.06555600  0.97969400  1
  O  O47  1  0.06573000  0.99934200  0.97969700  1
  O  O48  1  0.99953100  0.93410700  0.97852200  1
  O  O49  1  0.45623300  0.93831600  0.64845800  1
  O  O50  1  0.06131500  0.45626700  0.64853100  1
  O  O51  1  0.54465200  0.06152600  0.64863200  1
  O  O52  1  0.93808900  0.54466500  0.64856300  1
  O  O53  1  0.45684800  0.06279900  0.35145500  1
  O  O54  1  0.06294700  0.54230100  0.35152700  1
  O  O55  1  0.54217800  0.93740900  0.35143000  1
  O  O56  1  0.93757100  0.45695000  0.35136200  1
  O  O57  1  0.95653300  0.43873900  0.14845600  1
  O  O58  1  0.56168400  0.95648700  0.14855300  1
  O  O59  1  0.04494700  0.56195300  0.14863600  1
  O  O60  1  0.43846500  0.04489400  0.14853600  1
  O  O61  1  0.95660900  0.56242800  0.85148200  1
  O  O62  1  0.56252000  0.04200400  0.85153000  1
  O  O63  1  0.04194900  0.43704400  0.85140900  1
  O  O64  1  0.43714000  0.95665800  0.85135800  1
