# generated using pymatgen
data_ZnH7C18N(ClO2)2
_symmetry_space_group_name_H-M   'P 1'
_cell_length_a   9.88283200
_cell_length_b   11.04203200
_cell_length_c   14.07987000
_cell_angle_alpha   89.98841400
_cell_angle_beta   85.26500400
_cell_angle_gamma   89.99890100
_symmetry_Int_Tables_number   1
_chemical_formula_structural   ZnH7C18N(ClO2)2
_chemical_formula_sum   'Zn2 H14 C36 N2 Cl4 O8'
_cell_volume   1531.24377003
_cell_formula_units_Z   2
loop_
 _symmetry_equiv_pos_site_id
 _symmetry_equiv_pos_as_xyz
  1  'x, y, z'
loop_
 _atom_site_type_symbol
 _atom_site_label
 _atom_site_symmetry_multiplicity
 _atom_site_fract_x
 _atom_site_fract_y
 _atom_site_fract_z
 _atom_site_occupancy
  Zn  Zn1  1  0.34605300  0.50417400  0.49983200  1
  Zn  Zn2  1  0.65394700  0.49582600  0.50016800  1
  H  H1  1  0.35221700  0.54124000  0.01620000  1
  H  H2  1  0.64778300  0.45876000  0.98380000  1
  H  H3  1  0.94943300  0.91836800  0.56532300  1
  H  H4  1  0.05056700  0.08163200  0.43467700  1
  H  H5  1  0.32763200  0.79960700  0.36519600  1
  H  H6  1  0.67236800  0.20039300  0.63480400  1
  H  H7  1  0.10891600  0.89139500  0.35134700  1
  H  H8  1  0.89108400  0.10860500  0.64865300  1
  H  H9  1  0.21481900  0.18518900  0.51957000  1
  H  H10  1  0.78518100  0.81481100  0.48043000  1
  H  H11  1  0.73973600  0.65594700  0.62600100  1
  H  H12  1  0.26026400  0.34405300  0.37399900  1
  H  H13  1  0.22654900  0.66952300  0.61953700  1
  H  H14  1  0.77345100  0.33047800  0.38046300  1
  C  C1  1  0.50678400  0.73873400  0.48960000  1
  C  C2  1  0.49321600  0.26126600  0.51040000  1
  C  C3  1  0.47545000  0.50683900  0.68628400  1
  C  C4  1  0.52455000  0.49316200  0.31371600  1
  C  C5  1  0.53568900  0.49005300  0.21148000  1
  C  C6  1  0.46431100  0.50994700  0.78852000  1
  C  C7  1  0.55349500  0.48507400  0.02319000  1
  C  C8  1  0.44650500  0.51492700  0.97681100  1
  C  C9  1  0.45589000  0.51230100  0.87436800  1
  C  C10  1  0.54411000  0.48769900  0.12563300  1
  C  C11  1  0.30553100  0.88337100  0.40280300  1
  C  C12  1  0.69446900  0.11662900  0.59719700  1
  C  C13  1  0.18257800  0.93660900  0.39159200  1
  C  C14  1  0.81742200  0.06339200  0.60840800  1
  C  C15  1  0.15119000  0.04404200  0.43624100  1
  C  C16  1  0.84881000  0.95595800  0.56376000  1
  C  C17  1  0.24866400  0.10532600  0.48124000  1
  C  C18  1  0.75133600  0.89467400  0.51876000  1
  C  C19  1  0.37899800  0.05821300  0.48475900  1
  C  C20  1  0.62100200  0.94178700  0.51524200  1
  C  C21  1  0.39908900  0.93789100  0.45788700  1
  C  C22  1  0.60091100  0.06210900  0.54211300  1
  C  C23  1  0.48630100  0.12530900  0.51816800  1
  C  C24  1  0.51370000  0.87469100  0.48183200  1
  C  C25  1  0.84630800  0.64675900  0.62434900  1
  C  C26  1  0.15369200  0.35324200  0.37565100  1
  C  C27  1  0.90621600  0.71849400  0.68824800  1
  C  C28  1  0.09378400  0.28150700  0.31175300  1
  C  C29  1  0.04385500  0.72336500  0.68594800  1
  C  C30  1  0.95614500  0.27663500  0.31405200  1
  C  C31  1  0.12053200  0.65562900  0.62028600  1
  C  C32  1  0.87946800  0.34437100  0.37971400  1
  C  C33  1  0.06268300  0.57569400  0.55882000  1
  C  C34  1  0.93731700  0.42430600  0.44118000  1
  C  C35  1  0.92092700  0.57064300  0.56092500  1
  C  C36  1  0.07907300  0.42935800  0.43907500  1
  N  N1  1  0.14256500  0.50532100  0.49780300  1
  N  N2  1  0.85743500  0.49468000  0.50219700  1
  Cl  Cl1  1  0.87757600  0.17987500  0.23684600  1
  Cl  Cl2  1  0.12242400  0.82012500  0.76315400  1
  Cl  Cl3  1  0.80635200  0.80916900  0.76840200  1
  Cl  Cl4  1  0.19364800  0.19083100  0.23159900  1
  O  O1  1  0.38729000  0.68424400  0.49497800  1
  O  O2  1  0.61271000  0.31575600  0.50502200  1
  O  O3  1  0.61888800  0.67633500  0.49376300  1
  O  O4  1  0.38111200  0.32366600  0.50623700  1
  O  O5  1  0.36412100  0.50991800  0.64211200  1
  O  O6  1  0.63587900  0.49008200  0.35788800  1
  O  O7  1  0.59676800  0.50085000  0.64172700  1
  O  O8  1  0.40323200  0.49915000  0.35827300  1
