# generated using pymatgen
data_Zn3H33C56NO13
_symmetry_space_group_name_H-M   'P 1'
_cell_length_a   27.46853400
_cell_length_b   27.50649400
_cell_length_c   27.44700400
_cell_angle_alpha   90.18269400
_cell_angle_beta   90.05839900
_cell_angle_gamma   90.05602200
_symmetry_Int_Tables_number   1
_chemical_formula_structural   Zn3H33C56NO13
_chemical_formula_sum   'Zn12 H132 C224 N4 O52'
_cell_volume   20737.81631044
_cell_formula_units_Z   4
loop_
 _symmetry_equiv_pos_site_id
 _symmetry_equiv_pos_as_xyz
  1  'x, y, z'
loop_
 _atom_site_type_symbol
 _atom_site_label
 _atom_site_symmetry_multiplicity
 _atom_site_fract_x
 _atom_site_fract_y
 _atom_site_fract_z
 _atom_site_occupancy
  Zn  Zn1  1  0.74745500  0.75339500  0.05535300  1
  Zn  Zn2  1  0.24848600  0.44606800  0.75306300  1
  Zn  Zn3  1  0.74765000  0.75060200  0.44584200  1
  Zn  Zn4  1  0.74811100  0.75195000  0.55608900  1
  Zn  Zn5  1  0.74764800  0.75292000  0.94505700  1
  Zn  Zn6  1  0.24665500  0.94623800  0.74973100  1
  Zn  Zn7  1  0.24677300  0.05626300  0.74986000  1
  Zn  Zn8  1  0.05254100  0.25314900  0.25081800  1
  Zn  Zn9  1  0.94235800  0.25327200  0.25101700  1
  Zn  Zn10  1  0.44261100  0.25138000  0.25158700  1
  Zn  Zn11  1  0.55277700  0.25078400  0.25141300  1
  Zn  Zn12  1  0.24948400  0.55611000  0.75354200  1
  H  H1  1  0.15123400  0.92551600  0.87302600  1
  H  H2  1  0.06259800  0.07622300  0.90992000  1
  H  H3  1  0.99948100  0.56626300  0.56563000  1
  H  H4  1  0.06168300  0.43899200  0.50280300  1
  H  H5  1  0.63370900  0.64526600  0.42535400  1
  H  H6  1  0.57131800  0.58320000  0.42580200  1
  H  H7  1  0.35455500  0.57851800  0.63875200  1
  H  H8  1  0.41625500  0.57775200  0.57600000  1
  H  H9  1  0.42022000  0.36578800  0.35746200  1
  H  H10  1  0.42112100  0.42811500  0.41977500  1
  H  H11  1  0.57538700  0.35486700  0.36662300  1
  H  H12  1  0.57599500  0.41607300  0.43011600  1
  H  H13  1  0.99700500  0.93891100  0.93755700  1
  H  H14  1  0.36345100  0.42353600  0.64892200  1
  H  H15  1  0.42636400  0.42305800  0.58730600  1
  H  H16  1  0.64465800  0.63591700  0.58061400  1
  H  H17  1  0.58343100  0.57265400  0.58076400  1
  H  H18  1  0.56230400  0.49970900  0.43997400  1
  H  H19  1  0.49972800  0.56317500  0.56692300  1
  H  H20  1  0.43576800  0.43690100  0.50351000  1
  H  H21  1  0.09341700  0.88377100  0.92563600  1
  H  H22  1  0.14966200  0.84707500  0.98855200  1
  H  H23  1  0.09043000  0.84723600  0.01733100  1
  H  H24  1  0.06102900  0.06588400  0.99918000  1
  H  H25  1  0.14189400  0.87516400  0.04774100  1
  H  H26  1  0.41891600  0.38101100  0.91199900  1
  H  H27  1  0.48585600  0.33172300  0.90547500  1
  H  H28  1  0.54404300  0.36226700  0.90656600  1
  H  H29  1  0.51347100  0.35162700  0.84910900  1
  H  H30  1  0.92067000  0.91055500  0.11905400  1
  H  H31  1  0.99016400  0.90415500  0.16536300  1
  H  H32  1  0.04683400  0.90555700  0.13209600  1
  H  H33  1  0.01678700  0.84812500  0.14320500  1
  H  H34  1  0.56439300  0.49302900  0.10906900  1
  H  H35  1  0.93280300  0.00517000  0.06203900  1
  H  H36  1  0.64246200  0.44455600  0.12051900  1
  H  H37  1  0.66309500  0.50715400  0.11986500  1
  H  H38  1  0.68997300  0.46305500  0.07884000  1
  H  H39  1  0.35122700  0.92329600  0.86515100  1
  H  H40  1  0.41283800  0.92395200  0.92814900  1
  H  H41  1  0.42001000  0.13769500  0.14572600  1
  H  H42  1  0.41961000  0.07503000  0.08367300  1
  H  H43  1  0.63373800  0.85813000  0.07697800  1
  H  H44  1  0.57049700  0.91915700  0.07721400  1
  H  H45  1  0.07521100  0.13892800  0.14482200  1
  H  H46  1  0.64175100  0.86673400  0.92152200  1
  H  H47  1  0.57980100  0.92915600  0.92200900  1
  H  H48  1  0.57528600  0.14620800  0.13618900  1
  H  H49  1  0.57464300  0.08501300  0.07285700  1
  H  H50  1  0.36124800  0.07821000  0.85455700  1
  H  H51  1  0.42402600  0.07855500  0.91640800  1
  H  H52  1  0.49655400  0.93839800  0.93675900  1
  H  H53  1  0.43342300  0.06482200  0.00026800  1
  H  H54  1  0.56036500  0.00211500  0.06311900  1
  H  H55  1  0.14333300  0.57886700  0.86629400  1
  H  H56  1  0.07455300  0.07629100  0.08284600  1
  H  H57  1  0.08103300  0.57964100  0.92846400  1
  H  H58  1  0.07429400  0.36774200  0.14682700  1
  H  H59  1  0.07446100  0.43057800  0.08543200  1
  H  H60  1  0.86252700  0.64911900  0.07897400  1
  H  H61  1  0.92536000  0.58763700  0.07890300  1
  H  H62  1  0.85212200  0.63822900  0.92371900  1
  H  H63  1  0.91382500  0.57552100  0.92394000  1
  H  H64  1  0.91893700  0.35960600  0.13791400  1
  H  H65  1  0.91934200  0.42109700  0.07516400  1
  H  H66  1  0.13373300  0.42374100  0.85832900  1
  H  H67  1  0.86913200  0.85088000  0.07716600  1
  H  H68  1  0.07013400  0.42475500  0.91916400  1
  H  H69  1  0.99753500  0.56585100  0.93804700  1
  H  H70  1  0.06023300  0.43982900  0.00220200  1
  H  H71  1  0.93408500  0.50410300  0.06508600  1
  H  H72  1  0.35034900  0.57595000  0.87254200  1
  H  H73  1  0.41298600  0.57526400  0.93480100  1
  H  H74  1  0.42493000  0.38062500  0.16061700  1
  H  H75  1  0.42731000  0.44394900  0.09875700  1
  H  H76  1  0.62456500  0.65822300  0.07493800  1
  H  H77  1  0.56214100  0.59579700  0.07558400  1
  H  H78  1  0.84598500  0.87360900  0.92487100  1
  H  H79  1  0.65028600  0.63007600  0.92377500  1
  H  H80  1  0.58949800  0.56585100  0.92534500  1
  H  H81  1  0.56962800  0.33828400  0.12200300  1
  H  H82  1  0.57039200  0.39938500  0.05841100  1
  H  H83  1  0.36833200  0.42291300  0.85212400  1
  H  H84  1  0.50056500  0.56210900  0.93776800  1
  H  H85  1  0.43570700  0.43908800  0.00533800  1
  H  H86  1  0.07571300  0.13694100  0.35399900  1
  H  H87  1  0.07519700  0.07363200  0.41493800  1
  H  H88  1  0.86077200  0.85713000  0.42121700  1
  H  H89  1  0.90786000  0.93660000  0.92522400  1
  H  H90  1  0.92357200  0.91881700  0.42108700  1
  H  H91  1  0.14146500  0.92432700  0.63547300  1
  H  H92  1  0.08023000  0.92424800  0.57208000  1
  H  H93  1  0.13301300  0.07948300  0.64391000  1
  H  H94  1  0.07048500  0.07916400  0.58189900  1
  H  H95  1  0.85255800  0.86658900  0.57666400  1
  H  H96  1  0.91399200  0.92956300  0.57628800  1
  H  H97  1  0.92064300  0.14795600  0.36438200  1
  H  H98  1  0.92043500  0.08580200  0.42650700  1
  H  H99  1  0.06112600  0.06454100  0.49859000  1
  H  H100  1  0.92016300  0.15034200  0.13446900  1
  H  H101  1  0.93397400  0.00207600  0.43536400  1
  H  H102  1  0.99710300  0.93873500  0.56186300  1
  H  H103  1  0.42045000  0.13743700  0.35624400  1
  H  H104  1  0.42011600  0.07416400  0.41720900  1
  H  H105  1  0.63280900  0.85542700  0.42197900  1
  H  H106  1  0.56985600  0.91684100  0.42222000  1
  H  H107  1  0.35181800  0.92405500  0.63598100  1
  H  H108  1  0.41355700  0.92357200  0.57326000  1
  H  H109  1  0.36165100  0.07911500  0.64476400  1
  H  H110  1  0.42475600  0.07839600  0.58342000  1
  H  H111  1  0.91979900  0.08885100  0.07124800  1
  H  H112  1  0.64162100  0.86432000  0.57743200  1
  H  H113  1  0.58001100  0.92701900  0.57743700  1
  H  H114  1  0.57583700  0.14493200  0.36506000  1
  H  H115  1  0.57527700  0.08301600  0.42737300  1
  H  H116  1  0.43441400  0.06395900  0.50031500  1
  H  H117  1  0.56037300  0.99999700  0.43671500  1
  H  H118  1  0.49684100  0.93718700  0.56319800  1
  H  H119  1  0.86342700  0.64737000  0.42467200  1
  H  H120  1  0.92651900  0.58608800  0.42485800  1
  H  H121  1  0.14486900  0.58011300  0.63801100  1
  H  H122  1  0.12487800  0.07639100  0.84733900  1
  H  H123  1  0.08322000  0.57996600  0.57499900  1
  H  H124  1  0.07508100  0.36549200  0.35771400  1
  H  H125  1  0.07570500  0.42830800  0.41953400  1
  H  H126  1  0.91970100  0.35826300  0.36642700  1
  H  H127  1  0.92054800  0.41975800  0.42957800  1
  H  H128  1  0.13387400  0.42526600  0.64828600  1
  H  H129  1  0.07108600  0.42541200  0.58648100  1
  H  H130  1  0.85397800  0.63827500  0.58001800  1
  H  H131  1  0.91588400  0.57582400  0.57992300  1
  H  H132  1  0.93560200  0.50269800  0.43921000  1
  C  C1  1  0.13161100  0.95869700  0.88064900  1
  C  C2  1  0.95409200  0.09908400  0.08765600  1
  C  C3  1  0.49745900  0.35558200  0.14626700  1
  C  C4  1  0.49972200  0.42719900  0.07561900  1
  C  C5  1  0.50075000  0.46537700  0.03844000  1
  C  C6  1  0.64221800  0.64831900  0.99940700  1
  C  C7  1  0.57228500  0.57563100  0.00080000  1
  C  C8  1  0.53630900  0.53605600  0.00154200  1
  C  C9  1  0.50067000  0.53488900  0.96605500  1
  C  C10  1  0.46438300  0.46594100  0.00376300  1
  C  C11  1  0.53742200  0.50022300  0.03721000  1
  C  C12  1  0.04133000  0.12603400  0.36962900  1
  C  C13  1  0.11755200  0.04307300  0.86675200  1
  C  C14  1  0.04109400  0.09024600  0.40464800  1
  C  C15  1  0.87212700  0.87279100  0.45554500  1
  C  C16  1  0.90761500  0.90824600  0.45542300  1
  C  C17  1  0.12613400  0.95859800  0.62402100  1
  C  C18  1  0.09095500  0.95851500  0.58818600  1
  C  C19  1  0.12175300  0.04510900  0.62841600  1
  C  C20  1  0.08642200  0.04497600  0.59275700  1
  C  C21  1  0.86785900  0.87774400  0.54221700  1
  C  C22  1  0.90317800  0.91334400  0.54204500  1
  C  C23  1  0.95487000  0.13190500  0.37514200  1
  C  C24  1  0.08242400  0.04309600  0.90253300  1
  C  C25  1  0.95468300  0.09617800  0.41022900  1
  C  C26  1  0.99821200  0.14710500  0.35468500  1
  C  C27  1  0.99778800  0.07509800  0.42527400  1
  C  C28  1  0.99762100  0.03726100  0.46293700  1
  C  C29  1  0.85213200  0.85724000  0.49896500  1
  C  C30  1  0.92344300  0.92877700  0.49867100  1
  C  C31  1  0.96150400  0.96636100  0.49859500  1
  C  C32  1  0.14178100  0.00191400  0.64430000  1
  C  C33  1  0.07079400  0.00169700  0.57230700  1
  C  C34  1  0.03311400  0.00163300  0.53427100  1
  C  C35  1  0.14199400  0.00073300  0.85529600  1
  C  C36  1  0.03316500  0.03693900  0.49858300  1
  C  C37  1  0.96184800  0.00190200  0.46311700  1
  C  C38  1  0.99724000  0.96640000  0.53406300  1
  C  C39  1  0.45472500  0.12580900  0.37160700  1
  C  C40  1  0.45450100  0.09003000  0.40664700  1
  C  C41  1  0.62150300  0.87085200  0.45639700  1
  C  C42  1  0.58592000  0.90616000  0.45649300  1
  C  C43  1  0.36757100  0.95823100  0.62476100  1
  C  C44  1  0.40307100  0.95790600  0.58931100  1
  C  C45  1  0.37272800  0.04468700  0.62932800  1
  C  C46  1  0.07175100  0.00110000  0.92783900  1
  C  C47  1  0.40840700  0.04431300  0.59406100  1
  C  C48  1  0.62611200  0.87549600  0.54306300  1
  C  C49  1  0.59068000  0.91094400  0.54311300  1
  C  C50  1  0.54135900  0.12967200  0.37619400  1
  C  C51  1  0.54108700  0.09406400  0.41140200  1
  C  C52  1  0.49817000  0.14581400  0.35613300  1
  C  C53  1  0.49766800  0.07391600  0.42688000  1
  C  C54  1  0.49739400  0.03598600  0.46449200  1
  C  C55  1  0.64181700  0.85529500  0.49969200  1
  C  C56  1  0.57028400  0.92656600  0.49983800  1
  C  C57  1  0.03326800  0.00206100  0.96489800  1
  C  C58  1  0.53259600  0.96450100  0.49991200  1
  C  C59  1  0.35211300  0.00163800  0.64491600  1
  C  C60  1  0.42379800  0.00093700  0.57368700  1
  C  C61  1  0.46159200  0.00060500  0.53579300  1
  C  C62  1  0.46197600  0.03602000  0.50020200  1
  C  C63  1  0.53261200  0.00013400  0.46451800  1
  C  C64  1  0.49698700  0.96491900  0.53546300  1
  C  C65  1  0.87464200  0.63196500  0.45905200  1
  C  C66  1  0.91030300  0.59674300  0.45910500  1
  C  C67  1  0.12895000  0.54585900  0.62701400  1
  C  C68  1  0.99772300  0.14922200  0.14427200  1
  C  C69  1  0.09351600  0.54583100  0.59140300  1
  C  C70  1  0.04086100  0.37706100  0.37324700  1
  C  C71  1  0.04126200  0.41257600  0.40879300  1
  C  C72  1  0.95423700  0.37334400  0.37779400  1
  C  C73  1  0.95468400  0.40870600  0.41349200  1
  C  C74  1  0.12309800  0.45953100  0.63247700  1
  C  C75  1  0.08760800  0.45954900  0.59693600  1
  C  C76  1  0.86964300  0.62717000  0.54565800  1
  C  C77  1  0.90523600  0.59188300  0.54566400  1
  C  C78  1  0.85406300  0.64737700  0.50233700  1
  C  C79  1  0.99714500  0.07803500  0.07234200  1
  C  C80  1  0.92582400  0.57636400  0.50239500  1
  C  C81  1  0.96354800  0.53849600  0.50240600  1
  C  C82  1  0.14397900  0.50269400  0.64776600  1
  C  C83  1  0.07254200  0.50268500  0.57609500  1
  C  C84  1  0.03466900  0.50267400  0.53819900  1
  C  C85  1  0.99733000  0.35730400  0.35744000  1
  C  C86  1  0.99818200  0.42870700  0.42920000  1
  C  C87  1  0.99859300  0.46675700  0.46696500  1
  C  C88  1  0.96342600  0.50265900  0.46700800  1
  C  C89  1  0.99926600  0.53834100  0.53790200  1
  C  C90  1  0.99685600  0.03988100  0.03474100  1
  C  C91  1  0.03413400  0.46695000  0.50266200  1
  C  C92  1  0.49724000  0.31829900  0.31931200  1
  C  C93  1  0.49848700  0.18368100  0.31868800  1
  C  C94  1  0.49813700  0.18389600  0.18367100  1
  C  C95  1  0.49690700  0.31833800  0.18421800  1
  C  C96  1  0.31660500  0.50148500  0.68607000  1
  C  C97  1  0.31631900  0.49952300  0.82093500  1
  C  C98  1  0.18132500  0.50071800  0.82049400  1
  C  C99  1  0.18168700  0.50264000  0.68562800  1
  C  C100  1  0.68110200  0.68327700  0.50276100  1
  C  C101  1  0.85273400  0.85819200  0.00118800  1
  C  C102  1  0.81599500  0.68470400  0.50230600  1
  C  C103  1  0.81467700  0.81927700  0.49917500  1
  C  C104  1  0.67978400  0.81786600  0.49963800  1
  C  C105  1  0.62302100  0.62959300  0.45976700  1
  C  C106  1  0.58777500  0.59391200  0.45995900  1
  C  C107  1  0.37004500  0.54409500  0.62780700  1
  C  C108  1  0.40551800  0.54371500  0.59234600  1
  C  C109  1  0.45471600  0.37649000  0.37312300  1
  C  C110  1  0.45516600  0.41169800  0.40895000  1
  C  C111  1  0.54122600  0.37067500  0.37797200  1
  C  C112  1  0.09756400  0.95890400  0.91756300  1
  C  C113  1  0.92432000  0.92937700  0.00108600  1
  C  C114  1  0.54162800  0.40583900  0.41386000  1
  C  C115  1  0.37473600  0.45768700  0.63319500  1
  C  C116  1  0.41028500  0.45735500  0.59779100  1
  C  C117  1  0.62884400  0.62465000  0.54633200  1
  C  C118  1  0.59366400  0.58889400  0.54647600  1
  C  C119  1  0.64372800  0.64522200  0.50296500  1
  C  C120  1  0.57282300  0.57328900  0.50330400  1
  C  C121  1  0.53507900  0.53540700  0.50348700  1
  C  C122  1  0.35441300  0.50107400  0.64843200  1
  C  C123  1  0.42593800  0.50036000  0.57708600  1
  C  C124  1  0.96138600  0.96785700  0.00025400  1
  C  C125  1  0.46377400  0.50002600  0.53928100  1
  C  C126  1  0.49775200  0.35577600  0.35739300  1
  C  C127  1  0.49861000  0.42663000  0.42961400  1
  C  C128  1  0.49904500  0.46425200  0.46774100  1
  C  C129  1  0.53466400  0.49975800  0.46790500  1
  C  C130  1  0.49956700  0.53535200  0.53909800  1
  C  C131  1  0.46369800  0.46453900  0.50353300  1
  C  C132  1  0.11304100  0.91544400  0.98814400  1
  C  C133  1  0.12443900  0.86823200  0.01193900  1
  C  C134  1  0.48365300  0.40870400  0.89251400  1
  C  C135  1  0.99707400  0.96720600  0.96494100  1
  C  C136  1  0.50811900  0.36052300  0.88816800  1
  C  C137  1  0.98425800  0.89203200  0.08821800  1
  C  C138  1  0.01101900  0.88719000  0.13522500  1
  C  C139  1  0.61853200  0.48633900  0.05970100  1
  C  C140  1  0.65587900  0.47452300  0.09714100  1
  C  C141  1  0.03289400  0.03843600  0.99966400  1
  C  C142  1  0.96099500  0.00461800  0.03465900  1
  C  C143  1  0.81491600  0.68583500  0.00136000  1
  C  C144  1  0.68003800  0.68586900  0.99912900  1
  C  C145  1  0.68020200  0.82044400  0.99906400  1
  C  C146  1  0.81496400  0.82054300  0.00128400  1
  C  C147  1  0.31406400  0.00039800  0.81738000  1
  C  C148  1  0.04080200  0.12833000  0.12890000  1
  C  C149  1  0.31424600  0.00198200  0.68249900  1
  C  C150  1  0.17935700  0.00212000  0.68221600  1
  C  C151  1  0.17926100  0.00049700  0.81714900  1
  C  C152  1  0.99843600  0.18520500  0.31748300  1
  C  C153  1  0.99688200  0.31984300  0.31931700  1
  C  C154  1  0.99644900  0.32119900  0.18431900  1
  C  C155  1  0.99805100  0.18659200  0.18248100  1
  C  C156  1  0.36692600  0.95767200  0.87607500  1
  C  C157  1  0.40232000  0.95798600  0.91167500  1
  C  C158  1  0.45423000  0.12642500  0.12997200  1
  C  C159  1  0.04049100  0.09294300  0.09324200  1
  C  C160  1  0.45396300  0.09102300  0.09431900  1
  C  C161  1  0.62224000  0.87346800  0.04266100  1
  C  C162  1  0.58648100  0.90854700  0.04284600  1
  C  C163  1  0.62637700  0.87794800  0.95598000  1
  C  C164  1  0.59077600  0.91320800  0.95621600  1
  C  C165  1  0.54081400  0.13085200  0.12500300  1
  C  C166  1  0.54049500  0.09566400  0.08918600  1
  C  C167  1  0.37224200  0.04405000  0.87044300  1
  C  C168  1  0.40770000  0.04431300  0.90598600  1
  C  C169  1  0.35169000  0.00071100  0.85523700  1
  C  C170  1  0.87712100  0.86983600  0.04369600  1
  C  C171  1  0.42301300  0.00129000  0.92684900  1
  C  C172  1  0.46095500  0.00154800  0.96457800  1
  C  C173  1  0.49768400  0.14644800  0.14560600  1
  C  C174  1  0.49709700  0.07536300  0.07365500  1
  C  C175  1  0.49689500  0.03749500  0.03577200  1
  C  C176  1  0.64236000  0.85792400  0.99922000  1
  C  C177  1  0.57051700  0.92874100  0.99964200  1
  C  C178  1  0.53252900  0.96629900  0.99989200  1
  C  C179  1  0.49666700  0.96622700  0.96457900  1
  C  C180  1  0.46124300  0.03713000  0.00022100  1
  C  C181  1  0.91357900  0.90435400  0.04361800  1
  C  C182  1  0.53243400  0.00197700  0.03543200  1
  C  C183  1  0.12753800  0.54473600  0.87759100  1
  C  C184  1  0.09171100  0.54523100  0.91270600  1
  C  C185  1  0.03998600  0.37916300  0.13138200  1
  C  C186  1  0.04012200  0.41467900  0.09608900  1
  C  C187  1  0.87344800  0.63324500  0.04463600  1
  C  C188  1  0.90896900  0.59790200  0.04465400  1
  C  C189  1  0.86793200  0.62744100  0.95807700  1
  C  C190  1  0.90339700  0.59201500  0.95814200  1
  C  C191  1  0.95336400  0.37494900  0.12673600  1
  C  C192  1  0.86464100  0.88191500  0.95855900  1
  C  C193  1  0.95355000  0.41029800  0.09127100  1
  C  C194  1  0.12249300  0.45824800  0.87346600  1
  C  C195  1  0.08652200  0.45879100  0.90842900  1
  C  C196  1  0.14321700  0.50122600  0.85782800  1
  C  C197  1  0.07091400  0.50226900  0.92840700  1
  C  C198  1  0.03293300  0.50277000  0.96609500  1
  C  C199  1  0.99659900  0.35908400  0.14691400  1
  C  C200  1  0.99692400  0.43043600  0.07565900  1
  C  C201  1  0.99713000  0.46796700  0.03767000  1
  C  C202  1  0.85269200  0.64822700  0.00134400  1
  C  C203  1  0.89998400  0.91748200  0.95864400  1
  C  C204  1  0.92417200  0.57695000  0.00143000  1
  C  C205  1  0.96182400  0.53902000  0.00156200  1
  C  C206  1  0.99743500  0.53835600  0.96602400  1
  C  C207  1  0.03258500  0.46768200  0.00200500  1
  C  C208  1  0.96184800  0.50373100  0.03728300  1
  C  C209  1  0.36810200  0.54201100  0.88115500  1
  C  C210  1  0.40396700  0.54171200  0.91628300  1
  C  C211  1  0.45726000  0.38473400  0.13860900  1
  C  C212  1  0.45853100  0.42056300  0.10359600  1
  C  C213  1  0.61728700  0.63811600  0.04184000  1
  C  C214  1  0.95435700  0.13440700  0.12339900  1
  C  C215  1  0.58203700  0.60248000  0.04232700  1
  C  C216  1  0.63119000  0.62281500  0.95737300  1
  C  C217  1  0.59655500  0.58651900  0.95815800  1
  C  C218  1  0.53826400  0.36153200  0.11755500  1
  C  C219  1  0.53896700  0.39650300  0.08179000  1
  C  C220  1  0.37772400  0.45649600  0.87037900  1
  C  C221  1  0.41477500  0.45628100  0.90437400  1
  C  C222  1  0.35449600  0.49932200  0.85829700  1
  C  C223  1  0.42729800  0.49898200  0.92854000  1
  C  C224  1  0.46489600  0.49969800  0.96669400  1
  N  N1  1  0.09019100  0.91593400  0.94459100  1
  N  N2  1  0.43944300  0.41227100  0.91373200  1
  N  N3  1  0.93987500  0.91307200  0.08700100  1
  N  N4  1  0.57382200  0.50114700  0.07374600  1
  O  O1  1  0.79956900  0.70271600  0.04336100  1
  O  O2  1  0.29864000  0.04217800  0.80039900  1
  O  O3  1  0.29872700  0.96020100  0.69944700  1
  O  O4  1  0.29744200  0.04400300  0.69768600  1
  O  O5  1  0.19471100  0.96033100  0.69926300  1
  O  O6  1  0.19620600  0.04411500  0.69745600  1
  O  O7  1  0.19611900  0.95849100  0.80202200  1
  O  O8  1  0.19461800  0.04229800  0.80007200  1
  O  O9  1  0.04046000  0.20049400  0.30080500  1
  O  O10  1  0.95656300  0.20241500  0.30232300  1
  O  O11  1  0.03867100  0.30295100  0.30353700  1
  O  O12  1  0.79805100  0.70115100  0.95937800  1
  O  O13  1  0.95476200  0.30489600  0.30235800  1
  O  O14  1  0.03834500  0.30403300  0.19948100  1
  O  O15  1  0.95443700  0.30590600  0.20101200  1
  O  O16  1  0.04014800  0.20153600  0.19947300  1
  O  O17  1  0.95623800  0.20347100  0.19824100  1
  O  O18  1  0.45507000  0.30337100  0.30252500  1
  O  O19  1  0.53895800  0.30115200  0.30361100  1
  O  O20  1  0.45667600  0.20094000  0.30335700  1
  O  O21  1  0.54057700  0.19862200  0.30188000  1
  O  O22  1  0.45640800  0.20117400  0.19922500  1
  O  O23  1  0.69691200  0.70152200  0.04108200  1
  O  O24  1  0.54031500  0.19863900  0.20059400  1
  O  O25  1  0.45478600  0.30372300  0.20128100  1
  O  O26  1  0.53871900  0.30100600  0.19940000  1
  O  O27  1  0.30012400  0.54356600  0.70141600  1
  O  O28  1  0.30072900  0.45975100  0.70281900  1
  O  O29  1  0.30114300  0.54149700  0.80416100  1
  O  O30  1  0.29922000  0.45770400  0.80543500  1
  O  O31  1  0.19718500  0.54243300  0.80372000  1
  O  O32  1  0.19787500  0.45862500  0.80522500  1
  O  O33  1  0.19884000  0.54447000  0.70107500  1
  O  O34  1  0.69546700  0.70227500  0.95705700  1
  O  O35  1  0.19677600  0.46069500  0.70251600  1
  O  O36  1  0.69620800  0.69994500  0.46066200  1
  O  O37  1  0.69795100  0.69909900  0.54464100  1
  O  O38  1  0.80020600  0.70104700  0.46029300  1
  O  O39  1  0.79917200  0.70016700  0.54428500  1
  O  O40  1  0.79786100  0.80345400  0.45728700  1
  O  O41  1  0.79954800  0.80261700  0.54127500  1
  O  O42  1  0.69658100  0.80238400  0.45764600  1
  O  O43  1  0.69557300  0.80151700  0.54164000  1
  O  O44  1  0.12525200  0.95336600  0.00778000  1
  O  O45  1  0.69720700  0.80529800  0.04103800  1
  O  O46  1  0.50379700  0.44478700  0.87650500  1
  O  O47  1  0.00264400  0.87649000  0.05090400  1
  O  O48  1  0.62819600  0.48149200  0.01661300  1
  O  O49  1  0.69537000  0.80343600  0.95703800  1
  O  O50  1  0.79980400  0.80384400  0.04332300  1
  O  O51  1  0.79795500  0.80498400  0.95933900  1
  O  O52  1  0.29729200  0.95838100  0.80207600  1
