# generated using pymatgen
data_Fe2H15C39NO17
_symmetry_space_group_name_H-M   'P 1'
_cell_length_a   15.25041300
_cell_length_b   9.27426100
_cell_length_c   16.28181300
_cell_angle_alpha   92.02556500
_cell_angle_beta   102.89184500
_cell_angle_gamma   107.46638400
_symmetry_Int_Tables_number   1
_chemical_formula_structural   Fe2H15C39NO17
_chemical_formula_sum   'Fe2 H15 C39 N1 O17'
_cell_volume   2128.29024488
_cell_formula_units_Z   1
loop_
 _symmetry_equiv_pos_site_id
 _symmetry_equiv_pos_as_xyz
  1  'x, y, z'
loop_
 _atom_site_type_symbol
 _atom_site_label
 _atom_site_symmetry_multiplicity
 _atom_site_fract_x
 _atom_site_fract_y
 _atom_site_fract_z
 _atom_site_occupancy
  Fe  Fe1  1  0.47725900  0.96428000  0.81023900  1
  Fe  Fe2  1  0.49338300  0.98383500  0.18697400  1
  H  H1  1  0.78902900  0.04583800  0.20941300  1
  H  H2  1  0.94406700  0.07091900  0.18359900  1
  H  H3  1  0.82753200  0.04081500  0.91828000  1
  H  H4  1  0.04919500  0.10888600  0.08666300  1
  H  H5  1  0.93412500  0.92495800  0.91597500  1
  H  H6  1  0.03465800  0.93237200  0.81902100  1
  H  H7  1  0.18508600  0.93090800  0.79223000  1
  H  H8  1  0.15915600  0.00588800  0.08442600  1
  H  H9  1  0.54401400  0.84540200  0.60024500  1
  H  H10  1  0.48871900  0.52662500  0.22031800  1
  H  H11  1  0.47122800  0.22619700  0.54045300  1
  H  H12  1  0.49477600  0.25156100  0.42141400  1
  H  H13  1  0.36270000  0.49964500  0.79350500  1
  H  H14  1  0.40344200  0.47505100  0.95931800  1
  H  H15  1  0.56401000  0.41044500  0.99388300  1
  C  C1  1  0.79689000  0.04532200  0.14505400  1
  C  C2  1  0.88435400  0.05892600  0.13057600  1
  C  C3  1  0.89466500  0.04904700  0.04891900  1
  C  C4  1  0.81816000  0.03806600  0.98197800  1
  C  C5  1  0.72959900  0.02431500  0.99563200  1
  C  C6  1  0.71850400  0.02199200  0.07833100  1
  C  C7  1  0.98762200  0.05232300  0.03583900  1
  C  C8  1  0.99634800  0.98229600  0.96609500  1
  C  C9  1  0.09526100  0.94924800  0.87190000  1
  C  C10  1  0.18015900  0.94697300  0.85692100  1
  C  C11  1  0.25949700  0.97291700  0.92302700  1
  C  C12  1  0.25177800  0.99230800  0.00606200  1
  C  C13  1  0.16601800  0.99559100  0.02024200  1
  C  C14  1  0.08829200  0.97833000  0.95331800  1
  C  C15  1  0.47256900  0.17737500  0.69584400  1
  C  C16  1  0.34990300  0.98771100  0.90159800  1
  C  C17  1  0.65224900  0.01857700  0.92144700  1
  C  C18  1  0.52044000  0.72621000  0.73771400  1
  C  C19  1  0.49158400  0.25181400  0.25884000  1
  C  C20  1  0.32965400  0.00150500  0.08036100  1
  C  C21  1  0.62639900  0.99088800  0.09880100  1
  C  C22  1  0.50753000  0.78191000  0.30681400  1
  C  C23  1  0.50387200  0.45535700  0.71422100  1
  C  C24  1  0.49072400  0.32570800  0.66249300  1
  C  C25  1  0.48629000  0.33279600  0.57744400  1
  C  C26  1  0.51267400  0.59305600  0.68077300  1
  C  C27  1  0.51288000  0.60144900  0.59529400  1
  C  C28  1  0.50015300  0.47096600  0.54292000  1
  C  C29  1  0.50012900  0.48254200  0.45703600  1
  C  C30  1  0.49411400  0.36014900  0.40115000  1
  C  C31  1  0.49144800  0.37654800  0.31664700  1
  C  C32  1  0.52741900  0.73958600  0.56171400  1
  C  C33  1  0.50829400  0.62230900  0.42620900  1
  C  C34  1  0.50167500  0.63636600  0.34097800  1
  C  C35  1  0.49149100  0.51302200  0.28636200  1
  C  C36  1  0.49440800  0.44280800  0.80140700  1
  C  C37  1  0.42259300  0.47157600  0.83015000  1
  C  C38  1  0.44356700  0.45964100  0.91461300  1
  C  C39  1  0.52725500  0.42616900  0.93163800  1
  N  N1  1  0.52261900  0.74618300  0.47881400  1
  O  O1  1  0.52745400  0.16165100  0.76724100  1
  O  O2  1  0.42528200  0.10264700  0.93762400  1
  O  O3  1  0.40028200  0.06136100  0.65529800  1
  O  O4  1  0.35157500  0.90093000  0.83680700  1
  O  O5  1  0.56291300  0.97065000  0.92441500  1
  O  O6  1  0.67267300  0.05491400  0.84921000  1
  O  O7  1  0.47020600  0.81737600  0.71356500  1
  O  O8  1  0.57083200  0.74543400  0.81611800  1
  O  O9  1  0.48807000  0.11784000  0.28407800  1
  O  O10  1  0.49745700  0.27468000  0.18087900  1
  O  O11  1  0.40450300  0.96504700  0.07287800  1
  O  O12  1  0.32040200  0.03368600  0.15642600  1
  O  O13  1  0.56805000  0.90885900  0.34928600  1
  O  O14  1  0.61754800  0.07600900  0.16063700  1
  O  O15  1  0.45902800  0.78187900  0.22918200  1
  O  O16  1  0.55974000  0.86115400  0.06875000  1
  O  O17  1  0.55909600  0.41685700  0.86294300  1
