# generated using pymatgen
data_Cu3H30C36(N3O7)2
_symmetry_space_group_name_H-M   'P 1'
_cell_length_a   30.93568500
_cell_length_b   30.86411400
_cell_length_c   24.60294300
_cell_angle_alpha   90.00000000
_cell_angle_beta   128.93881300
_cell_angle_gamma   90.00000000
_symmetry_Int_Tables_number   1
_chemical_formula_structural   Cu3H30C36(N3O7)2
_chemical_formula_sum   'Cu12 H120 C144 N24 O56'
_cell_volume   18271.67516549
_cell_formula_units_Z   4
loop_
 _symmetry_equiv_pos_site_id
 _symmetry_equiv_pos_as_xyz
  1  'x, y, z'
loop_
 _atom_site_type_symbol
 _atom_site_label
 _atom_site_symmetry_multiplicity
 _atom_site_fract_x
 _atom_site_fract_y
 _atom_site_fract_z
 _atom_site_occupancy
  Cu  Cu1  1  0.80026900  0.73072400  0.49963900  1
  Cu  Cu2  1  0.19973100  0.73072400  0.50036100  1
  Cu  Cu3  1  0.30026900  0.23072400  0.49963900  1
  Cu  Cu4  1  0.69973100  0.23072400  0.50036100  1
  Cu  Cu5  1  0.73972300  0.79187000  0.50006900  1
  Cu  Cu6  1  0.26027700  0.79187000  0.49993100  1
  Cu  Cu7  1  0.23972300  0.29187000  0.50006900  1
  Cu  Cu8  1  0.76027700  0.29187000  0.49993100  1
  Cu  Cu9  1  0.46230300  0.53216000  0.43189900  1
  Cu  Cu10  1  0.53769700  0.53216000  0.56810100  1
  Cu  Cu11  1  0.96230300  0.03216000  0.43189900  1
  Cu  Cu12  1  0.03769700  0.03216000  0.56810100  1
  H  H1  1  0.63474200  0.82735300  0.28307700  1
  H  H2  1  0.36525800  0.82735300  0.71692300  1
  H  H3  1  0.13474200  0.32735300  0.28307700  1
  H  H4  1  0.86525800  0.32735300  0.71692300  1
  H  H5  1  0.56512000  0.82680000  0.15712900  1
  H  H6  1  0.43488000  0.82680000  0.84287100  1
  H  H7  1  0.06512000  0.32680000  0.15712900  1
  H  H8  1  0.93488000  0.32680000  0.84287100  1
  H  H9  1  0.61371000  0.69820100  0.15132500  1
  H  H10  1  0.38629000  0.69820100  0.84867500  1
  H  H11  1  0.11371000  0.19820100  0.15132500  1
  H  H12  1  0.88629000  0.19820100  0.84867500  1
  H  H13  1  0.68495700  0.69943900  0.27807000  1
  H  H14  1  0.31504300  0.69943900  0.72193000  1
  H  H15  1  0.18495700  0.19943900  0.27807000  1
  H  H16  1  0.81504300  0.19943900  0.72193000  1
  H  H17  1  0.85886200  0.92887300  0.40567500  1
  H  H18  1  0.14113800  0.92887300  0.59432500  1
  H  H19  1  0.35886200  0.42887300  0.40567500  1
  H  H20  1  0.64113800  0.42887300  0.59432500  1
  H  H21  1  0.92747500  0.93367100  0.56445900  1
  H  H22  1  0.07252500  0.93367100  0.43554100  1
  H  H23  1  0.42747500  0.43367100  0.56445900  1
  H  H24  1  0.57252500  0.43367100  0.43554100  1
  H  H25  1  0.79789300  0.88371800  0.42013600  1
  H  H26  1  0.20210700  0.88371800  0.57986400  1
  H  H27  1  0.29789300  0.38371800  0.42013600  1
  H  H28  1  0.70210700  0.38371800  0.57986400  1
  H  H29  1  0.80658200  0.78104000  0.71290200  1
  H  H30  1  0.19341800  0.78104000  0.28709800  1
  H  H31  1  0.30658200  0.28104000  0.71290200  1
  H  H32  1  0.69341800  0.28104000  0.28709800  1
  H  H33  1  0.86297100  0.77693100  0.83861400  1
  H  H34  1  0.13702900  0.77693100  0.16138600  1
  H  H35  1  0.36297100  0.27693100  0.83861400  1
  H  H36  1  0.63702900  0.27693100  0.16138600  1
  H  H37  1  0.99846300  0.72740000  0.85177200  1
  H  H38  1  0.00153700  0.72740000  0.14822800  1
  H  H39  1  0.49846300  0.22740000  0.85177200  1
  H  H40  1  0.50153700  0.22740000  0.14822800  1
  H  H41  1  0.94106500  0.73041600  0.72502300  1
  H  H42  1  0.05893500  0.73041600  0.27497700  1
  H  H43  1  0.44106500  0.23041600  0.72502300  1
  H  H44  1  0.55893500  0.23041600  0.27497700  1
  H  H45  1  0.64874300  0.62778100  0.59465400  1
  H  H46  1  0.35125700  0.62778100  0.40534600  1
  H  H47  1  0.14874300  0.12778100  0.59465400  1
  H  H48  1  0.85125700  0.12778100  0.40534600  1
  H  H49  1  0.56544500  0.63788600  0.43576700  1
  H  H50  1  0.43455500  0.63788600  0.56423300  1
  H  H51  1  0.06544600  0.13788600  0.43576700  1
  H  H52  1  0.93455500  0.13788600  0.56423300  1
  H  H53  1  0.68365400  0.69757500  0.57671000  1
  H  H54  1  0.31634600  0.69757500  0.42329000  1
  H  H55  1  0.18365400  0.19757500  0.57671000  1
  H  H56  1  0.81634600  0.19757500  0.42329000  1
  H  H57  1  0.62274300  0.67499600  0.36431100  1
  H  H58  1  0.59334100  0.62154800  0.34325900  1
  H  H59  1  0.70656500  0.64784300  0.38531200  1
  H  H60  1  0.64692200  0.62712400  0.30415900  1
  H  H61  1  0.75700000  0.60743300  0.47847100  1
  H  H62  1  0.74207200  0.55135000  0.47654400  1
  H  H63  1  0.71858400  0.59720900  0.53868400  1
  H  H64  1  0.66111400  0.56601100  0.46696300  1
  H  H65  1  0.37725700  0.67499600  0.63568900  1
  H  H66  1  0.40665900  0.62154800  0.65674100  1
  H  H67  1  0.29343500  0.64784300  0.61468800  1
  H  H68  1  0.35307800  0.62712400  0.69584100  1
  H  H69  1  0.24300000  0.60743300  0.52152900  1
  H  H70  1  0.25792800  0.55135000  0.52345600  1
  H  H71  1  0.28141600  0.59720900  0.46131600  1
  H  H72  1  0.33888600  0.56601100  0.53303700  1
  H  H73  1  0.12274300  0.17499600  0.36431100  1
  H  H74  1  0.09334100  0.12154800  0.34325900  1
  H  H75  1  0.20656500  0.14784300  0.38531200  1
  H  H76  1  0.14692200  0.12712400  0.30415900  1
  H  H77  1  0.25700000  0.10743300  0.47847100  1
  H  H78  1  0.24207200  0.05135000  0.47654400  1
  H  H79  1  0.21858400  0.09720900  0.53868400  1
  H  H80  1  0.16111400  0.06601100  0.46696300  1
  H  H81  1  0.87725700  0.17499600  0.63568900  1
  H  H82  1  0.90665900  0.12154800  0.65674100  1
  H  H83  1  0.79343500  0.14784300  0.61468800  1
  H  H84  1  0.85307800  0.12712400  0.69584100  1
  H  H85  1  0.74300000  0.10743300  0.52152900  1
  H  H86  1  0.75792800  0.05135000  0.52345600  1
  H  H87  1  0.78141600  0.09720900  0.46131600  1
  H  H88  1  0.83888600  0.06601100  0.53303700  1
  H  H89  1  0.91836300  0.84688000  0.63664400  1
  H  H90  1  0.98377900  0.86604300  0.66261100  1
  H  H91  1  0.94098600  0.77226900  0.62836400  1
  H  H92  1  0.99792800  0.79487300  0.70991700  1
  H  H93  1  0.94384400  0.76281800  0.54308800  1
  H  H94  1  0.00383800  0.77676000  0.55171200  1
  H  H95  1  0.92369600  0.82800600  0.47533000  1
  H  H96  1  0.98767100  0.85321500  0.54739700  1
  H  H97  1  0.08163700  0.84688000  0.36335600  1
  H  H98  1  0.01622100  0.86604300  0.33738900  1
  H  H99  1  0.05901400  0.77226900  0.37163600  1
  H  H100  1  0.00207200  0.79487300  0.29008300  1
  H  H101  1  0.05615600  0.76281800  0.45691200  1
  H  H102  1  0.99616200  0.77676000  0.44828800  1
  H  H103  1  0.07630400  0.82800600  0.52467000  1
  H  H104  1  0.01232900  0.85321500  0.45260300  1
  H  H105  1  0.41836300  0.34688000  0.63664400  1
  H  H106  1  0.48378000  0.36604300  0.66261100  1
  H  H107  1  0.44098600  0.27226900  0.62836400  1
  H  H108  1  0.49792800  0.29487300  0.70991700  1
  H  H109  1  0.44384400  0.26281800  0.54308800  1
  H  H110  1  0.50383800  0.27676000  0.55171200  1
  H  H111  1  0.42369600  0.32800600  0.47533000  1
  H  H112  1  0.48767100  0.35321500  0.54739700  1
  H  H113  1  0.58163700  0.34688000  0.36335600  1
  H  H114  1  0.51622100  0.36604300  0.33738900  1
  H  H115  1  0.55901400  0.27226900  0.37163600  1
  H  H116  1  0.50207200  0.29487300  0.29008300  1
  H  H117  1  0.55615600  0.26281800  0.45691200  1
  H  H118  1  0.49616200  0.27676000  0.44828800  1
  H  H119  1  0.57630400  0.32800600  0.52467000  1
  H  H120  1  0.51232900  0.35321500  0.45260300  1
  C  C1  1  0.83174700  0.81970100  0.50531700  1
  C  C2  1  0.16825300  0.81970100  0.49468300  1
  C  C3  1  0.33174700  0.31970100  0.50531700  1
  C  C4  1  0.66825300  0.31970100  0.49468300  1
  C  C5  1  0.70417400  0.76345800  0.36568300  1
  C  C6  1  0.29582600  0.76345800  0.63431700  1
  C  C7  1  0.20417400  0.26345800  0.36568300  1
  C  C8  1  0.79582600  0.26345800  0.63431700  1
  C  C9  1  0.70857300  0.70280800  0.49474700  1
  C  C10  1  0.29142700  0.70280800  0.50525300  1
  C  C11  1  0.20857300  0.20280800  0.49474700  1
  C  C12  1  0.79142700  0.20280800  0.50525300  1
  C  C13  1  0.83492300  0.75854000  0.63397500  1
  C  C14  1  0.16507700  0.75854000  0.36602500  1
  C  C15  1  0.33492300  0.25854000  0.63397500  1
  C  C16  1  0.66507700  0.25854000  0.36602500  1
  C  C17  1  0.63078000  0.79894700  0.25456100  1
  C  C18  1  0.36922000  0.79894700  0.74543900  1
  C  C19  1  0.13078000  0.29894700  0.25456100  1
  C  C20  1  0.86922000  0.29894700  0.74543900  1
  C  C21  1  0.59140100  0.79869700  0.18288500  1
  C  C22  1  0.40859900  0.79869700  0.81711500  1
  C  C23  1  0.09140100  0.29869700  0.18288500  1
  C  C24  1  0.90859900  0.29869700  0.81711500  1
  C  C25  1  0.58431900  0.76240600  0.14519700  1
  C  C26  1  0.41568100  0.76240600  0.85480300  1
  C  C27  1  0.08431900  0.26240600  0.14519700  1
  C  C28  1  0.91568100  0.26240600  0.85480300  1
  C  C29  1  0.61831900  0.72681600  0.17987200  1
  C  C30  1  0.38168100  0.72681600  0.82012800  1
  C  C31  1  0.11831900  0.22681600  0.17987200  1
  C  C32  1  0.88168100  0.22681600  0.82012800  1
  C  C33  1  0.65907500  0.72764900  0.25161300  1
  C  C34  1  0.34092500  0.72764900  0.74838700  1
  C  C35  1  0.15907500  0.22764900  0.25161300  1
  C  C36  1  0.84092500  0.22764900  0.74838700  1
  C  C37  1  0.66485400  0.76352400  0.28926900  1
  C  C38  1  0.33514600  0.76352400  0.71073100  1
  C  C39  1  0.16485400  0.26352400  0.28926900  1
  C  C40  1  0.83514600  0.26352400  0.71073100  1
  C  C41  1  0.45941000  0.76197400  0.93081100  1
  C  C42  1  0.54059000  0.76197400  0.06918900  1
  C  C43  1  0.95941000  0.26197400  0.93081100  1
  C  C44  1  0.04059000  0.26197400  0.06918900  1
  C  C45  1  0.87367300  0.91914400  0.45712400  1
  C  C46  1  0.12632700  0.91914400  0.54287600  1
  C  C47  1  0.37367300  0.41914400  0.45712400  1
  C  C48  1  0.62632700  0.41914400  0.54287600  1
  C  C49  1  0.91577300  0.94046300  0.51356200  1
  C  C50  1  0.08422700  0.94046300  0.48643800  1
  C  C51  1  0.41577300  0.44046300  0.51356200  1
  C  C52  1  0.58422700  0.44046300  0.48643800  1
  C  C53  1  0.84250400  0.88504900  0.46124600  1
  C  C54  1  0.15749600  0.88504900  0.53875400  1
  C  C55  1  0.34250400  0.38504900  0.46124600  1
  C  C56  1  0.65749600  0.38504900  0.53875400  1
  C  C57  1  0.86692100  0.85307800  0.50840400  1
  C  C58  1  0.13307900  0.85307800  0.49159600  1
  C  C59  1  0.36692100  0.35307800  0.50840400  1
  C  C60  1  0.63307900  0.35307800  0.49159600  1
  C  C61  1  0.84872800  0.76925600  0.74287400  1
  C  C62  1  0.15127200  0.76925600  0.25712600  1
  C  C63  1  0.34872800  0.26925600  0.74287400  1
  C  C64  1  0.65127200  0.26925600  0.25712600  1
  C  C65  1  0.88063400  0.76651600  0.81437200  1
  C  C66  1  0.11936600  0.76651600  0.18562800  1
  C  C67  1  0.38063400  0.26651600  0.81437200  1
  C  C68  1  0.61936600  0.26651600  0.18562800  1
  C  C69  1  0.93472600  0.75182300  0.85419800  1
  C  C70  1  0.06527400  0.75182300  0.14580200  1
  C  C71  1  0.43472600  0.25182300  0.85419800  1
  C  C72  1  0.56527400  0.25182300  0.14580200  1
  C  C73  1  0.95631300  0.73921100  0.82161300  1
  C  C74  1  0.04368700  0.73921100  0.17838700  1
  C  C75  1  0.45631300  0.23921100  0.82161300  1
  C  C76  1  0.54368700  0.23921100  0.17838700  1
  C  C77  1  0.92372000  0.74070000  0.74971800  1
  C  C78  1  0.07628000  0.74070000  0.25028200  1
  C  C79  1  0.42372000  0.24070000  0.74971800  1
  C  C80  1  0.57628000  0.24070000  0.25028200  1
  C  C81  1  0.86994900  0.75615200  0.71015100  1
  C  C82  1  0.13005100  0.75615200  0.28984900  1
  C  C83  1  0.36994900  0.25615200  0.71015200  1
  C  C84  1  0.63005100  0.25615200  0.28984900  1
  C  C85  1  0.03109500  0.75037200  0.06958000  1
  C  C86  1  0.96890500  0.75037200  0.93042000  1
  C  C87  1  0.53109500  0.25037200  0.06958000  1
  C  C88  1  0.46890500  0.25037200  0.93042000  1
  C  C89  1  0.63294500  0.63841700  0.54315400  1
  C  C90  1  0.36705500  0.63841700  0.45684600  1
  C  C91  1  0.13294500  0.13841700  0.54315400  1
  C  C92  1  0.86705500  0.13841700  0.45684600  1
  C  C93  1  0.58399500  0.62401400  0.48659400  1
  C  C94  1  0.41600500  0.62401400  0.51340600  1
  C  C95  1  0.08399500  0.12401400  0.48659400  1
  C  C96  1  0.91600500  0.12401400  0.51340600  1
  C  C97  1  0.66414500  0.67185400  0.53814800  1
  C  C98  1  0.33585500  0.67185400  0.46185200  1
  C  C99  1  0.16414500  0.17185400  0.53814800  1
  C  C100  1  0.83585500  0.17185400  0.46185200  1
  C  C101  1  0.67441200  0.66917600  0.49298700  1
  C  C102  1  0.32558800  0.66917600  0.50701300  1
  C  C103  1  0.17441200  0.16917600  0.49298700  1
  C  C104  1  0.82558800  0.16917600  0.50701300  1
  C  C105  1  0.44653800  0.59052300  0.50794500  1
  C  C106  1  0.55346200  0.59052300  0.49205500  1
  C  C107  1  0.94653800  0.09052300  0.50794500  1
  C  C108  1  0.05346200  0.09052300  0.49205500  1
  C  C109  1  0.94611100  0.97424600  0.50804700  1
  C  C110  1  0.05388900  0.97424600  0.49195300  1
  C  C111  1  0.44611100  0.47424600  0.50804700  1
  C  C112  1  0.55388900  0.47424600  0.49195300  1
  C  C113  1  0.63267100  0.64013800  0.37708300  1
  C  C114  1  0.67070500  0.62568200  0.36151200  1
  C  C115  1  0.72280400  0.58376100  0.45656500  1
  C  C116  1  0.68953700  0.59350000  0.48106300  1
  C  C117  1  0.36732900  0.64013800  0.62291700  1
  C  C118  1  0.32929500  0.62568200  0.63848800  1
  C  C119  1  0.27719600  0.58376100  0.54343500  1
  C  C120  1  0.31046300  0.59350000  0.51893700  1
  C  C121  1  0.13267100  0.14013800  0.37708300  1
  C  C122  1  0.17070500  0.12568200  0.36151200  1
  C  C123  1  0.22280400  0.08376100  0.45656500  1
  C  C124  1  0.18953700  0.09350000  0.48106300  1
  C  C125  1  0.86732900  0.14013800  0.62291700  1
  C  C126  1  0.82929500  0.12568200  0.63848800  1
  C  C127  1  0.77719600  0.08376100  0.54343500  1
  C  C128  1  0.81046300  0.09350000  0.51893700  1
  C  C129  1  0.94995400  0.84221200  0.62933400  1
  C  C130  1  0.97414200  0.79705000  0.65261800  1
  C  C131  1  0.97734500  0.78718100  0.56518200  1
  C  C132  1  0.95345100  0.83135500  0.53299800  1
  C  C133  1  0.05004600  0.84221200  0.37066600  1
  C  C134  1  0.02585800  0.79705000  0.34738200  1
  C  C135  1  0.02265500  0.78718100  0.43481800  1
  C  C136  1  0.04654900  0.83135500  0.46700200  1
  C  C137  1  0.44995400  0.34221200  0.62933400  1
  C  C138  1  0.47414200  0.29705000  0.65261800  1
  C  C139  1  0.47734500  0.28718100  0.56518200  1
  C  C140  1  0.45345100  0.33135500  0.53299800  1
  C  C141  1  0.55004600  0.34221200  0.37066600  1
  C  C142  1  0.52585800  0.29705000  0.34738200  1
  C  C143  1  0.52265500  0.28718100  0.43481800  1
  C  C144  1  0.54654900  0.33135500  0.46700200  1
  N  N1  1  0.52016700  0.72424400  0.03421600  1
  N  N2  1  0.47983300  0.72424400  0.96578400  1
  N  N3  1  0.02016700  0.22424400  0.03421600  1
  N  N4  1  0.97983300  0.22424400  0.96578400  1
  N  N5  1  0.48008600  0.79961300  0.96579800  1
  N  N6  1  0.51991400  0.79961300  0.03420200  1
  N  N7  1  0.98008600  0.29961300  0.96579800  1
  N  N8  1  0.01991400  0.29961300  0.03420200  1
  N  N9  1  0.02465100  0.75012400  0.97069800  1
  N  N10  1  0.97534900  0.75012400  0.02930200  1
  N  N11  1  0.52465100  0.25012400  0.97069800  1
  N  N12  1  0.47534900  0.25012400  0.02930200  1
  N  N13  1  0.05538100  0.75035700  0.03950500  1
  N  N14  1  0.94461900  0.75035700  0.96049500  1
  N  N15  1  0.55538100  0.25035700  0.03950500  1
  N  N16  1  0.44461900  0.25035700  0.96049500  1
  N  N17  1  0.65724700  0.63245500  0.44906500  1
  N  N18  1  0.34275300  0.63245500  0.55093500  1
  N  N19  1  0.15724700  0.13245500  0.44906500  1
  N  N20  1  0.84275300  0.13245500  0.55093500  1
  N  N21  1  0.92565800  0.84980700  0.55744500  1
  N  N22  1  0.07434200  0.84980700  0.44255500  1
  N  N23  1  0.42565800  0.34980700  0.55744500  1
  N  N24  1  0.57434200  0.34980700  0.44255500  1
  O  O1  1  0.84425100  0.77900200  0.50648900  1
  O  O2  1  0.15574900  0.77900200  0.49351100  1
  O  O3  1  0.34425100  0.27900200  0.50648900  1
  O  O4  1  0.65574900  0.27900200  0.49351100  1
  O  O5  1  0.78880300  0.83193800  0.50045400  1
  O  O6  1  0.21119700  0.83193800  0.49954600  1
  O  O7  1  0.28880300  0.33193800  0.50045400  1
  O  O8  1  0.71119700  0.33193800  0.49954600  1
  O  O9  1  0.74794900  0.73807700  0.39824800  1
  O  O10  1  0.25205100  0.73807700  0.60175200  1
  O  O11  1  0.24794900  0.23807700  0.39824800  1
  O  O12  1  0.75205100  0.23807700  0.60175200  1
  O  O13  1  0.69283800  0.78829500  0.39844300  1
  O  O14  1  0.30716200  0.78829500  0.60155700  1
  O  O15  1  0.19283800  0.28829500  0.39844300  1
  O  O16  1  0.80716200  0.28829500  0.60155700  1
  O  O17  1  0.75099800  0.69062200  0.49867700  1
  O  O18  1  0.24900200  0.69062200  0.50132300  1
  O  O19  1  0.25099800  0.19062200  0.49867700  1
  O  O20  1  0.74900200  0.19062200  0.50132300  1
  O  O21  1  0.69605200  0.74355500  0.49392500  1
  O  O22  1  0.30394800  0.74355500  0.50607500  1
  O  O23  1  0.19605200  0.24355500  0.49392500  1
  O  O24  1  0.80394800  0.24355500  0.50607500  1
  O  O25  1  0.84689200  0.73409300  0.60136100  1
  O  O26  1  0.15310800  0.73409300  0.39863800  1
  O  O27  1  0.34689200  0.23409300  0.60136200  1
  O  O28  1  0.65310800  0.23409300  0.39863900  1
  O  O29  1  0.79198500  0.78461000  0.60135900  1
  O  O30  1  0.20801500  0.78461000  0.39864000  1
  O  O31  1  0.29198500  0.28461000  0.60136000  1
  O  O32  1  0.70801500  0.28461000  0.39864100  1
  O  O33  1  0.42014400  0.56771600  0.44970700  1
  O  O34  1  0.57985600  0.56771600  0.55029300  1
  O  O35  1  0.92014400  0.06771600  0.44970700  1
  O  O36  1  0.07985600  0.06771600  0.55029300  1
  O  O37  1  0.49907500  0.58416600  0.56258400  1
  O  O38  1  0.50092500  0.58416600  0.43741600  1
  O  O39  1  0.99907500  0.08416600  0.56258400  1
  O  O40  1  0.00092500  0.08416600  0.43741600  1
  O  O41  1  0.93532400  0.98023400  0.44742700  1
  O  O42  1  0.06467600  0.98023400  0.55257300  1
  O  O43  1  0.43532400  0.48023400  0.44742700  1
  O  O44  1  0.56467600  0.48023400  0.55257300  1
  O  O45  1  0.98382100  0.99666700  0.56484200  1
  O  O46  1  0.01617900  0.99666700  0.43515800  1
  O  O47  1  0.48382100  0.49666700  0.56484200  1
  O  O48  1  0.51617900  0.49666700  0.43515800  1
  O  O49  1  0.68804700  0.58301200  0.38363000  1
  O  O50  1  0.31195300  0.58301200  0.61637000  1
  O  O51  1  0.18804700  0.08301200  0.38363000  1
  O  O52  1  0.81195300  0.08301200  0.61637000  1
  O  O53  1  0.01030400  0.78932200  0.63788800  1
  O  O54  1  0.98969600  0.78932200  0.36211200  1
  O  O55  1  0.51030400  0.28932200  0.63788800  1
  O  O56  1  0.48969600  0.28932200  0.36211200  1
