# Generated by REPEAT Assigner based on pymatgen
data_DB0-m3_o146_o4_f0_fsc.sym.128_sqe
_audit_creation_date              2022-05-24
_audit_creation_method            REPEAT_Assigner
_cell_length_a                    15.338502
_cell_length_b                    11.712346
_cell_length_c                    9.281157
_cell_angle_alpha                 90.154535
_cell_angle_beta                  89.996787
_cell_angle_gamma                 90.000000
_cell_volume                      1667.352323
_symmetry_space_group_name_H-M    P1
_symmetry_Int_Tables_number       1
loop_
    _symmetry_equiv_pos_site_id
    _symmetry_equiv_pos_as_xyz
    1  x,y,z
loop_
    _atom_site_type_symbol
    _atom_site_label
    _atom_site_fract_x
    _atom_site_fract_y
    _atom_site_fract_z
    _atom_type_partial_charge
    C   C1   0.305581  0.727052  0.005391  -0.084613
    C   C2   0.080806  0.935517  0.014236  -0.012101
    C   C3   0.179022  0.796655  0.128395  -0.139554
    H   H1   0.135740  0.793682  0.220238  0.097700
    C   C4   0.287863  0.799280  0.891729  -0.122602
    H   H2   0.329181  0.799830  0.797396  0.113473
    C   C5   0.251700  0.727614  0.124858  -0.099518
    H   H3   0.263709  0.670795  0.214226  0.101839
    C   C6   0.161481  0.869035  0.015263  0.189343
    C   C7   0.216735  0.871347  0.897729  -0.144067
    H   H4   0.202221  0.925449  0.806663  0.094817
    C   C8   0.308894  0.255171  0.987347  -0.051192
    C   C9   0.081819  0.050941  0.984145  -0.006900
    C   C10  0.181202  0.186492  0.866787  -0.160163
    H   H5   0.137324  0.189878  0.775751  0.103886
    C   C11  0.291413  0.183344  0.101560  -0.178856
    H   H6   0.333126  0.182801  0.195317  0.140077
    C   C12  0.254396  0.254582  0.868654  -0.069221
    H   H7   0.266077  0.311055  0.778824  0.096943
    C   C13  0.163614  0.115021  0.980814  0.193945
    C   C14  0.219711  0.112114  0.097194  -0.119395
    H   H8   0.205269  0.058600  0.188847  0.085838
    C   C15  0.696056  0.733503  0.001772  -0.027881
    C   C16  0.924424  0.937641  0.013419  -0.056460
    C   C17  0.821638  0.804435  0.128202  -0.097820
    H   H9   0.863034  0.803137  0.222450  0.119097
    C   C18  0.717377  0.803379  0.886014  -0.056105
    C   C19  0.748246  0.736474  0.123551  -0.107113
    H   H10  0.734320  0.682353  0.214789  0.132870
    C   C20  0.842805  0.872811  0.012866  0.186176
    C   C21  0.790254  0.872156  0.892150  -0.098890
    C   C22  0.002115  0.879705  0.030336  -0.168168
    C   C23  0.699350  0.260282  0.985706  -0.073583
    C   C24  0.925474  0.053475  0.984446  0.051558
    C   C25  0.829662  0.195489  0.869657  -0.103926
    H   H11  0.875351  0.201813  0.781359  0.113667
    C   C26  0.714700  0.185289  0.097392  -0.135830
    H   H12  0.670913  0.181516  0.188191  0.120301
    C   C27  0.756351  0.263539  0.870491  -0.077153
    H   H13  0.746260  0.322793  0.783005  0.090949
    C   C28  0.844737  0.120096  0.980880  0.127734
    C   C29  0.786415  0.114242  0.093967  -0.143893
    H   H14  0.798768  0.058182  0.183988  0.101491
    C   C30  0.004193  0.109146  0.968474  -0.161235
    H   H15  0.001250  0.788447  0.047365  0.088845
    H   H16  0.005162  0.200379  0.951316  0.075895
    O   O1   0.595601  0.608025  0.118711  -0.590918
    O   O2   0.591832  0.619139  0.871271  -0.538900
    C   C31  0.623048  0.651563  0.996597  0.599936
    O   O3   0.597142  0.382207  0.869602  -0.632522
    O   O4   0.594888  0.370661  0.117750  -0.637383
    C   C32  0.625885  0.340080  0.991441  0.675228
    O   O5   0.408897  0.379224  0.870877  -0.603280
    O   O6   0.412863  0.367498  0.119048  -0.626279
    C   C33  0.381641  0.336128  0.993031  0.653260
    O   O7   0.407346  0.604503  0.120268  -0.625386
    O   O8   0.409801  0.616425  0.872438  -0.653274
    C   C34  0.378657  0.646768  0.998703  0.721701
    Zn  Zn1  0.501823  0.497151  0.834563  0.987457
    Zn  Zn2  0.502777  0.489816  0.155425  1.023758
    C   C35  0.508740  0.396861  0.427877  0.189190
    N   N1   0.503271  0.489634  0.344840  -0.146348
    C   C36  0.496431  0.590375  0.416094  0.002323
    H   H17  0.491550  0.669125  0.356260  0.106047
    C   C37  0.495013  0.594485  0.566953  -0.021066
    H   H18  0.487963  0.675761  0.620789  0.187577
    N   N2   0.501354  0.497756  0.645298  -0.163449
    C   C38  0.508378  0.400918  0.569335  0.236173
    C   C39  0.512762  0.275502  0.588620  -0.183515
    C   C40  0.513311  0.270720  0.419396  -0.182211
    H   H19  0.575242  0.247079  0.636675  0.116569
    H   H20  0.452267  0.239909  0.636038  0.092881
    H   H21  0.576137  0.240130  0.375195  0.114133
    H   H22  0.453250  0.232413  0.373807  0.108734
    C   C41  0.665938  0.807180  0.756947  0.357505
    N   N3   0.625016  0.811055  0.652415  -0.439630
    C   C42  0.814599  0.935586  0.766273  0.395063
    N   N4   0.834170  0.986343  0.664512  -0.453579
