# Generated by REPEAT Assigner based on pymatgen
data_DB0-m3_o2_o14_f0_pcu.sym.47_sqe
_audit_creation_date              2022-05-24
_audit_creation_method            REPEAT_Assigner
_cell_length_a                    15.278805
_cell_length_b                    13.997728
_cell_length_c                    11.144414
_cell_angle_alpha                 90.000000
_cell_angle_beta                  89.995970
_cell_angle_gamma                 90.000000
_cell_volume                      2383.439859
_symmetry_space_group_name_H-M    P1
_symmetry_Int_Tables_number       1
loop_
    _symmetry_equiv_pos_site_id
    _symmetry_equiv_pos_as_xyz
    1  x,y,z
loop_
    _atom_site_type_symbol
    _atom_site_label
    _atom_site_fract_x
    _atom_site_fract_y
    _atom_site_fract_z
    _atom_type_partial_charge
    O   O1   0.369602  0.585905  0.497378  -0.599468
    O   O2   0.630397  0.585905  0.502622  -0.599470
    O   O3   0.369479  0.422331  0.495106  -0.639580
    O   O4   0.630521  0.422331  0.504894  -0.639578
    C   C1   0.327900  0.504287  0.496423  0.627032
    C   C2   0.672100  0.504287  0.503577  0.627034
    O   O5   0.502049  0.585383  0.321282  -0.644597
    O   O6   0.497951  0.585383  0.678718  -0.644590
    O   O7   0.503975  0.422595  0.321191  -0.644782
    O   O8   0.496025  0.422595  0.678810  -0.644770
    C   C3   0.506158  0.504164  0.262611  0.782139
    C   C4   0.493842  0.504164  0.737390  0.782116
    Zn  Zn1  0.500000  0.611880  0.500000  1.008471
    Zn  Zn2  0.500000  0.396157  0.500000  1.029551
    C   C5   0.536916  0.677115  0.111070  -0.256335
    C   C6   0.463084  0.677115  0.888930  -0.256350
    H   H1   0.573443  0.681437  0.193151  0.186526
    H   H2   0.426556  0.681437  0.806850  0.186522
    C   C7   0.521245  0.762195  0.053854  -0.072405
    C   C8   0.478755  0.762195  0.946146  -0.072379
    H   H3   0.539473  0.828882  0.095905  0.065179
    H   H4   0.460527  0.828881  0.904095  0.065177
    C   C9   0.488525  0.590262  0.939372  0.188648
    C   C10  0.511474  0.590262  0.060628  0.188654
    C   C11  0.510367  0.504702  0.127045  -0.272668
    C   C12  0.489633  0.504702  0.872955  -0.272648
    C   C13  0.503998  0.419321  0.062186  -0.031544
    C   C14  0.496002  0.419321  0.937814  -0.031544
    C   C15  0.091967  0.577750  0.535213  -0.185916
    C   C16  0.908032  0.577750  0.464787  -0.185702
    H   H5   0.056316  0.639635  0.566247  0.081160
    H   H6   0.943684  0.639635  0.433753  0.081104
    C   C17  0.181863  0.582904  0.533728  0.028343
    C   C18  0.818137  0.582904  0.466272  0.028265
    C   C19  0.231100  0.503600  0.499254  -0.063081
    C   C20  0.768900  0.503600  0.500746  -0.063042
    C   C21  0.187099  0.420413  0.468581  -0.165603
    C   C22  0.812901  0.420413  0.531419  -0.165661
    H   H7   0.222927  0.357597  0.441026  0.153653
    H   H8   0.777073  0.357596  0.558974  0.153660
    C   C23  0.096632  0.416535  0.469089  -0.156586
    C   C24  0.903368  0.416535  0.530912  -0.156484
    H   H9   0.064578  0.351550  0.440704  0.105977
    H   H10  0.935422  0.351550  0.559296  0.105962
    C   C25  0.048247  0.495826  0.501468  0.111605
    C   C26  0.951753  0.495826  0.498532  0.111372
    C   C27  0.423633  0.106522  0.480923  -0.175476
    C   C28  0.576367  0.106522  0.519077  -0.175472
    H   H11  0.362266  0.069661  0.467419  0.111263
    H   H12  0.637734  0.069661  0.532581  0.111262
    C   C29  0.424713  0.205063  0.481666  0.078367
    C   C30  0.575287  0.205063  0.518334  0.078367
    H   H13  0.364348  0.243257  0.466812  0.089393
    H   H14  0.635652  0.243257  0.533189  0.089392
    N   N1   0.500000  0.253133  0.500000  -0.071784
    C   C31  0.500000  0.056178  0.500000  0.203067
    C   C32  0.547252  0.900961  0.584586  -0.131038
    C   C33  0.452748  0.900961  0.415414  -0.131037
    H   H15  0.583934  0.937839  0.653357  0.106138
    H   H16  0.416065  0.937839  0.346644  0.106137
    C   C34  0.546188  0.802444  0.583648  0.086216
    C   C35  0.453812  0.802444  0.416352  0.086213
    H   H17  0.582914  0.763424  0.650480  0.098080
    H   H18  0.417086  0.763424  0.349520  0.098078
    N   N2   0.500000  0.754786  0.500000  -0.125994
    C   C36  0.500000  0.951260  0.500000  0.013239
    C   C37  0.511735  0.325228  0.119723  0.332079
    C   C38  0.593580  0.288640  0.146608  -0.044488
    Cl  Cl1  0.687824  0.357459  0.123139  -0.051188
    C   C39  0.601640  0.196539  0.188956  -0.130168
    C   C40  0.528251  0.140751  0.204733  -0.096373
    C   C41  0.446420  0.178015  0.182006  -0.170924
    C   C42  0.438037  0.270405  0.140829  -0.120275
    H   H19  0.665728  0.167534  0.207965  0.081887
    H   H20  0.534886  0.067934  0.235590  0.087434
    H   H21  0.388796  0.134544  0.195664  0.109309
    H   H22  0.373768  0.298949  0.122221  0.061015
    C   C43  0.488265  0.325228  0.880277  0.332060
    C   C44  0.406420  0.288640  0.853393  -0.044485
    Cl  Cl2  0.312176  0.357458  0.876862  -0.051188
    C   C45  0.398360  0.196539  0.811044  -0.130167
    C   C46  0.471749  0.140751  0.795267  -0.096371
    C   C47  0.553580  0.178015  0.817995  -0.170921
    C   C48  0.561963  0.270405  0.859171  -0.120272
    H   H23  0.334272  0.167534  0.792036  0.081887
    H   H24  0.465115  0.067934  0.764410  0.087432
    H   H25  0.611204  0.134544  0.804336  0.109307
    H   H26  0.626232  0.298949  0.877779  0.061015
    C   C49  0.219689  0.673778  0.572139  0.401274
    C   C50  0.241257  0.688116  0.691065  -0.134834
    Cl  Cl3  0.231982  0.594364  0.794346  -0.062108
    C   C51  0.267450  0.777290  0.729611  -0.023106
    C   C52  0.271623  0.852319  0.649714  -0.234135
    C   C53  0.248545  0.838499  0.531443  -0.032851
    C   C54  0.222208  0.749466  0.492844  -0.290604
    H   H27  0.283694  0.788676  0.822911  0.088660
    H   H28  0.291806  0.922256  0.680161  0.133673
    H   H29  0.250279  0.897681  0.469181  0.087305
    H   H30  0.202378  0.739267  0.400614  0.119536
    C   C55  0.780311  0.673778  0.427862  0.401286
    C   C56  0.758743  0.688116  0.308935  -0.134857
    Cl  Cl4  0.768018  0.594365  0.205655  -0.062106
    C   C57  0.732549  0.777290  0.270389  -0.023082
    C   C58  0.728377  0.852319  0.350287  -0.234152
    C   C59  0.751455  0.838499  0.468558  -0.032847
    C   C60  0.777792  0.749466  0.507157  -0.290608
    H   H31  0.716305  0.788676  0.177089  0.088657
    H   H32  0.708194  0.922256  0.319840  0.133675
    H   H33  0.749721  0.897681  0.530820  0.087306
    H   H34  0.797622  0.739267  0.599386  0.119534
