# generated using pymatgen
data_ZnH58C53(NO3)2
_symmetry_space_group_name_H-M   'P 1'
_cell_length_a   16.29520900
_cell_length_b   17.46904200
_cell_length_c   27.56948300
_cell_angle_alpha   89.98627700
_cell_angle_beta   92.93750600
_cell_angle_gamma   89.07442000
_symmetry_Int_Tables_number   1
_chemical_formula_structural   ZnH58C53(NO3)2
_chemical_formula_sum   'Zn2 H116 C106 N4 O12'
_cell_volume   7836.63645695
_cell_formula_units_Z   2
loop_
 _symmetry_equiv_pos_site_id
 _symmetry_equiv_pos_as_xyz
  1  'x, y, z'
loop_
 _atom_site_type_symbol
 _atom_site_label
 _atom_site_symmetry_multiplicity
 _atom_site_fract_x
 _atom_site_fract_y
 _atom_site_fract_z
 _atom_site_occupancy
  Zn  Zn1  1  0.40615800  0.52024000  0.50204100  1
  Zn  Zn2  1  0.59242500  0.51169700  0.50362900  1
  H  H1  1  0.62112100  0.56251400  0.75543500  1
  H  H2  1  0.58415000  0.43591600  0.25517100  1
  H  H3  1  0.36956300  0.55161600  0.35095700  1
  H  H4  1  0.38174400  0.49059500  0.65157500  1
  H  H5  1  0.35276200  0.54916200  0.26331300  1
  H  H6  1  0.37616200  0.48496100  0.73895100  1
  H  H7  1  0.42032500  0.68258500  0.03438700  1
  H  H8  1  0.45798300  0.31287300  0.96290100  1
  H  H9  1  0.50547500  0.68844600  0.97944200  1
  H  H10  1  0.50595100  0.31017300  0.03379300  1
  H  H11  1  0.51949200  0.01749100  0.55528600  1
  H  H12  1  0.45049200  0.01500400  0.45010200  1
  H  H13  1  0.40170000  0.89199400  0.42892600  1
  H  H14  1  0.49691400  0.13543800  0.59126600  1
  H  H15  1  0.49634700  0.12984400  0.43797300  1
  H  H16  1  0.58460700  0.91078200  0.54139400  1
  H  H17  1  0.72781600  0.62337500  0.49088900  1
  H  H18  1  0.27519400  0.45361300  0.56067700  1
  H  H19  1  0.27728300  0.60083800  0.44022600  1
  H  H20  1  0.71971700  0.38743900  0.52062700  1
  H  H21  1  0.99811000  0.58846900  0.47189300  1
  H  H22  1  0.00083900  0.43942900  0.53019400  1
  H  H23  1  0.86917700  0.37908200  0.52447200  1
  H  H24  1  0.12707300  0.60939300  0.43638300  1
  H  H25  1  0.12634800  0.46087900  0.55979300  1
  H  H26  1  0.87581300  0.61939800  0.49600300  1
  H  H27  1  0.66927700  0.63091300  0.68580100  1
  H  H28  1  0.65139400  0.59652700  0.62649400  1
  H  H29  1  0.73580600  0.51237300  0.71423300  1
  H  H30  1  0.69816900  0.44979600  0.61150400  1
  H  H31  1  0.65284500  0.41742600  0.66637800  1
  H  H32  1  0.76082900  0.40428200  0.65903000  1
  H  H33  1  0.79483700  0.56050800  0.61496200  1
  H  H34  1  0.85494900  0.51138500  0.66271700  1
  H  H35  1  0.81766600  0.60767400  0.67242400  1
  H  H36  1  0.62393800  0.36264300  0.32954900  1
  H  H37  1  0.62155200  0.40664400  0.38660800  1
  H  H38  1  0.70919900  0.46394100  0.29720700  1
  H  H39  1  0.70599300  0.53496500  0.39896600  1
  H  H40  1  0.65688200  0.57574400  0.34418500  1
  H  H41  1  0.76673300  0.56509400  0.35003700  1
  H  H42  1  0.77287400  0.40618400  0.39753300  1
  H  H43  1  0.83408000  0.43817200  0.34874900  1
  H  H44  1  0.77358600  0.35297400  0.34123500  1
  H  H45  1  0.44118800  0.33209800  0.60065100  1
  H  H46  1  0.55142600  0.33397200  0.60096600  1
  H  H47  1  0.45886400  0.20595200  0.65042200  1
  H  H48  1  0.63256300  0.27206700  0.66820400  1
  H  H49  1  0.61361300  0.18895500  0.63115400  1
  H  H50  1  0.59182000  0.18706400  0.69454100  1
  H  H51  1  0.52204900  0.35732500  0.69096600  1
  H  H52  1  0.48710400  0.27709900  0.72543900  1
  H  H53  1  0.41613900  0.32752600  0.68407000  1
  H  H54  1  0.34409900  0.76113800  0.41276200  1
  H  H55  1  0.41414500  0.68154200  0.41630700  1
  H  H56  1  0.45536900  0.82854900  0.36264000  1
  H  H57  1  0.51740400  0.66186800  0.35881900  1
  H  H58  1  0.57112000  0.73997000  0.38856800  1
  H  H59  1  0.55144700  0.74139500  0.32371100  1
  H  H60  1  0.36741500  0.68450500  0.32651200  1
  H  H61  1  0.41221600  0.75498700  0.28827800  1
  H  H62  1  0.32824400  0.78173700  0.32525500  1
  H  H63  1  0.51820400  0.76178400  0.89873700  1
  H  H64  1  0.57905100  0.70963200  0.85711600  1
  H  H65  1  0.62801100  0.73482600  0.96378800  1
  H  H66  1  0.70401700  0.64016400  0.88279800  1
  H  H67  1  0.67457300  0.60626600  0.94142300  1
  H  H68  1  0.75914000  0.67032800  0.93781900  1
  H  H69  1  0.70037800  0.78510300  0.86882200  1
  H  H70  1  0.73641100  0.80782800  0.93015500  1
  H  H71  1  0.63823100  0.84472900  0.90672800  1
  H  H72  1  0.47519000  0.23641800  0.09469000  1
  H  H73  1  0.46753200  0.26250600  0.15432000  1
  H  H74  1  0.62324100  0.28091400  0.09571700  1
  H  H75  1  0.60026900  0.28529200  0.20570100  1
  H  H76  1  0.62386400  0.36596100  0.16750600  1
  H  H77  1  0.69667300  0.28852300  0.17659300  1
  H  H78  1  0.57504400  0.15537800  0.16629300  1
  H  H79  1  0.67429600  0.16441600  0.14048800  1
  H  H80  1  0.58480300  0.14590300  0.10144100  1
  H  H81  1  0.40933900  0.74544600  0.11964200  1
  H  H82  1  0.35658700  0.68496600  0.16010300  1
  H  H83  1  0.29672500  0.72319000  0.05638600  1
  H  H84  1  0.23516100  0.61372800  0.13360600  1
  H  H85  1  0.26199600  0.59002000  0.07238400  1
  H  H86  1  0.17332400  0.64936100  0.08198600  1
  H  H87  1  0.22893500  0.75587900  0.15594200  1
  H  H88  1  0.18582200  0.78571700  0.09710300  1
  H  H89  1  0.28263200  0.82361200  0.11985600  1
  H  H90  1  0.50515000  0.24988000  0.90020000  1
  H  H91  1  0.50878100  0.28277700  0.84170300  1
  H  H92  1  0.35177300  0.27405300  0.90017000  1
  H  H93  1  0.37043300  0.29784900  0.79083500  1
  H  H94  1  0.33758700  0.37014200  0.83336700  1
  H  H95  1  0.27575800  0.28757000  0.82101600  1
  H  H96  1  0.41955200  0.16851000  0.82217100  1
  H  H97  1  0.32052800  0.16058900  0.84842400  1
  H  H98  1  0.41332300  0.14699500  0.88608900  1
  H  H99  1  0.66303600  0.72516200  0.53295400  1
  H  H100  1  0.58850900  0.71446700  0.57842500  1
  H  H101  1  0.69433200  0.85814000  0.56961300  1
  H  H102  1  0.61190100  0.78246000  0.65549800  1
  H  H103  1  0.56403900  0.85987300  0.62062400  1
  H  H104  1  0.66006100  0.87475500  0.65445100  1
  H  H105  1  0.73069000  0.71025900  0.62476900  1
  H  H106  1  0.78329400  0.79941500  0.63436000  1
  H  H107  1  0.78732100  0.75106100  0.57675100  1
  H  H108  1  0.53742400  0.25079300  0.39905400  1
  H  H109  1  0.49664900  0.33878700  0.42041500  1
  H  H110  1  0.39046600  0.19960800  0.39317600  1
  H  H111  1  0.34960800  0.36909500  0.41234000  1
  H  H112  1  0.32840300  0.28928200  0.45144100  1
  H  H113  1  0.27778300  0.29685800  0.39205100  1
  H  H114  1  0.42271600  0.34553000  0.33592500  1
  H  H115  1  0.35247700  0.27033800  0.31845900  1
  H  H116  1  0.46159800  0.25069400  0.32264400  1
  C  C1  1  0.50458400  0.66568800  0.49537100  1
  C  C2  1  0.49392200  0.36679500  0.50971300  1
  C  C3  1  0.50474900  0.52744200  0.59800900  1
  C  C4  1  0.49397900  0.50343100  0.40789800  1
  C  C5  1  0.49828400  0.58098300  0.83063100  1
  C  C6  1  0.46117600  0.42586800  0.17838400  1
  C  C7  1  0.49488000  0.44743300  0.82433900  1
  C  C8  1  0.45097600  0.55963000  0.17789800  1
  C  C9  1  0.43176000  0.50362900  0.72309000  1
  C  C10  1  0.40820400  0.52527600  0.28091200  1
  C  C11  1  0.43534800  0.50755800  0.67336900  1
  C  C12  1  0.41794800  0.52600300  0.33074100  1
  C  C13  1  0.57491600  0.54943800  0.68199300  1
  C  C14  1  0.54938700  0.46285000  0.32686300  1
  C  C15  1  0.56922400  0.54652200  0.73184800  1
  C  C16  1  0.53807900  0.46234600  0.27679900  1
  C  C17  1  0.49891600  0.52283600  0.75243500  1
  C  C18  1  0.46849400  0.49381100  0.25372500  1
  C  C19  1  0.49151600  0.50588800  0.90283200  1
  C  C20  1  0.45579200  0.49294800  0.10250400  1
  C  C21  1  0.50310200  0.57645400  0.88101800  1
  C  C22  1  0.46570500  0.42397600  0.12779200  1
  C  C23  1  0.51729500  0.64044900  0.91046900  1
  C  C24  1  0.48217900  0.35696300  0.10141100  1
  C  C25  1  0.48877500  0.43956400  0.87457400  1
  C  C26  1  0.44034000  0.56008100  0.12764400  1
  C  C27  1  0.50650500  0.52933500  0.65177600  1
  C  C28  1  0.48861100  0.49676500  0.35450700  1
  C  C29  1  0.45944700  0.56508000  0.02845700  1
  C  C30  1  0.47659200  0.43265200  0.97568500  1
  C  C31  1  0.47445300  0.42949500  0.02638800  1
  C  C32  1  0.47830400  0.56858800  0.97971600  1
  C  C33  1  0.46217700  0.49562000  0.05238900  1
  C  C34  1  0.48293600  0.50223800  0.95277500  1
  C  C35  1  0.43422800  0.62954500  0.05309700  1
  C  C36  1  0.47175900  0.36737200  0.94742500  1
  C  C37  1  0.41841900  0.62638300  0.10155000  1
  C  C38  1  0.47837400  0.36883300  0.89783900  1
  C  C39  1  0.49775400  0.63708100  0.95832600  1
  C  C40  1  0.48662700  0.36154000  0.05171000  1
  C  C41  1  0.50574500  0.74994500  0.48991900  1
  C  C42  1  0.49166300  0.28311400  0.51152900  1
  C  C43  1  0.55564100  0.79488500  0.52117000  1
  C  C44  1  0.48934500  0.24035400  0.46887500  1
  C  C45  1  0.54649200  0.87429000  0.51905800  1
  C  C46  1  0.49250400  0.16152200  0.47136600  1
  C  C47  1  0.48893800  0.90886000  0.48739500  1
  C  C48  1  0.49393600  0.12447900  0.51563900  1
  C  C49  1  0.44427100  0.86453100  0.45505200  1
  C  C50  1  0.49488700  0.16699300  0.55771900  1
  C  C51  1  0.45395100  0.78604100  0.45454200  1
  C  C52  1  0.49484700  0.24658100  0.55637100  1
  C  C53  1  0.47904500  0.99273700  0.48357400  1
  C  C54  1  0.49989800  0.04040800  0.52004700  1
  C  C55  1  0.75883300  0.56936500  0.49826500  1
  C  C56  1  0.24197000  0.48756500  0.53314200  1
  C  C57  1  0.84353700  0.56660100  0.50034900  1
  C  C58  1  0.15726200  0.49106400  0.53206900  1
  C  C59  1  0.88465000  0.49778400  0.50933700  1
  C  C60  1  0.11452800  0.53431700  0.49674800  1
  C  C61  1  0.83893600  0.43359700  0.51683600  1
  C  C62  1  0.15860400  0.57447800  0.46407800  1
  C  C63  1  0.75432500  0.43837100  0.51448800  1
  C  C64  1  0.24318800  0.56969000  0.46621100  1
  C  C65  1  0.97499100  0.49066500  0.51306600  1
  C  C66  1  0.02421300  0.54165800  0.49354600  1
  C  C67  1  0.65461000  0.57838800  0.66474600  1
  C  C68  1  0.72517900  0.52076200  0.67455100  1
  C  C69  1  0.70756600  0.44346200  0.65129500  1
  C  C70  1  0.80310900  0.55213800  0.65480400  1
  C  C71  1  0.62353400  0.41938000  0.34756800  1
  C  C72  1  0.70362400  0.45901900  0.33695900  1
  C  C73  1  0.70799200  0.53865700  0.35901000  1
  C  C74  1  0.77563200  0.41098000  0.35753000  1
  C  C75  1  0.49772500  0.29581300  0.60156300  1
  C  C76  1  0.50348300  0.25303000  0.65003200  1
  C  C77  1  0.59074600  0.22335000  0.66150300  1
  C  C78  1  0.48078400  0.30751200  0.69011900  1
  C  C79  1  0.41007200  0.74443800  0.41329400  1
  C  C80  1  0.44497000  0.76622100  0.36486900  1
  C  C81  1  0.52631200  0.72454900  0.35870100  1
  C  C82  1  0.38438100  0.74529700  0.32358200  1
  C  C83  1  0.56010300  0.71176400  0.89480300  1
  C  C84  1  0.63989600  0.72453700  0.92514100  1
  C  C85  1  0.69779400  0.65586100  0.92143100  1
  C  C86  1  0.68138200  0.79502000  0.90638900  1
  C  C87  1  0.50011100  0.27787100  0.12183500  1
  C  C88  1  0.59246100  0.26187400  0.12846300  1
  C  C89  1  0.63023900  0.30317900  0.17242600  1
  C  C90  1  0.60750100  0.17638100  0.13463200  1
  C  C91  1  0.37177100  0.69334600  0.12203700  1
  C  C92  1  0.28883900  0.70675300  0.09462600  1
  C  C93  1  0.23685600  0.63531300  0.09584400  1
  C  C94  1  0.24367700  0.77212400  0.11852500  1
  C  C95  1  0.47371400  0.29076200  0.87441000  1
  C  C96  1  0.38498000  0.26469200  0.86652300  1
  C  C97  1  0.33976500  0.30805600  0.82526000  1
  C  C98  1  0.38467800  0.17974600  0.85500300  1
  C  C99  1  0.61930900  0.75627400  0.55546800  1
  C  C100  1  0.67148000  0.80806600  0.58909800  1
  C  C101  1  0.62364900  0.83287700  0.63254700  1
  C  C102  1  0.74795700  0.76418800  0.60742700  1
  C  C103  1  0.48681300  0.27643400  0.41934600  1
  C  C104  1  0.40515800  0.26123200  0.39171500  1
  C  C105  1  0.33608300  0.30716000  0.41338700  1
  C  C106  1  0.41100100  0.28351100  0.33881200  1
  N  N1  1  0.49682700  0.51701900  0.80391200  1
  N  N2  1  0.45895800  0.49306700  0.20199400  1
  N  N3  1  0.71526200  0.50580100  0.50537000  1
  N  N4  1  0.28345300  0.52644100  0.50038800  1
  O  O1  1  0.43300700  0.63272900  0.49705600  1
  O  O2  1  0.56578300  0.39914500  0.50831900  1
  O  O3  1  0.57390200  0.62638200  0.49767600  1
  O  O4  1  0.42423100  0.40551500  0.50793900  1
  O  O5  1  0.43262000  0.52762400  0.57448600  1
  O  O6  1  0.56609300  0.50443900  0.43120000  1
  O  O7  1  0.57340900  0.52103800  0.57545000  1
  O  O8  1  0.42493900  0.51025000  0.43022200  1
  O  O9  1  0.48725600  0.64832200  0.80751700  1
  O  O10  1  0.45992200  0.36191200  0.20509300  1
  O  O11  1  0.46218000  0.62498200  0.20287900  1
  O  O12  1  0.49783100  0.38700800  0.79469800  1
