# generated using pymatgen
data_FeH10C25N2O9
_symmetry_space_group_name_H-M   'P 1'
_cell_length_a   14.22570900
_cell_length_b   17.07437100
_cell_length_c   11.30643600
_cell_angle_alpha   108.48056000
_cell_angle_beta   94.29905500
_cell_angle_gamma   107.84229300
_symmetry_Int_Tables_number   1
_chemical_formula_structural   FeH10C25N2O9
_chemical_formula_sum   'Fe2 H20 C50 N4 O18'
_cell_volume   2433.92310325
_cell_formula_units_Z   2
loop_
 _symmetry_equiv_pos_site_id
 _symmetry_equiv_pos_as_xyz
  1  'x, y, z'
loop_
 _atom_site_type_symbol
 _atom_site_label
 _atom_site_symmetry_multiplicity
 _atom_site_fract_x
 _atom_site_fract_y
 _atom_site_fract_z
 _atom_site_occupancy
  Fe  Fe1  1  0.49077500  0.99073500  0.24696800  1
  Fe  Fe2  1  0.48577500  0.99295900  0.73704300  1
  H  H1  1  0.84668100  0.97665600  0.21757700  1
  H  H2  1  0.79119100  0.00110200  0.79935400  1
  H  H3  1  0.13544400  0.00438900  0.76058500  1
  H  H4  1  0.17717100  0.98096700  0.18119200  1
  H  H5  1  0.01059200  0.97657400  0.19671400  1
  H  H6  1  0.48051800  0.26381300  0.39848300  1
  H  H7  1  0.53485700  0.44156000  0.78093300  1
  H  H8  1  0.54112000  0.32543300  0.85725100  1
  H  H9  1  0.43773300  0.66238900  0.12479600  1
  H  H10  1  0.49118900  0.71522300  0.58071100  1
  H  H11  1  0.41030600  0.38512900  0.94926300  1
  H  H12  1  0.25697800  0.30157400  0.78858200  1
  H  H13  1  0.10452500  0.33949900  0.81386700  1
  H  H14  1  0.10597900  0.46149400  0.00246900  1
  H  H15  1  0.25724600  0.54522500  0.16482600  1
  H  H16  1  0.91106800  0.98945800  0.49997900  1
  H  H17  1  0.81950600  0.85693900  0.31570900  1
  H  H18  1  0.75789700  0.71255700  0.33870800  1
  H  H19  1  0.78870700  0.70093800  0.54817700  1
  H  H20  1  0.88002000  0.83138400  0.73341400  1
  C  C1  1  0.83372500  0.98107100  0.12496700  1
  C  C2  1  0.74190800  0.98231100  0.07703600  1
  C  C3  1  0.72842900  0.98911300  0.95802400  1
  C  C4  1  0.80594200  0.99643500  0.89139100  1
  C  C5  1  0.89683000  0.99333700  0.93856500  1
  C  C6  1  0.91020800  0.98574100  0.05589700  1
  C  C7  1  0.97375100  0.99691700  0.86917700  1
  C  C8  1  0.06492000  0.99509900  0.91966600  1
  C  C9  1  0.07721400  0.98722900  0.03695800  1
  C  C10  1  0.00020000  0.98254900  0.10469400  1
  C  C11  1  0.14374700  0.00029100  0.85370300  1
  C  C12  1  0.23504900  0.00022900  0.90544200  1
  C  C13  1  0.24678600  0.99332100  0.02462600  1
  C  C14  1  0.16711900  0.98499500  0.08785800  1
  C  C15  1  0.66317200  0.97944700  0.15551800  1
  C  C16  1  0.46813600  0.82910500  0.26298700  1
  C  C17  1  0.34393600  0.00317200  0.09216500  1
  C  C18  1  0.47892600  0.12571700  0.44590900  1
  C  C19  1  0.49775300  0.85655100  0.53856100  1
  C  C20  1  0.63139700  0.98087800  0.89311800  1
  C  C21  1  0.50942300  0.15629300  0.72237000  1
  C  C22  1  0.31522200  0.00450700  0.82947300  1
  C  C23  1  0.49707800  0.21175700  0.54222300  1
  C  C24  1  0.49420200  0.27838800  0.49974000  1
  C  C25  1  0.50565400  0.36088700  0.58389300  1
  C  C26  1  0.52472100  0.37738000  0.71266900  1
  C  C27  1  0.52757400  0.31083400  0.75600500  1
  C  C28  1  0.51170200  0.22676500  0.67178200  1
  C  C29  1  0.47517500  0.55099300  0.44359900  1
  C  C30  1  0.49486500  0.42862800  0.53536200  1
  C  C31  1  0.44996700  0.60597700  0.26446000  1
  C  C32  1  0.44857600  0.67457700  0.22546400  1
  C  C33  1  0.46435100  0.75765700  0.31168400  1
  C  C34  1  0.47780300  0.77057700  0.44039800  1
  C  C35  1  0.47883700  0.70209500  0.47980900  1
  C  C36  1  0.46738700  0.61974800  0.39379100  1
  C  C37  1  0.43909800  0.52235100  0.16469100  1
  C  C38  1  0.34615600  0.47246300  0.06798100  1
  C  C39  1  0.34424500  0.40296000  0.96225600  1
  C  C40  1  0.25774700  0.35555800  0.87117300  1
  C  C41  1  0.17233100  0.37679000  0.88525300  1
  C  C42  1  0.17327100  0.44527300  0.99085900  1
  C  C43  1  0.25963100  0.49295900  0.08217000  1
  C  C44  1  0.95788300  0.00085200  0.74171200  1
  C  C45  1  0.90218000  0.92070800  0.63080100  1
  C  C46  1  0.88472000  0.92662400  0.51238400  1
  C  C47  1  0.83297500  0.85196800  0.40792600  1
  C  C48  1  0.79839900  0.77098900  0.42072400  1
  C  C49  1  0.81564400  0.76454300  0.53815000  1
  C  C50  1  0.86733700  0.83894500  0.64296800  1
  N  N1  1  0.52371600  0.51349500  0.61258300  1
  N  N2  1  0.51420500  0.57379100  0.56713600  1
  N  N3  1  0.44428200  0.46572000  0.36764600  1
  N  N4  1  0.45436200  0.40552400  0.41260000  1
  O  O1  1  0.58411900  0.99905100  0.12656000  1
  O  O2  1  0.46584700  0.81456700  0.14147700  1
  O  O3  1  0.67457000  0.96160800  0.25920200  1
  O  O4  1  0.47666700  0.90801900  0.33931000  1
  O  O5  1  0.35096200  0.94693000  0.14605800  1
  O  O6  1  0.42238400  0.07377700  0.11063500  1
  O  O7  1  0.54718700  0.11290200  0.37770700  1
  O  O8  1  0.39133200  0.06277900  0.42125900  1
  O  O9  1  0.42900100  0.87116600  0.60497000  1
  O  O10  1  0.58631200  0.91836100  0.56389800  1
  O  O11  1  0.62586700  0.03625900  0.83701300  1
  O  O12  1  0.55230600  0.91087200  0.87511900  1
  O  O13  1  0.30593300  0.02416400  0.72706300  1
  O  O14  1  0.49935000  0.07668100  0.64645700  1
  O  O15  1  0.39308300  0.98357600  0.85808900  1
  O  O16  1  0.51351800  0.17217000  0.84442000  1
  O  O17  1  0.51048700  0.49687000  0.15752900  1
  O  O18  1  0.99217900  0.07154100  0.72805300  1
