# generated using pymatgen
data_Zn3H20C35(ClO6)2
_symmetry_space_group_name_H-M   'P 1'
_cell_length_a   19.29288600
_cell_length_b   19.07248600
_cell_length_c   19.14259500
_cell_angle_alpha   109.07378200
_cell_angle_beta   110.05428700
_cell_angle_gamma   109.36606300
_symmetry_Int_Tables_number   1
_chemical_formula_structural   Zn3H20C35(ClO6)2
_chemical_formula_sum   'Zn6 H40 C70 Cl4 O24'
_cell_volume   5416.59290475
_cell_formula_units_Z   2
loop_
 _symmetry_equiv_pos_site_id
 _symmetry_equiv_pos_as_xyz
  1  'x, y, z'
loop_
 _atom_site_type_symbol
 _atom_site_label
 _atom_site_symmetry_multiplicity
 _atom_site_fract_x
 _atom_site_fract_y
 _atom_site_fract_z
 _atom_site_occupancy
  Zn  Zn1  1  0.49748800  0.42106100  0.41018100  1
  Zn  Zn2  1  0.48267400  0.54076400  0.54616800  1
  Zn  Zn3  1  0.92350300  0.43051000  0.98950900  1
  Zn  Zn4  1  0.06041500  0.55732100  0.98102000  1
  Zn  Zn5  1  0.06809100  0.98500100  0.55452700  1
  Zn  Zn6  1  0.92849200  0.99463100  0.43057200  1
  H  H1  1  0.57451700  0.20216200  0.51628100  1
  H  H2  1  0.71798600  0.65183700  0.69659900  1
  H  H3  1  0.82004500  0.78163900  0.83040200  1
  H  H4  1  0.91571000  0.78022800  0.95281500  1
  H  H5  1  0.91128400  0.64926100  0.93978800  1
  H  H6  1  0.80821300  0.34315100  0.74811100  1
  H  H7  1  0.69822900  0.21010700  0.62061100  1
  H  H8  1  0.56247900  0.32709500  0.53821800  1
  H  H9  1  0.27689300  0.19374200  0.59020300  1
  H  H10  1  0.15373500  0.19137600  0.43623700  1
  H  H11  1  0.26792200  0.22402500  0.40831700  1
  H  H12  1  0.23779400  0.52474600  0.18398800  1
  H  H13  1  0.24291700  0.50329200  0.36567600  1
  H  H14  1  0.28508600  0.43961000  0.22559500  1
  H  H15  1  0.72149800  0.76868700  0.38121400  1
  H  H16  1  0.64484900  0.61820400  0.36742000  1
  H  H17  1  0.68857700  0.74843000  0.54243100  1
  H  H18  1  0.97037200  0.22600300  0.61916200  1
  H  H19  1  0.03424000  0.36808100  0.75673400  1
  H  H20  1  0.94327400  0.23069200  0.79216200  1
  H  H21  1  0.01913600  0.74850400  0.35988000  1
  H  H22  1  0.94753200  0.79909800  0.22744000  1
  H  H23  1  0.97100500  0.61766200  0.22408300  1
  H  H24  1  0.03454300  0.75534100  0.17730800  1
  H  H25  1  0.58663400  0.35973900  0.75448600  1
  H  H26  1  0.60696900  0.49931000  0.84416200  1
  H  H27  1  0.49387100  0.53444800  0.79615000  1
  H  H28  1  0.36212800  0.43161000  0.65689000  1
  H  H29  1  0.92228600  0.28429700  0.20400400  1
  H  H30  1  0.88925400  0.39619800  0.26252600  1
  H  H31  1  0.98381600  0.54518100  0.30740700  1
  H  H32  1  0.11057700  0.58238700  0.29197300  1
  H  H33  1  0.91190800  0.62825600  0.57523100  1
  H  H34  1  0.93749200  0.70377300  0.72084700  1
  H  H35  1  0.91202100  0.82509900  0.76243600  1
  H  H36  1  0.85771000  0.86845000  0.65756600  1
  H  H37  1  0.07119400  0.11771200  0.91483500  1
  H  H38  1  0.21465100  0.24437000  0.00977000  1
  H  H39  1  0.26962800  0.34136300  0.95933300  1
  H  H40  1  0.18162200  0.31152500  0.81403000  1
  C  C1  1  0.38180900  0.35096200  0.47460400  1
  C  C2  1  0.61569300  0.48972800  0.59915800  1
  C  C3  1  0.59863700  0.61103400  0.48246400  1
  C  C4  1  0.36436800  0.47117500  0.35725500  1
  C  C5  1  0.75665500  0.64664300  0.74859100  1
  C  C6  1  0.81614000  0.72192100  0.82443400  1
  C  C7  1  0.86994500  0.72122100  0.89268800  1
  C  C8  1  0.86723800  0.64580500  0.88397300  1
  C  C9  1  0.80932200  0.56941300  0.80665000  1
  C  C10  1  0.74954700  0.56881300  0.74013100  1
  C  C11  1  0.81074400  0.49420900  0.79571400  1
  C  C12  1  0.75064300  0.41800400  0.71903700  1
  C  C13  1  0.68496900  0.41535600  0.65620700  1
  C  C14  1  0.68463500  0.49126800  0.66593100  1
  C  C15  1  0.75574800  0.34385400  0.70432300  1
  C  C16  1  0.69371100  0.26726200  0.63107500  1
  C  C17  1  0.62496200  0.26299200  0.57251200  1
  C  C18  1  0.61990100  0.33591400  0.58510100  1
  C  C19  1  0.25744100  0.20860100  0.53923300  1
  C  C20  1  0.17477400  0.17168200  0.48285700  1
  C  C21  1  0.32386600  0.27779400  0.54230700  1
  C  C22  1  0.31897800  0.27805300  0.47069800  1
  C  C23  1  0.16578300  0.47672200  0.23492600  1
  C  C24  1  0.17524200  0.49801400  0.17713800  1
  C  C25  1  0.23878300  0.48609100  0.30396700  1
  C  C26  1  0.29420100  0.46578100  0.28956200  1
  C  C27  1  0.74128200  0.75490800  0.43296900  1
  C  C28  1  0.82293000  0.80037900  0.49584800  1
  C  C29  1  0.67916200  0.67897400  0.42612800  1
  C  C30  1  0.65994700  0.68585300  0.48779900  1
  C  C31  1  0.98309200  0.36609200  0.86885100  1
  C  C32  1  0.87673300  0.49539400  0.86426600  1
  C  C33  1  0.00087100  0.62151100  0.10172200  1
  C  C34  1  0.10732400  0.49376300  0.10746500  1
  C  C35  1  0.01373400  0.10969000  0.62305700  1
  C  C36  1  0.11061900  0.10719300  0.48636300  1
  C  C37  1  0.98335700  0.87077100  0.36218000  1
  C  C38  1  0.88594100  0.87127500  0.49768500  1
  C  C39  1  0.99737300  0.23304800  0.68250200  1
  C  C40  1  0.02445700  0.17976600  0.69547300  1
  C  C41  1  0.00853800  0.30606100  0.75258200  1
  C  C42  1  0.97738500  0.29459900  0.80283300  1
  C  C43  1  0.99938200  0.74844100  0.29958600  1
  C  C44  1  0.97648200  0.80480900  0.29002700  1
  C  C45  1  0.98856500  0.67897800  0.22685500  1
  C  C46  1  0.00782700  0.69188000  0.16990800  1
  C  C47  1  0.40204300  0.33946000  0.62561300  1
  C  C48  1  0.46403000  0.31838700  0.65429100  1
  C  C49  1  0.53776200  0.37597900  0.73253300  1
  C  C50  1  0.54902300  0.45408100  0.78294700  1
  C  C51  1  0.48566100  0.47378400  0.75599900  1
  C  C52  1  0.41181700  0.41613400  0.67784700  1
  C  C53  1  0.08751200  0.45398700  0.23908600  1
  C  C54  1  0.03513600  0.37055000  0.21542700  1
  C  C55  1  0.96356800  0.34974000  0.22312900  1
  C  C56  1  0.94499800  0.41243200  0.25584500  1
  C  C57  1  0.99785300  0.49594200  0.28061400  1
  C  C58  1  0.06887300  0.51672800  0.27190900  1
  C  C59  1  0.85413200  0.77290100  0.55738900  1
  C  C60  1  0.87006200  0.70576500  0.53450800  1
  C  C61  1  0.89969000  0.68088400  0.59320200  1
  C  C62  1  0.91429900  0.72336000  0.67491000  1
  C  C63  1  0.89993600  0.79126500  0.69821200  1
  C  C64  1  0.87002800  0.81600800  0.63957300  1
  C  C65  1  0.07649200  0.19778800  0.78254600  1
  C  C66  1  0.04593800  0.14319300  0.81088800  1
  C  C67  1  0.09552800  0.16008000  0.89249000  1
  C  C68  1  0.17586100  0.23119200  0.94579700  1
  C  C69  1  0.20660400  0.28562400  0.91758100  1
  C  C70  1  0.15705200  0.26894600  0.83608500  1
  Cl  Cl1  1  0.44819400  0.21746300  0.59262300  1
  Cl  Cl2  1  0.05826400  0.29036900  0.17403000  1
  Cl  Cl3  1  0.85471200  0.65289400  0.43188200  1
  Cl  Cl4  1  0.94269600  0.05470200  0.74522400  1
  O  O1  1  0.41137300  0.33676200  0.42194600  1
  O  O2  1  0.40264100  0.42783400  0.52835500  1
  O  O3  1  0.59324300  0.44557400  0.51864800  1
  O  O4  1  0.57804800  0.53124800  0.62251100  1
  O  O5  1  0.57657900  0.53404000  0.42693900  1
  O  O6  1  0.56928800  0.62493000  0.53501300  1
  O  O7  1  0.40129400  0.42929400  0.33353400  1
  O  O8  1  0.38760300  0.51732200  0.43775600  1
  O  O9  1  0.93461700  0.34775900  0.90163100  1
  O  O10  1  0.03563400  0.44479100  0.89206700  1
  O  O11  1  0.85297300  0.44621800  0.89577800  1
  O  O12  1  0.95674300  0.54477300  0.89035400  1
  O  O13  1  0.94863100  0.54291800  0.07880200  1
  O  O14  1  0.04899200  0.64015500  0.06856000  1
  O  O15  1  0.02723800  0.44266100  0.07974500  1
  O  O16  1  0.13082600  0.54192400  0.07507600  1
  O  O17  1  0.06186600  0.07565100  0.63999700  1
  O  O18  1  0.95866700  0.08570500  0.54472400  1
  O  O19  1  0.13627000  0.07686100  0.53636500  1
  O  O20  1  0.03012400  0.08173000  0.43832300  1
  O  O21  1  0.03781900  0.89377900  0.44042900  1
  O  O22  1  0.93510800  0.90458100  0.34496800  1
  O  O23  1  0.96645100  0.89801100  0.54672500  1
  O  O24  1  0.86015100  0.90198100  0.44797000  1
