# Generated by REPEAT Assigner based on pymatgen
data_DB0-m3_o1520_o1_f0_fsc.sym.23_sqe
_audit_creation_date              2022-05-24
_audit_creation_method            REPEAT_Assigner
_cell_length_a                    13.032989
_cell_length_b                    9.181636
_cell_length_c                    8.571179
_cell_angle_alpha                 90.000000
_cell_angle_beta                  95.334792
_cell_angle_gamma                 90.000000
_cell_volume                      1021.220174
_symmetry_space_group_name_H-M    P1
_symmetry_Int_Tables_number       1
loop_
    _symmetry_equiv_pos_site_id
    _symmetry_equiv_pos_as_xyz
    1  x,y,z
loop_
    _atom_site_type_symbol
    _atom_site_label
    _atom_site_fract_x
    _atom_site_fract_y
    _atom_site_fract_z
    _atom_type_partial_charge
    C   C1   0.294346  0.991780  0.108564  -0.247698
    C   C2   0.703374  0.000769  0.885885  -0.300741
    C   C3   0.343103  0.964982  0.976407  -0.115571
    C   C4   0.651499  0.011856  0.016925  -0.052564
    C   C5   0.295035  0.991990  0.830672  -0.192560
    C   C6   0.701566  0.004019  0.163646  -0.216717
    C   C7   0.190944  0.022252  0.816694  0.118080
    C   C8   0.807564  0.006655  0.180938  0.042131
    C   C9   0.134613  0.016437  0.947098  -0.170426
    C   C10  0.864017  0.010818  0.049796  -0.064879
    C   C11  0.188104  0.013916  0.094813  0.235693
    C   C12  0.810846  0.997520  0.901528  0.277330
    C   C13  0.026364  0.013492  0.932119  0.157997
    C   C14  0.972316  0.021183  0.064275  -0.034452
    C   C15  0.028304  0.039491  0.208674  -0.032717
    C   C16  0.971593  0.990427  0.787840  -0.197649
    C   C17  0.133833  0.030814  0.224476  -0.103401
    C   C18  0.866111  0.980419  0.772673  -0.146696
    N   N1   0.496027  0.348397  0.497392  0.226409
    N   N2   0.501473  0.645381  0.497214  0.249273
    C   C19  0.410539  0.574836  0.488652  -0.135166
    C   C20  0.586946  0.418909  0.506118  -0.058757
    C   C21  0.589686  0.569032  0.505767  -0.207753
    C   C22  0.407678  0.424661  0.488538  -0.133979
    H   H1   0.422479  0.933773  0.988006  0.091990
    H   H2   0.569643  0.023645  0.003963  0.111075
    H   H3   0.155608  0.052192  0.704101  -0.081985
    H   H4   0.842450  0.003485  0.298615  0.001483
    H   H5   0.008372  0.970700  0.682839  0.155721
    H   H6   0.993619  0.058027  0.315572  0.009271
    H   H7   0.339409  0.635807  0.481590  0.191212
    H   H8   0.658159  0.357905  0.513348  0.145393
    H   H9   0.662522  0.625251  0.512205  0.236492
    H   H10  0.334507  0.368477  0.481257  0.184428
    O   O1   0.601748  0.123004  0.680101  -0.787093
    O   O2   0.396114  0.870621  0.314318  -0.777936
    O   O3   0.390027  0.121853  0.315960  -0.802862
    O   O4   0.608141  0.871791  0.677895  -0.766104
    Zn  Zn1  0.501367  0.836363  0.497158  0.965222
    Zn  Zn2  0.496382  0.157445  0.497297  1.044880
    C   C23  0.638692  0.998611  0.736399  1.047378
    C   C24  0.360328  0.994784  0.256693  1.085737
    O   O5   0.395572  0.871120  0.649985  -0.765630
    O   O6   0.602393  0.123120  0.344949  -0.768846
    O   O7   0.608355  0.872224  0.346409  -0.734177
    O   O8   0.389111  0.121537  0.647518  -0.791203
    C   C25  0.358415  0.994821  0.697078  1.051583
    C   C26  0.639041  0.999524  0.297496  0.958147
    S   S1   0.805879  0.930310  0.584749  -0.004154
    C   C27  0.851682  0.743482  0.603992  0.043235
    H   H11  0.836243  0.687293  0.489737  0.006571
    H   H12  0.811352  0.686241  0.694451  0.014089
    H   H13  0.935915  0.740610  0.636399  0.005551
    S   S2   0.195489  0.035985  0.418323  -0.000924
    C   C28  0.162851  0.846947  0.451206  -0.112473
    H   H14  0.200303  0.810716  0.566055  0.045620
    H   H15  0.190528  0.778359  0.357264  0.040936
    H   H16  0.078187  0.835593  0.451417  0.062188
