# Generated by REPEAT Assigner based on pymatgen
data_DB0-m3_o19_o430_f0_fsc.sym.1
_audit_creation_date              2022-05-24
_audit_creation_method            REPEAT_Assigner
_cell_length_a                    10.219525
_cell_length_b                    8.447689
_cell_length_c                    15.101230
_cell_angle_alpha                 90.000000
_cell_angle_beta                  98.693078
_cell_angle_gamma                 90.000000
_cell_volume                      1288.732948
_symmetry_space_group_name_H-M    P1
_symmetry_Int_Tables_number       1
loop_
    _symmetry_equiv_pos_site_id
    _symmetry_equiv_pos_as_xyz
    1  x,y,z
loop_
    _atom_site_type_symbol
    _atom_site_label
    _atom_site_fract_x
    _atom_site_fract_y
    _atom_site_fract_z
    _atom_type_partial_charge
    H   H1   0.930864  0.998796  0.432947  0.126168
    H   H2   0.069136  0.001204  0.567053  0.126178
    C   C1   0.956098  0.140606  0.320693  -0.021883
    C   C2   0.043902  0.859394  0.679307  -0.021925
    C   C3   0.044756  0.141840  0.679906  -0.012279
    C   C4   0.955244  0.858160  0.320095  -0.012222
    C   C5   0.974635  0.141811  0.232130  -0.254773
    C   C6   0.025365  0.858189  0.767870  -0.254738
    C   C7   0.026492  0.142018  0.768529  -0.255185
    C   C8   0.973507  0.857982  0.231471  -0.255281
    H   H3   0.982553  0.254005  0.199162  0.125438
    H   H4   0.017447  0.745995  0.800838  0.125407
    H   H5   0.012406  0.253209  0.801120  0.124860
    H   H6   0.987594  0.746791  0.198880  0.124857
    C   C9   0.978707  0.000113  0.186216  0.204415
    C   C10  0.021292  0.999887  0.813784  0.204345
    C   C11  0.941635  0.999186  0.362988  -0.153602
    C   C12  0.058365  0.000814  0.637012  -0.153613
    C   C13  0.931715  0.881344  0.035634  -0.119953
    C   C14  0.068285  0.118656  0.964366  -0.119968
    C   C15  0.940572  0.881472  0.945419  -0.136710
    C   C16  0.059428  0.118528  0.054582  -0.136695
    H   H7   0.874057  0.790364  0.061931  0.101260
    H   H8   0.125943  0.209636  0.938070  0.101230
    H   H9   0.889690  0.790434  0.903374  0.109464
    H   H10  0.110309  0.209566  0.096626  0.109463
    C   C17  0.430555  0.500091  0.498259  0.223772
    C   C18  0.569445  0.499909  0.501741  0.223732
    C   C19  0.008997  0.000206  0.909277  0.029173
    C   C20  0.991003  0.999794  0.090724  0.029166
    Zn  Zn1  0.145547  0.500179  0.498135  1.108376
    Zn  Zn2  0.854452  0.499821  0.501865  1.108286
    N   N1   0.316846  0.500226  0.495882  -0.057370
    N   N2   0.683154  0.499774  0.504118  -0.057318
    O   O1   0.863973  0.338227  0.405127  -0.714418
    O   O2   0.136026  0.661773  0.594873  -0.714524
    O   O3   0.136250  0.339738  0.595495  -0.715520
    O   O4   0.863750  0.660262  0.404505  -0.715485
    O   O5   0.089851  0.332518  0.405480  -0.701744
    O   O6   0.910149  0.667482  0.594520  -0.701758
    O   O7   0.910398  0.333325  0.595176  -0.702662
    O   O8   0.089602  0.666675  0.404824  -0.702711
    C   C21  0.969444  0.283748  0.375356  0.850511
    C   C22  0.030556  0.716252  0.624644  0.850662
    C   C23  0.030959  0.285271  0.625498  0.842778
    C   C24  0.969040  0.714729  0.374502  0.842796
