# Generated by REPEAT Assigner based on pymatgen
data_DB0-m2_o19_o23_f0_pcu.sym.9_sqe
_audit_creation_date              2022-05-24
_audit_creation_method            REPEAT_Assigner
_cell_length_a                    15.864700
_cell_length_b                    11.824209
_cell_length_c                    10.402977
_cell_angle_alpha                 90.000000
_cell_angle_beta                  90.000000
_cell_angle_gamma                 90.000000
_cell_volume                      1951.468714
_symmetry_space_group_name_H-M    P1
_symmetry_Int_Tables_number       1
loop_
    _symmetry_equiv_pos_site_id
    _symmetry_equiv_pos_as_xyz
    1  x,y,z
loop_
    _atom_site_type_symbol
    _atom_site_label
    _atom_site_fract_x
    _atom_site_fract_y
    _atom_site_fract_z
    _atom_type_partial_charge
    O   O1   0.496940  0.317886  0.610483  -0.608810
    O   O2   0.503059  0.317886  0.389521  -0.608878
    H   H1   0.076593  0.655463  0.568709  0.051385
    H   H2   0.064226  0.640188  0.397253  0.036087
    H   H3   0.935773  0.640184  0.602758  0.036112
    H   H4   0.923405  0.655464  0.431302  0.051409
    C   C1   0.500000  0.265179  0.500002  0.869587
    O   O3   0.377413  0.485867  0.610945  -0.561490
    O   O4   0.377593  0.485789  0.389719  -0.590171
    O   O5   0.622406  0.485789  0.610285  -0.590114
    O   O6   0.622586  0.485867  0.389060  -0.561535
    C   C2   0.338259  0.482676  0.500270  0.727105
    C   C3   0.661741  0.482676  0.499734  0.727039
    Cu  Cu1  0.499926  0.482221  0.628668  0.918116
    Cu  Cu2  0.500073  0.482221  0.371336  0.917426
    C   C4   0.500000  0.041909  0.500002  0.066415
    O   O7   0.496997  0.646582  0.610706  -0.590217
    O   O8   0.503002  0.646582  0.389298  -0.590275
    C   C5   0.500000  0.143818  0.500002  -0.252113
    N   N1   0.500019  0.482244  0.179084  -0.124342
    N   N2   0.499980  0.482244  0.820921  -0.124383
    C   C6   0.500006  0.482247  0.067866  0.217555
    C   C7   0.499993  0.482247  0.932138  0.217613
    C   C8   0.500000  0.699223  0.500002  0.852934
    C   C9   0.047527  0.430902  0.624805  0.411533
    C   C10  0.047431  0.417677  0.383018  0.421666
    C   C11  0.952569  0.417674  0.616984  0.420988
    C   C12  0.952472  0.430905  0.375197  0.410773
    H   H5   0.075375  0.455847  0.295516  -0.133835
    H   H6   0.062310  0.490663  0.703761  -0.113657
    H   H7   0.937689  0.490670  0.296244  -0.113539
    H   H8   0.924624  0.455841  0.704486  -0.133779
    C   C13  0.500000  0.922493  0.500002  0.081696
    C   C14  0.500000  0.820583  0.500002  -0.267118
    C   C15  0.752192  0.483309  0.499893  -0.125257
    C   C16  0.247808  0.483310  0.500112  -0.125350
    C   C17  0.079595  0.482569  0.499922  0.219717
    C   C18  0.920405  0.482569  0.500083  0.220365
    C   C19  0.952475  0.603347  0.508068  -0.138504
    C   C20  0.047525  0.603347  0.491941  -0.138280
    C   C21  0.828156  0.483221  0.500007  -0.239537
    C   C22  0.171843  0.483221  0.499997  -0.239416
    O   O9   0.931732  0.302743  0.607421  -0.508184
    C   C23  0.884398  0.274653  0.716466  0.508349
    H   H9   0.824573  0.323291  0.718510  -0.067935
    H   H10  0.921592  0.289478  0.805217  -0.067754
    C   C24  0.862463  0.150135  0.710910  -0.378005
    H   H11  0.921249  0.099418  0.708826  0.096132
    H   H12  0.824940  0.126920  0.796897  0.072289
    H   H13  0.825134  0.132862  0.622942  0.104793
    O   O10  0.914562  0.325534  0.353408  -0.419669
    C   C25  0.879891  0.328360  0.229679  0.426677
    H   H14  0.929113  0.348321  0.157323  -0.070345
    H   H15  0.827532  0.390540  0.225166  -0.068697
    C   C26  0.844294  0.212814  0.198285  -0.299087
    H   H16  0.794780  0.190711  0.269218  0.088412
    H   H17  0.816590  0.214113  0.100421  0.049198
    H   H18  0.895446  0.148980  0.202221  0.081525
    O   O11  0.085438  0.325530  0.646590  -0.419676
    C   C27  0.120108  0.328351  0.770319  0.426452
    H   H19  0.070887  0.348312  0.842675  -0.070333
    H   H20  0.172467  0.390532  0.774835  -0.068587
    C   C28  0.155705  0.212805  0.801709  -0.299262
    H   H21  0.205219  0.190704  0.730775  0.088465
    H   H22  0.183410  0.214101  0.899573  0.049265
    H   H23  0.104554  0.148971  0.797771  0.081591
    O   O12  0.068267  0.302746  0.392576  -0.508503
    C   C29  0.115601  0.274660  0.283530  0.508844
    H   H24  0.175426  0.323297  0.281487  -0.068080
    H   H25  0.078407  0.289488  0.194780  -0.067956
    C   C30  0.137537  0.150142  0.289081  -0.377981
    H   H26  0.078750  0.099424  0.291163  0.096118
    H   H27  0.175060  0.126928  0.203094  0.072263
    H   H28  0.174865  0.132866  0.377049  0.104761
