# Generated by REPEAT Assigner based on pymatgen
data_DB0-m2_o1_o24_f0_nbo.sym.112_sqe
_audit_creation_date              2022-05-24
_audit_creation_method            REPEAT_Assigner
_cell_length_a                    18.619868
_cell_length_b                    18.522739
_cell_length_c                    18.735237
_cell_angle_alpha                 109.033832
_cell_angle_beta                  109.863810
_cell_angle_gamma                 109.159898
_cell_volume                      4995.665214
_symmetry_space_group_name_H-M    P1
_symmetry_Int_Tables_number       1
loop_
    _symmetry_equiv_pos_site_id
    _symmetry_equiv_pos_as_xyz
    1  x,y,z
loop_
    _atom_site_type_symbol
    _atom_site_label
    _atom_site_fract_x
    _atom_site_fract_y
    _atom_site_fract_z
    _atom_type_partial_charge
    O   O1   0.570810  0.538297  0.432350  -0.566413
    O   O2   0.604262  0.640335  0.567699  -0.586034
    C   C1   0.616731  0.618492  0.500102  0.679993
    O   O3   0.394451  0.429735  0.361149  -0.609702
    O   O4   0.427110  0.567402  0.459801  -0.624230
    C   C2   0.381758  0.498159  0.380879  0.665701
    Cu  Cu1  0.501804  0.440231  0.441801  0.973173
    Cu  Cu2  0.498243  0.560466  0.558947  0.940851
    O   O5   0.432330  0.361116  0.469854  -0.594591
    O   O6   0.392864  0.461643  0.531794  -0.546996
    O   O7   0.608656  0.469722  0.540834  -0.620604
    O   O8   0.569982  0.534673  0.639651  -0.586776
    C   C3   0.384055  0.382183  0.501341  0.663045
    C   C4   0.619006  0.503132  0.619970  0.751267
    C   C5   0.327235  0.560476  0.276834  0.554706
    C   C6   0.251338  0.570724  0.281745  -0.718860
    C   C7   0.189231  0.494761  0.189864  1.245093
    C   C8   0.264672  0.484404  0.184528  -0.727756
    C   C9   0.250068  0.420212  0.219069  0.617876
    C   C10  0.174141  0.431042  0.224215  -0.821661
    C   C11  0.236565  0.507153  0.316959  0.614882
    C   C12  0.311761  0.496744  0.310810  -0.289483
    H   H1   0.249911  0.357088  0.193085  -0.046033
    H   H2   0.225639  0.516735  0.373175  -0.044799
    C   C13  0.749248  0.763797  0.576020  -0.060575
    H   H3   0.750150  0.776234  0.636907  0.123529
    C   C14  0.814413  0.825927  0.575299  -0.192096
    H   H4   0.864228  0.886408  0.635371  0.138453
    C   C15  0.814777  0.812438  0.498425  0.098237
    C   C16  0.749691  0.734278  0.421757  -0.106734
    C   C17  0.686157  0.671684  0.423510  0.225036
    H   H5   0.636737  0.611176  0.363365  -0.048627
    C   C18  0.684968  0.686151  0.500013  -0.136847
    C   C19  0.685999  0.515719  0.764923  0.087223
    H   H6   0.634185  0.523414  0.774090  0.055247
    C   C20  0.749427  0.515330  0.829529  -0.210327
    C   C21  0.816837  0.506119  0.819551  0.226376
    C   C22  0.820275  0.498071  0.745121  -0.225763
    H   H7   0.872737  0.490930  0.736948  0.133067
    C   C23  0.755352  0.495942  0.679511  -0.019750
    H   H8   0.758723  0.488379  0.621248  0.118388
    C   C24  0.687886  0.504821  0.689193  -0.149076
    C   C25  0.245175  0.320573  0.501530  -0.163191
    H   H9   0.237214  0.375225  0.499506  0.113811
    C   C26  0.181158  0.255836  0.500742  -0.013119
    H   H10  0.124925  0.261781  0.499314  0.060591
    C   C27  0.190109  0.185679  0.504060  0.057937
    C   C28  0.262980  0.180003  0.506599  -0.146356
    H   H11  0.270693  0.125205  0.508501  0.127985
    C   C29  0.325467  0.243154  0.504054  -0.102700
    H   H12  0.381738  0.237395  0.505313  0.125376
    C   C30  0.317126  0.314065  0.502245  0.004961
    O   O9   0.948179  0.537018  0.091028  -0.544297
    O   O10  0.058825  0.643889  0.094502  -0.531932
    C   C31  0.002217  0.619679  0.120175  0.554150
    O   O11  0.038186  0.440351  0.087842  -0.578600
    O   O12  0.146278  0.554627  0.096597  -0.583302
    C   C32  0.120873  0.496544  0.120961  0.406144
    Cu  Cu3  0.940041  0.437812  0.002318  0.971433
    Cu  Cu4  0.065078  0.561306  0.003470  0.952426
    O   O13  0.943605  0.355425  0.908534  -0.577193
    O   O14  0.059190  0.461976  0.917344  -0.581561
    O   O15  0.858669  0.447073  0.911885  -0.562932
    O   O16  0.967009  0.556473  0.915314  -0.562507
    C   C33  0.001177  0.379681  0.883778  0.684103
    C   C34  0.884108  0.503820  0.886223  0.599767
    O   O17  0.035097  0.893113  0.466123  -0.549263
    O   O18  0.970343  0.930638  0.364890  -0.581446
    C   C35  0.000994  0.881081  0.386157  0.630806
    O   O19  0.963217  0.928656  0.570089  -0.602148
    O   O20  0.862793  0.896012  0.433611  -0.569297
    C   C36  0.883800  0.881488  0.500241  0.680067
    Cu  Cu5  0.062435  0.999158  0.563274  0.941635
    Cu  Cu6  0.943121  0.002166  0.442683  0.952430
    O   O21  0.071073  0.105680  0.641571  -0.578099
    O   O22  0.934601  0.073101  0.539491  -0.602295
    O   O23  0.142803  0.069821  0.537190  -0.590748
    O   O24  0.042163  0.107760  0.470461  -0.592083
    C   C37  0.003562  0.119539  0.619128  0.699154
    C   C38  0.121853  0.117607  0.503727  0.656940
    C   C39  0.006582  0.763022  0.185919  -0.188036
    C   C40  0.005125  0.824192  0.250638  -0.020650
    H   H13  0.008772  0.882641  0.248033  0.062031
    C   C41  0.000462  0.812274  0.318360  0.077013
    C   C42  0.994611  0.735623  0.319248  -0.050168
    C   C43  0.994348  0.673922  0.253426  -0.024802
    H   H14  0.989524  0.614634  0.254687  0.003338
    C   C44  0.001782  0.687354  0.187557  0.226021
    C   C45  0.074140  0.333042  0.805266  -0.012640
    H   H15  0.131022  0.397977  0.846972  0.113930
    C   C46  0.075978  0.270927  0.741893  -0.091529
    C   C47  0.003561  0.187386  0.686698  0.078568
    C   C48  0.930099  0.167421  0.695901  -0.181558
    H   H16  0.873346  0.102412  0.653230  0.136338
    C   C49  0.929454  0.229124  0.761054  -0.038537
    H   H17  0.871551  0.211870  0.767553  0.116511
    C   C50  0.001519  0.312448  0.815868  -0.116186
    I   I1   0.251528  0.692046  0.331959  -0.006996
    I   I2   0.743466  0.536118  0.944559  0.013400
    I   I3   0.007531  0.786576  0.083147  0.005705
    I   I4   0.451838  0.665009  0.319776  -0.082021
    I   I5   0.979153  0.701050  0.412357  -0.023478
    I   I6   0.188539  0.311302  0.728706  0.014649
    I   I7   0.287162  0.465492  0.077204  -0.017585
    I   I8   0.053721  0.323755  0.186734  0.021456
    I   I9   0.744175  0.699548  0.299870  0.000169
