# Generated by REPEAT Assigner based on pymatgen
data_DB0-m2_o6_o10_f0_pcu.sym.128_sqe
_audit_creation_date              2022-05-24
_audit_creation_method            REPEAT_Assigner
_cell_length_a                    8.835857
_cell_length_b                    16.040682
_cell_length_c                    14.617603
_cell_angle_alpha                 90.009333
_cell_angle_beta                  97.902574
_cell_angle_gamma                 89.990461
_cell_volume                      2052.123758
_symmetry_space_group_name_H-M    P1
_symmetry_Int_Tables_number       1
loop_
    _symmetry_equiv_pos_site_id
    _symmetry_equiv_pos_as_xyz
    1  x,y,z
loop_
    _atom_site_type_symbol
    _atom_site_label
    _atom_site_fract_x
    _atom_site_fract_y
    _atom_site_fract_z
    _atom_type_partial_charge
    O   O1   0.483828  0.384171  0.568636  -0.600478
    O   O2   0.490333  0.626242  0.412183  -0.596043
    O   O3   0.491961  0.383947  0.411872  -0.620970
    O   O4   0.482199  0.626466  0.568945  -0.562627
    C   C1   0.488077  0.345228  0.490325  0.859856
    C   C2   0.486117  0.665185  0.490497  0.792649
    O   O5   0.266324  0.507795  0.552406  -0.568443
    O   O6   0.707829  0.502618  0.428411  -0.565501
    O   O7   0.263793  0.501743  0.394895  -0.591088
    O   O8   0.710360  0.508670  0.585925  -0.616850
    C   C3   0.193648  0.504556  0.468156  0.695536
    C   C4   0.780504  0.505858  0.512662  0.705331
    Cu  Cu1  0.488615  0.505316  0.582061  0.925826
    Cu  Cu2  0.485538  0.505097  0.398757  0.958957
    C   C5   0.026246  0.503980  0.454509  -0.198200
    C   C6   0.947906  0.506436  0.526308  -0.189355
    H   H1   0.967057  0.501442  0.384547  0.147549
    H   H2   0.007096  0.508974  0.596270  0.142355
    C   C7   0.481125  0.962214  0.571527  -0.297127
    C   C8   0.494728  0.048198  0.409476  -0.275747
    H   H3   0.475451  0.928515  0.635000  0.177341
    H   H4   0.499679  0.081897  0.345922  0.172969
    C   C9   0.487455  0.919225  0.490437  -0.018819
    C   C10  0.488455  0.091187  0.490572  -0.047083
    C   C11  0.494759  0.962202  0.409443  0.401923
    C   C12  0.482144  0.048208  0.571679  0.417607
    C   C13  0.486702  0.829766  0.490372  0.055013
    C   C14  0.488426  0.180647  0.490550  0.085303
    C   C15  0.488328  0.255768  0.490475  -0.336060
    C   C16  0.486279  0.754645  0.490390  -0.293333
    H   H5   0.540156  0.634583  0.079439  0.211878
    H   H6   0.433989  0.375848  0.901366  0.233713
    C   C17  0.519310  0.577713  0.946166  0.429177
    C   C18  0.454930  0.432696  0.034647  0.374562
    C   C19  0.489273  0.505200  0.896250  -0.029035
    C   C20  0.484858  0.505223  0.084565  0.078830
    C   C21  0.457324  0.432686  0.940505  -0.358494
    C   C22  0.516813  0.577737  0.040314  -0.347952
    C   C23  0.490539  0.505269  0.798187  0.208224
    C   C24  0.483593  0.505149  0.182629  0.174647
    N   N1   0.483136  0.505110  0.261743  -0.225298
    N   N2   0.491011  0.505304  0.719074  -0.211161
    O   O9   0.474965  0.090805  0.651932  -0.469515
    C   C25  0.626829  0.107499  0.686951  0.349606
    H   H7   0.649270  0.175133  0.680653  -0.015709
    H   H8   0.703469  0.071926  0.647203  -0.058801
    C   C26  0.656241  0.081683  0.787553  0.114923
    H   H9   0.579425  0.117184  0.827256  -0.007362
    H   H10  0.633297  0.014049  0.793279  -0.026899
    C   C27  0.820972  0.099461  0.826534  -0.235240
    H   H11  0.898388  0.063749  0.787439  0.049760
    H   H12  0.841148  0.080447  0.900143  0.066982
    H   H13  0.844479  0.167076  0.821274  0.034309
    O   O10  0.500151  0.919607  0.328991  -0.462981
    C   C28  0.654569  0.901706  0.328727  0.322540
    H   H14  0.674235  0.834149  0.341381  -0.009007
    H   H15  0.724112  0.937854  0.383985  -0.061084
    C   C29  0.700173  0.925350  0.235933  0.176137
    H   H16  0.630425  0.889298  0.180670  -0.035286
    H   H17  0.679933  0.992923  0.223729  -0.035956
    C   C30  0.867838  0.906233  0.234656  -0.266549
    H   H18  0.938276  0.942478  0.289455  0.057535
    H   H19  0.899894  0.923667  0.166461  0.067781
    H   H20  0.888701  0.838668  0.246524  0.048804
    O   O11  0.550025  0.649687  0.902234  -0.446100
    C   C31  0.706170  0.646057  0.896542  0.249763
    H   H21  0.723424  0.633425  0.824101  0.018483
    H   H22  0.759062  0.595333  0.941604  -0.035328
    C   C32  0.779617  0.728443  0.927954  0.118565
    H   H23  0.726497  0.779190  0.883005  0.018641
    H   H24  0.761689  0.740678  0.000361  -0.005353
    C   C33  0.949444  0.725392  0.922112  -0.260724
    H   H25  0.003387  0.675027  0.967315  0.055614
    H   H26  0.001967  0.785961  0.945160  0.066250
    H   H27  0.968103  0.713472  0.849769  0.059057
    O   O12  0.424028  0.360736  0.078533  -0.424208
    C   C34  0.265133  0.354309  0.064133  0.267672
    H   H28  0.230084  0.310454  0.006447  -0.008721
    H   H29  0.214581  0.416524  0.046571  -0.044936
    C   C35  0.209972  0.322542  0.151421  0.135139
    H   H30  0.261206  0.260534  0.169287  0.004751
    H   H31  0.245300  0.366697  0.208774  0.021702
    C   C36  0.037375  0.314975  0.136659  -0.314562
    H   H32  0.985415  0.376883  0.119174  0.066926
    H   H33  0.998281  0.291682  0.200892  0.091372
    H   H34  0.001387  0.270599  0.079623  0.062429
