# generated using pymatgen
data_CuH14C22(NO3)2
_symmetry_space_group_name_H-M   'P 1'
_cell_length_a   24.49127700
_cell_length_b   24.66730800
_cell_length_c   15.98389400
_cell_angle_alpha   90.00000000
_cell_angle_beta   99.56646700
_cell_angle_gamma   90.00000000
_symmetry_Int_Tables_number   1
_chemical_formula_structural   CuH14C22(NO3)2
_chemical_formula_sum   'Cu4 H56 C88 N8 O24'
_cell_volume   9522.12462310
_cell_formula_units_Z   4
loop_
 _symmetry_equiv_pos_site_id
 _symmetry_equiv_pos_as_xyz
  1  'x, y, z'
loop_
 _atom_site_type_symbol
 _atom_site_label
 _atom_site_symmetry_multiplicity
 _atom_site_fract_x
 _atom_site_fract_y
 _atom_site_fract_z
 _atom_site_occupancy
  Cu  Cu1  1  0.49791700  0.00129000  0.41581900  1
  Cu  Cu2  1  0.50208300  0.99871000  0.58418100  1
  Cu  Cu3  1  0.99792100  0.49870700  0.41581900  1
  Cu  Cu4  1  0.00208000  0.50129300  0.58418100  1
  H  H1  1  0.41081400  0.85455900  0.60421800  1
  H  H2  1  0.58918600  0.14544100  0.39578200  1
  H  H3  1  0.62285900  0.88948500  0.38355300  1
  H  H4  1  0.37714000  0.11051400  0.61644700  1
  H  H5  1  0.87716000  0.38947100  0.61645900  1
  H  H6  1  0.12284000  0.61052900  0.38354100  1
  H  H7  1  0.08913200  0.35450400  0.39582400  1
  H  H8  1  0.91086700  0.64549500  0.60417600  1
  H  H9  1  0.64640500  0.10621000  0.65594700  1
  H  H10  1  0.35359500  0.89379000  0.34405400  1
  H  H11  1  0.36999800  0.12510500  0.34816000  1
  H  H12  1  0.63000100  0.87489500  0.65184100  1
  H  H13  1  0.13007000  0.62502900  0.65185800  1
  H  H14  1  0.86992900  0.37497100  0.34814300  1
  H  H15  1  0.85355300  0.60615100  0.34408500  1
  H  H16  1  0.14644600  0.39384800  0.65591600  1
  H  H17  1  0.26296600  0.74714300  0.59149600  1
  H  H18  1  0.73703300  0.25285700  0.40850400  1
  H  H19  1  0.74182000  0.75104900  0.39716200  1
  H  H20  1  0.25817900  0.24895100  0.60283900  1
  H  H21  1  0.75821000  0.25101400  0.60283600  1
  H  H22  1  0.24179000  0.74898500  0.39716400  1
  H  H23  1  0.23709400  0.24722200  0.40850500  1
  H  H24  1  0.76290600  0.75277900  0.59149600  1
  H  H25  1  0.28295800  0.82356900  0.33797600  1
  H  H26  1  0.71704100  0.17643000  0.66202400  1
  H  H27  1  0.70086900  0.80534400  0.65522600  1
  H  H28  1  0.29913100  0.19465700  0.34477500  1
  H  H29  1  0.79907200  0.30540700  0.34476200  1
  H  H30  1  0.20092800  0.69459400  0.65523800  1
  H  H31  1  0.21710000  0.32364100  0.66199800  1
  H  H32  1  0.78289900  0.67635900  0.33800300  1
  H  H33  1  0.65719600  0.21535900  0.40181700  1
  H  H34  1  0.34280300  0.78464000  0.59818300  1
  H  H35  1  0.30657300  0.17687800  0.61309800  1
  H  H36  1  0.69342800  0.82312200  0.38690400  1
  H  H37  1  0.19339900  0.67690800  0.38688900  1
  H  H38  1  0.80660000  0.32309200  0.61311200  1
  H  H39  1  0.84283600  0.71541500  0.59812800  1
  H  H40  1  0.15716300  0.28458500  0.40187200  1
  H  H41  1  0.41034200  0.98423900  0.26975900  1
  H  H42  1  0.58965700  0.01576100  0.73024100  1
  H  H43  1  0.91035300  0.51577100  0.26976100  1
  H  H44  1  0.08964600  0.48422900  0.73023900  1
  H  H45  1  0.43675000  0.00603600  0.98650000  1
  H  H46  1  0.56325000  0.99396500  0.01350100  1
  H  H47  1  0.93674900  0.49396500  0.98650100  1
  H  H48  1  0.06325000  0.50603400  0.01349900  1
  H  H49  1  0.59920000  0.01668900  0.88411400  1
  H  H50  1  0.40080000  0.98331200  0.11588700  1
  H  H51  1  0.09919200  0.48330000  0.88411100  1
  H  H52  1  0.90080800  0.51669900  0.11588900  1
  H  H53  1  0.56892900  0.03284400  0.13698100  1
  H  H54  1  0.43107100  0.96715500  0.86301900  1
  H  H55  1  0.06891900  0.46712200  0.13696400  1
  H  H56  1  0.93108000  0.53287800  0.86303600  1
  C  C1  1  0.42255000  0.07142700  0.48702100  1
  C  C2  1  0.57745100  0.92857300  0.51298000  1
  C  C3  1  0.57241700  0.07638100  0.51794000  1
  C  C4  1  0.42758300  0.92361800  0.48206100  1
  C  C5  1  0.92760400  0.57639900  0.48205500  1
  C  C6  1  0.07239600  0.42360000  0.51794500  1
  C  C7  1  0.07747200  0.57140300  0.51298500  1
  C  C8  1  0.92252800  0.42859800  0.48701500  1
  C  C9  1  0.38654600  0.87991300  0.47501200  1
  C  C10  1  0.61345400  0.12008700  0.52498900  1
  C  C11  1  0.62099600  0.88726400  0.51750000  1
  C  C12  1  0.37900500  0.11273600  0.48250100  1
  C  C13  1  0.87897400  0.38729800  0.48249500  1
  C  C14  1  0.12102600  0.61270200  0.51750500  1
  C  C15  1  0.11343200  0.37989500  0.52500300  1
  C  C16  1  0.88656800  0.62010500  0.47499700  1
  C  C17  1  0.38248800  0.84873800  0.54549400  1
  C  C18  1  0.61751200  0.15126100  0.45450700  1
  C  C19  1  0.63943600  0.87148500  0.44402000  1
  C  C20  1  0.36056400  0.12851500  0.55598100  1
  C  C21  1  0.86056100  0.37149300  0.55598600  1
  C  C22  1  0.13943900  0.62850700  0.44401400  1
  C  C23  1  0.11747400  0.34869900  0.45453800  1
  C  C24  1  0.88252600  0.65130000  0.54546200  1
  C  C25  1  0.34294100  0.80879800  0.54204600  1
  C  C26  1  0.65705900  0.19120100  0.45795400  1
  C  C27  1  0.67987500  0.83255800  0.44595200  1
  C  C28  1  0.32012500  0.16744100  0.55404800  1
  C  C29  1  0.82013300  0.33255500  0.55405700  1
  C  C30  1  0.17986700  0.66744500  0.44594300  1
  C  C31  1  0.15703600  0.30877100  0.45798500  1
  C  C32  1  0.84296400  0.69122800  0.54201600  1
  C  C33  1  0.30583900  0.80000100  0.46795500  1
  C  C34  1  0.69416000  0.19999900  0.53204500  1
  C  C35  1  0.70207900  0.80768800  0.52168100  1
  C  C36  1  0.29792000  0.19231100  0.47831900  1
  C  C37  1  0.79790800  0.30770700  0.47832200  1
  C  C38  1  0.20209100  0.69229300  0.52167800  1
  C  C39  1  0.19417000  0.30001300  0.53205100  1
  C  C40  1  0.80583000  0.69998600  0.46795000  1
  C  C41  1  0.31098500  0.83031500  0.39679600  1
  C  C42  1  0.68901500  0.16968500  0.60320400  1
  C  C43  1  0.68380800  0.82383100  0.59526200  1
  C  C44  1  0.31619200  0.17616800  0.40473800  1
  C  C45  1  0.81615000  0.32387700  0.40473100  1
  C  C46  1  0.18384900  0.67612300  0.59526900  1
  C  C47  1  0.18904500  0.33035100  0.60319600  1
  C  C48  1  0.81095400  0.66964800  0.39680500  1
  C  C49  1  0.35113500  0.86995700  0.40004200  1
  C  C50  1  0.64886400  0.13004200  0.59995800  1
  C  C51  1  0.64365100  0.86336700  0.59343600  1
  C  C52  1  0.35634900  0.13663300  0.40656500  1
  C  C53  1  0.85629700  0.36342300  0.40655400  1
  C  C54  1  0.14370300  0.63657800  0.59344700  1
  C  C55  1  0.14887900  0.36998000  0.59995300  1
  C  C56  1  0.85112000  0.63002000  0.40004700  1
  C  C57  1  0.26201300  0.75828100  0.46076000  1
  C  C58  1  0.73798700  0.24171900  0.53924000  1
  C  C59  1  0.74550400  0.76550000  0.52803000  1
  C  C60  1  0.25449500  0.23450000  0.47197100  1
  C  C61  1  0.75447100  0.26553300  0.47197300  1
  C  C62  1  0.24552800  0.73446700  0.52802700  1
  C  C63  1  0.23798700  0.25828600  0.53924300  1
  C  C64  1  0.76201200  0.74171400  0.46075800  1
  C  C65  1  0.46110600  0.98100100  0.74801900  1
  C  C66  1  0.53889300  0.01899900  0.25198100  1
  C  C67  1  0.96110400  0.51901700  0.74802400  1
  C  C68  1  0.03889500  0.48098200  0.25197600  1
  C  C69  1  0.46622700  0.97984400  0.83531300  1
  C  C70  1  0.53377300  0.02015600  0.16468800  1
  C  C71  1  0.96622800  0.52017600  0.83532100  1
  C  C72  1  0.03377200  0.47982400  0.16468000  1
  C  C73  1  0.51501800  0.99492700  0.88563200  1
  C  C74  1  0.48498200  0.00507100  0.11436800  1
  C  C75  1  0.01501500  0.50507700  0.88563400  1
  C  C76  1  0.98498400  0.49492300  0.11436600  1
  C  C77  1  0.55963000  0.00662300  0.84652500  1
  C  C78  1  0.44037000  0.99337500  0.15347500  1
  C  C79  1  0.05962200  0.49337200  0.84652200  1
  C  C80  1  0.94037800  0.50662800  0.15347800  1
  C  C81  1  0.55389900  0.00656600  0.75907300  1
  C  C82  1  0.44610100  0.99343300  0.24092700  1
  C  C83  1  0.05388900  0.49343100  0.75907000  1
  C  C84  1  0.94611100  0.50657000  0.24093000  1
  C  C85  1  0.52147000  0.99696300  0.97907600  1
  C  C86  1  0.47853000  0.00303700  0.02092500  1
  C  C87  1  0.02146900  0.50303800  0.97907700  1
  C  C88  1  0.97853000  0.49696200  0.02092400  1
  N  N1  1  0.50450700  0.99638600  0.71011600  1
  N  N2  1  0.49549200  0.00361400  0.28988400  1
  N  N3  1  0.00450000  0.50362100  0.71011600  1
  N  N4  1  0.99550100  0.49637900  0.28988400  1
  N  N5  1  0.40892700  0.96577700  0.70015700  1
  N  N6  1  0.59107200  0.03422400  0.29984300  1
  N  N7  1  0.90892600  0.53424400  0.70016200  1
  N  N8  1  0.09107300  0.46575600  0.29983800  1
  O  O1  1  0.43810000  0.05359600  0.41717400  1
  O  O2  1  0.56190000  0.94640400  0.58282600  1
  O  O3  1  0.55826600  0.05523100  0.58655900  1
  O  O4  1  0.44173400  0.94476800  0.41344100  1
  O  O5  1  0.94175300  0.55524500  0.41343600  1
  O  O6  1  0.05824600  0.44475500  0.58656400  1
  O  O7  1  0.06191300  0.55358000  0.58283100  1
  O  O8  1  0.93808600  0.44642000  0.41716900  1
  O  O9  1  0.44465100  0.05413900  0.56233800  1
  O  O10  1  0.55535000  0.94586100  0.43766300  1
  O  O11  1  0.55147800  0.05998300  0.44166800  1
  O  O12  1  0.44852200  0.94001600  0.55833300  1
  O  O13  1  0.94853600  0.56000100  0.55832800  1
  O  O14  1  0.05146300  0.43999900  0.44167300  1
  O  O15  1  0.05536900  0.55412000  0.43766700  1
  O  O16  1  0.94463000  0.44588000  0.56233300  1
  O  O17  1  0.38265500  0.92496400  0.72626800  1
  O  O18  1  0.38092700  0.00073100  0.64945300  1
  O  O19  1  0.61734400  0.07503600  0.27373400  1
  O  O20  1  0.61907100  0.99926800  0.35054700  1
  O  O21  1  0.88266200  0.57506600  0.72625700  1
  O  O22  1  0.88092100  0.49928600  0.64947300  1
  O  O23  1  0.11733800  0.42493400  0.27374400  1
  O  O24  1  0.11907800  0.50071400  0.35052700  1
