# generated using pymatgen
data_ZnH2C15NO4F7
_symmetry_space_group_name_H-M   'P 1'
_cell_length_a   10.80977800
_cell_length_b   11.88509500
_cell_length_c   13.15991400
_cell_angle_alpha   91.18438900
_cell_angle_beta   90.00211100
_cell_angle_gamma   85.81652300
_symmetry_Int_Tables_number   1
_chemical_formula_structural   ZnH2C15NO4F7
_chemical_formula_sum   'Zn2 H4 C30 N2 O8 F14'
_cell_volume   1685.85616157
_cell_formula_units_Z   2
loop_
 _symmetry_equiv_pos_site_id
 _symmetry_equiv_pos_as_xyz
  1  'x, y, z'
loop_
 _atom_site_type_symbol
 _atom_site_label
 _atom_site_symmetry_multiplicity
 _atom_site_fract_x
 _atom_site_fract_y
 _atom_site_fract_z
 _atom_site_occupancy
  Zn  Zn1  1  0.51062900  0.37230400  0.50793800  1
  Zn  Zn2  1  0.48937000  0.62769700  0.49206100  1
  H  H1  1  0.06479500  0.61242500  0.64594500  1
  H  H2  1  0.93520500  0.38757500  0.35405500  1
  H  H3  1  0.38631500  0.18503100  0.40922800  1
  H  H4  1  0.61368600  0.81496900  0.59077200  1
  C  C1  1  0.49953300  0.52017500  0.69916000  1
  C  C2  1  0.50046700  0.47982500  0.30084000  1
  C  C3  1  0.74182000  0.50057500  0.49901500  1
  C  C4  1  0.25818000  0.49942400  0.50098500  1
  C  C5  1  0.96201100  0.45741400  0.58366100  1
  C  C6  1  0.03798900  0.54258600  0.41634000  1
  C  C7  1  0.03558900  0.56157800  0.57974800  1
  C  C8  1  0.96441100  0.43842200  0.42025300  1
  C  C9  1  0.12056200  0.49964800  0.50155500  1
  C  C10  1  0.87943800  0.50035100  0.49844500  1
  C  C11  1  0.04753400  0.39658800  0.50690600  1
  C  C12  1  0.95246600  0.60341200  0.49309400  1
  C  C13  1  0.50041700  0.46880200  0.18859200  1
  C  C14  1  0.49958300  0.53119800  0.81140800  1
  C  C15  1  0.49978200  0.64724400  0.96282700  1
  C  C16  1  0.50021800  0.35275500  0.03717300  1
  C  C17  1  0.49960100  0.63661300  0.85849400  1
  C  C18  1  0.50039900  0.36338700  0.14150600  1
  C  C19  1  0.49968100  0.43642000  0.87161600  1
  C  C20  1  0.50031900  0.56358000  0.12838500  1
  C  C21  1  0.49999200  0.44719600  0.97702900  1
  C  C22  1  0.50000800  0.55280400  0.02297100  1
  C  C23  1  0.38388500  0.96207600  0.40817400  1
  C  C24  1  0.61611500  0.03792400  0.59182600  1
  C  C25  1  0.39350000  0.84629500  0.41621200  1
  C  C26  1  0.60650000  0.15370400  0.58378900  1
  C  C27  1  0.54882100  0.85737600  0.53928400  1
  C  C28  1  0.45117900  0.14262400  0.46071700  1
  C  C29  1  0.54144200  0.97358900  0.53294900  1
  C  C30  1  0.45855800  0.02641100  0.46705200  1
  N  N1  1  0.52474200  0.20420500  0.51880600  1
  N  N2  1  0.47525900  0.79579400  0.48119500  1
  O  O1  1  0.50765600  0.41881300  0.65695500  1
  O  O2  1  0.49234400  0.58118700  0.34304500  1
  O  O3  1  0.49162700  0.61213200  0.64511000  1
  O  O4  1  0.50837300  0.38786800  0.35489000  1
  O  O5  1  0.69232800  0.40354300  0.50508200  1
  O  O6  1  0.30767200  0.59645600  0.49491800  1
  O  O7  1  0.67624600  0.59743400  0.49335100  1
  O  O8  1  0.32375400  0.40256500  0.50664900  1
  F  F1  1  0.92064900  0.41007500  0.67129800  1
  F  F2  1  0.07935100  0.58992500  0.32870200  1
  F  F3  1  0.09796000  0.28709900  0.51663900  1
  F  F4  1  0.90204100  0.71290100  0.48336100  1
  F  F5  1  0.50153800  0.66752500  0.17247200  1
  F  F6  1  0.49846200  0.33247500  0.82752800  1
  F  F7  1  0.49981800  0.26792400  0.19602600  1
  F  F8  1  0.50018300  0.73207600  0.80397400  1
  F  F9  1  0.49980900  0.75255400  0.00436400  1
  F  F10  1  0.50019100  0.24744600  0.99563600  1
  F  F11  1  0.67990700  0.21657600  0.64188000  1
  F  F12  1  0.32009400  0.78342400  0.35812000  1
  F  F13  1  0.30113800  0.01138800  0.34240500  1
  F  F14  1  0.69886200  0.98861200  0.65759500  1
