# Generated by REPEAT Assigner based on pymatgen
data_DB0-m2_o22_o27_f0_nbo.sym.98
_audit_creation_date              2022-05-24
_audit_creation_method            REPEAT_Assigner
_cell_length_a                    30.216952
_cell_length_b                    30.081836
_cell_length_c                    24.434080
_cell_angle_alpha                 90.000000
_cell_angle_beta                  128.192222
_cell_angle_gamma                 90.000000
_cell_volume                      17455.843568
_symmetry_space_group_name_H-M    P1
_symmetry_Int_Tables_number       1
loop_
    _symmetry_equiv_pos_site_id
    _symmetry_equiv_pos_as_xyz
    1  x,y,z
loop_
    _atom_site_type_symbol
    _atom_site_label
    _atom_site_fract_x
    _atom_site_fract_y
    _atom_site_fract_z
    _atom_type_partial_charge
    O   O1    0.818764  0.774006  0.496171  -0.633893
    O   O2    0.181235  0.774006  0.503829  -0.633891
    O   O3    0.318764  0.274006  0.496171  -0.633912
    O   O4    0.681235  0.274006  0.503829  -0.633921
    O   O5    0.765824  0.828288  0.497875  -0.620186
    O   O6    0.234175  0.828288  0.502124  -0.620183
    O   O7    0.265824  0.328288  0.497875  -0.620167
    O   O8    0.734175  0.328288  0.502124  -0.620155
    C   C1    0.808220  0.815783  0.499509  0.598310
    C   C2    0.191780  0.815783  0.500490  0.598318
    C   C3    0.308220  0.315783  0.499509  0.598312
    C   C4    0.691780  0.315783  0.500490  0.598309
    O   O9    0.723607  0.725398  0.399689  -0.590026
    O   O10   0.276392  0.725398  0.600311  -0.590035
    O   O11   0.223607  0.225398  0.399689  -0.590048
    O   O12   0.776392  0.225398  0.600311  -0.590059
    O   O13   0.673048  0.783566  0.398286  -0.578526
    O   O14   0.326952  0.783566  0.601714  -0.578506
    O   O15   0.173048  0.283566  0.398286  -0.578501
    O   O16   0.826952  0.283566  0.601714  -0.578488
    C   C5    0.682158  0.754268  0.366429  0.681553
    C   C6    0.317842  0.754268  0.633571  0.681541
    C   C7    0.182158  0.254268  0.366429  0.681556
    C   C8    0.817842  0.254268  0.633571  0.681548
    Cu  Cu1   0.780182  0.723910  0.500940  1.002897
    Cu  Cu2   0.219818  0.723910  0.499060  1.002902
    Cu  Cu3   0.280182  0.223910  0.500940  1.002773
    Cu  Cu4   0.719818  0.223910  0.499060  1.002782
    Cu  Cu5   0.717053  0.786554  0.499350  0.990582
    Cu  Cu6   0.282947  0.786554  0.500650  0.990564
    Cu  Cu7   0.217053  0.286554  0.499350  0.990691
    Cu  Cu8   0.782947  0.286554  0.500650  0.990683
    O   O17   0.730381  0.682204  0.500353  -0.613923
    O   O18   0.269618  0.682204  0.499647  -0.613918
    O   O19   0.230381  0.182204  0.500353  -0.613945
    O   O20   0.769618  0.182204  0.499647  -0.613945
    O   O21   0.674282  0.736390  0.495761  -0.629538
    O   O22   0.325718  0.736390  0.504239  -0.629512
    O   O23   0.174282  0.236390  0.495761  -0.629523
    O   O24   0.825718  0.236390  0.504239  -0.629495
    O   O25   0.825681  0.728381  0.602062  -0.615080
    O   O26   0.174319  0.728381  0.397938  -0.615077
    O   O27   0.325681  0.228381  0.602062  -0.615102
    O   O28   0.674319  0.228381  0.397938  -0.615105
    O   O29   0.772226  0.783626  0.600700  -0.606022
    O   O30   0.227774  0.783626  0.399300  -0.606022
    O   O31   0.272226  0.283626  0.600700  -0.606000
    O   O32   0.727774  0.283626  0.399300  -0.606002
    C   C9    0.688993  0.694656  0.500722  0.572338
    C   C10   0.311007  0.694656  0.499277  0.572308
    C   C11   0.188993  0.194656  0.500722  0.572346
    C   C12   0.811007  0.194656  0.499277  0.572301
    C   C13   0.815228  0.756308  0.633937  0.652019
    C   C14   0.184771  0.756308  0.366062  0.652010
    C   C15   0.315228  0.256308  0.633937  0.652023
    C   C16   0.684771  0.256308  0.366062  0.652013
    C   C17   0.612021  0.790821  0.253573  -0.096435
    C   C18   0.387979  0.790821  0.746427  -0.096457
    C   C19   0.112021  0.290821  0.253573  -0.096432
    C   C20   0.887979  0.290821  0.746427  -0.096453
    H   H1    0.614590  0.820371  0.280558  0.111216
    H   H2    0.385410  0.820371  0.719442  0.111217
    H   H3    0.114590  0.320371  0.280558  0.111215
    H   H4    0.885410  0.320371  0.719442  0.111216
    C   C21   0.576922  0.790814  0.181818  0.095331
    C   C22   0.423078  0.790814  0.818181  0.095373
    C   C23   0.076922  0.290814  0.181818  0.095329
    C   C24   0.923078  0.290814  0.818181  0.095368
    H   H5    0.552290  0.820185  0.154345  0.038995
    H   H6    0.447710  0.820185  0.845655  0.038985
    H   H7    0.052290  0.320185  0.154345  0.038996
    H   H8    0.947710  0.320185  0.845655  0.038986
    C   C25   0.572531  0.753409  0.145921  -0.491849
    C   C26   0.427469  0.753409  0.854079  -0.491868
    C   C27   0.072531  0.253409  0.145921  -0.491848
    C   C28   0.927469  0.253409  0.854079  -0.491867
    C   C29   0.604229  0.716223  0.182575  0.100271
    C   C30   0.395771  0.716223  0.817425  0.100245
    C   C31   0.104229  0.216223  0.182575  0.100270
    C   C32   0.895771  0.216223  0.817425  0.100245
    H   H9    0.601795  0.686696  0.155645  0.039136
    H   H10   0.398205  0.686696  0.844355  0.039138
    H   H11   0.101795  0.186696  0.155645  0.039136
    H   H12   0.898205  0.186696  0.844355  0.039138
    C   C33   0.640559  0.716698  0.254388  -0.101165
    C   C34   0.359440  0.716698  0.745612  -0.101143
    C   C35   0.140559  0.216698  0.254388  -0.101167
    C   C36   0.859440  0.216698  0.745612  -0.101146
    H   H13   0.665188  0.687361  0.282070  0.110831
    H   H14   0.334812  0.687361  0.717930  0.110834
    H   H15   0.165188  0.187361  0.282070  0.110832
    H   H16   0.834812  0.187361  0.717930  0.110834
    C   C37   0.644310  0.753893  0.290202  -0.039044
    C   C38   0.355690  0.753893  0.709798  -0.039039
    C   C39   0.144310  0.253893  0.290202  -0.039043
    C   C40   0.855690  0.253893  0.709798  -0.039036
    N   N1    0.517238  0.714633  0.034423  -0.355844
    N   N2    0.482762  0.714633  0.965577  -0.355851
    N   N3    0.017238  0.214633  0.034423  -0.355841
    N   N4    0.982762  0.214633  0.965577  -0.355850
    C   C41   0.465372  0.753306  0.930382  0.948250
    C   C42   0.534627  0.753306  0.069618  0.948223
    C   C43   0.965372  0.253306  0.930382  0.948248
    C   C44   0.034627  0.253306  0.069618  0.948219
    N   N5    0.483003  0.791959  0.965594  -0.354276
    N   N6    0.516997  0.791959  0.034406  -0.354252
    N   N7    0.983003  0.291959  0.965594  -0.354274
    N   N8    0.016997  0.291959  0.034406  -0.354251
    C   C45   0.903687  0.845439  0.563290  -0.112067
    C   C46   0.096312  0.845439  0.436710  -0.112097
    C   C47   0.403687  0.345439  0.563290  -0.112085
    C   C48   0.596312  0.345439  0.436710  -0.112026
    H   H17   0.920983  0.813403  0.561651  0.004875
    H   H18   0.079017  0.813403  0.438349  0.004865
    H   H19   0.420983  0.313403  0.561651  0.004877
    H   H20   0.579017  0.313403  0.438349  0.004877
    H   H21   0.905850  0.846086  0.610270  0.006467
    H   H22   0.094150  0.846086  0.389730  0.006438
    H   H23   0.405850  0.346086  0.610270  0.006471
    H   H24   0.594150  0.346086  0.389730  0.006449
    C   C49   0.938289  0.883289  0.566820  -0.000254
    C   C50   0.061711  0.883289  0.433180  0.000103
    C   C51   0.438289  0.383289  0.566820  -0.000225
    C   C52   0.561711  0.383289  0.433180  -0.000381
    H   H25   0.949575  0.905893  0.609592  0.039104
    H   H26   0.050424  0.905893  0.390408  0.039026
    H   H27   0.449575  0.405893  0.609592  0.039101
    H   H28   0.550424  0.405893  0.390408  0.039156
    H   H29   0.977580  0.870108  0.578777  0.021192
    H   H30   0.022420  0.870108  0.421223  0.021085
    H   H31   0.477580  0.370108  0.578777  0.021185
    H   H32   0.522420  0.370108  0.421223  0.021209
    H   H33   0.851967  0.809493  0.433411  0.038451
    H   H34   0.148032  0.809493  0.566589  0.038467
    H   H35   0.351967  0.309493  0.433411  0.038457
    H   H36   0.648032  0.309493  0.566589  0.038465
    C   C53   0.839879  0.844004  0.434721  -0.233476
    C   C54   0.160121  0.844004  0.565279  -0.233565
    C   C55   0.339879  0.344004  0.434721  -0.233507
    C   C56   0.660121  0.344004  0.565279  -0.233518
    C   C57   0.822143  0.896761  0.496919  -0.180727
    C   C58   0.177857  0.896761  0.503080  -0.180738
    C   C59   0.322143  0.396761  0.496919  -0.180722
    C   C60   0.677857  0.396761  0.503080  -0.180698
    C   C61   0.843074  0.850432  0.498590  0.379781
    C   C62   0.156926  0.850432  0.501410  0.379843
    C   C63   0.343074  0.350432  0.498590  0.379797
    C   C64   0.656926  0.350432  0.501410  0.379800
    H   H37   0.777050  0.900275  0.451431  0.050325
    H   H38   0.222950  0.900275  0.548569  0.050332
    H   H39   0.277050  0.400275  0.451431  0.050325
    H   H40   0.722950  0.400275  0.548569  0.050322
    H   H41   0.827563  0.902833  0.545533  0.039437
    H   H42   0.172437  0.902833  0.454467  0.039442
    H   H43   0.327563  0.402833  0.545533  0.039436
    H   H44   0.672437  0.402833  0.454467  0.039436
    C   C65   0.903864  0.908467  0.498143  -0.122763
    C   C66   0.096135  0.908467  0.501857  -0.123031
    C   C67   0.403864  0.408467  0.498143  -0.122822
    C   C68   0.596135  0.408467  0.501857  -0.122740
    C   C69   0.878655  0.876896  0.436032  0.423154
    C   C70   0.121345  0.876896  0.563968  0.423267
    C   C71   0.378655  0.376896  0.436032  0.423221
    C   C72   0.621345  0.376896  0.563968  0.423188
    C   C73   0.855610  0.931096  0.490802  -0.018466
    C   C74   0.144390  0.931096  0.509198  -0.018515
    C   C75   0.355610  0.431096  0.490802  -0.018468
    C   C76   0.644390  0.431096  0.509198  -0.018517
    H   H45   0.872269  0.956461  0.532220  0.045187
    H   H46   0.127731  0.956461  0.467779  0.045215
    H   H47   0.372269  0.456461  0.532220  0.045190
    H   H48   0.627731  0.456461  0.467779  0.045195
    H   H49   0.827707  0.947763  0.439419  0.023632
    H   H50   0.172293  0.947763  0.560581  0.023654
    H   H51   0.327707  0.447763  0.439419  0.023632
    H   H52   0.672293  0.447763  0.560581  0.023637
    H   H53   0.796021  0.849708  0.387288  0.015444
    H   H54   0.203979  0.849708  0.612711  0.015457
    H   H55   0.296021  0.349708  0.387288  0.015448
    H   H56   0.703979  0.349708  0.612711  0.015447
    H   H57   0.852587  0.896575  0.387300  -0.054426
    H   H58   0.147413  0.896575  0.612700  -0.054444
    H   H59   0.352587  0.396575  0.387300  -0.054435
    H   H60   0.647413  0.396575  0.612700  -0.054432
    C   C77   0.835732  0.773504  0.746307  -0.105369
    C   C78   0.164268  0.773504  0.253693  -0.105379
    C   C79   0.335732  0.273504  0.746307  -0.105372
    C   C80   0.664268  0.273504  0.253693  -0.105384
    H   H61   0.793211  0.785593  0.718943  0.115284
    H   H62   0.206788  0.785593  0.281057  0.115282
    H   H63   0.293211  0.285593  0.718943  0.115284
    H   H64   0.706788  0.285593  0.281057  0.115285
    C   C81   0.871708  0.773507  0.818105  0.079009
    C   C82   0.128291  0.773507  0.181895  0.079040
    C   C83   0.371708  0.273507  0.818105  0.079013
    C   C84   0.628291  0.273507  0.181895  0.079043
    H   H65   0.856813  0.786154  0.845491  0.045280
    H   H66   0.143187  0.786154  0.154508  0.045270
    H   H67   0.356813  0.286154  0.845491  0.045280
    H   H68   0.643187  0.286154  0.154508  0.045269
    C   C85   0.926391  0.758519  0.854202  -0.492210
    C   C86   0.073609  0.758519  0.145797  -0.492234
    C   C87   0.426391  0.258519  0.854202  -0.492211
    C   C88   0.573609  0.258519  0.145797  -0.492237
    C   C89   0.944489  0.742897  0.817881  0.081774
    C   C90   0.055511  0.742897  0.182119  0.081775
    C   C91   0.444489  0.242897  0.817881  0.081768
    C   C92   0.555511  0.242897  0.182119  0.081774
    H   H69   0.986932  0.730690  0.845053  0.047890
    H   H70   0.013068  0.730690  0.154947  0.047890
    H   H71   0.486932  0.230690  0.845053  0.047890
    H   H72   0.513068  0.230690  0.154947  0.047890
    C   C93   0.907959  0.741543  0.746171  -0.110246
    C   C94   0.092041  0.741543  0.253829  -0.110254
    C   C95   0.407959  0.241543  0.746171  -0.110242
    C   C96   0.592041  0.241543  0.253829  -0.110252
    H   H73   0.922822  0.728933  0.718725  0.114324
    H   H74   0.077178  0.728933  0.281275  0.114322
    H   H75   0.422822  0.228933  0.718725  0.114323
    H   H76   0.577178  0.228933  0.281275  0.114320
    C   C97   0.853570  0.757136  0.710082  0.017818
    C   C98   0.146430  0.757136  0.289918  0.017829
    C   C99   0.353570  0.257136  0.710082  0.017818
    C   C100  0.646430  0.257136  0.289918  0.017834
    N   N9    0.020887  0.758844  0.965128  -0.369832
    N   N10   0.979112  0.758844  0.034872  -0.369811
    N   N11   0.520887  0.258844  0.965128  -0.369829
    N   N12   0.479112  0.258844  0.034872  -0.369808
    N   N13   0.055643  0.759113  0.033946  -0.362701
    N   N14   0.944356  0.759113  0.966054  -0.362701
    N   N15   0.555643  0.259113  0.033946  -0.362703
    N   N16   0.444356  0.259113  0.966054  -0.362706
    C   C101  0.035135  0.758944  0.069575  0.977991
    C   C102  0.964865  0.758944  0.930425  0.977987
    C   C103  0.535135  0.258944  0.069575  0.977994
    C   C104  0.464865  0.258944  0.930425  0.977989
    C   C105  0.636992  0.624873  0.445259  -0.079081
    C   C106  0.363008  0.624873  0.554741  -0.079113
    C   C107  0.136992  0.124873  0.445259  -0.079105
    C   C108  0.863008  0.124873  0.554741  -0.079124
    H   H77   0.674423  0.611376  0.452482  0.031255
    H   H78   0.325576  0.611376  0.547518  0.031268
    H   H79   0.174423  0.111376  0.452482  0.031259
    H   H80   0.825576  0.111376  0.547518  0.031270
    H   H81   0.608396  0.640245  0.392907  0.004270
    H   H82   0.391604  0.640245  0.607093  0.004284
    H   H83   0.108396  0.140245  0.392907  0.004274
    H   H84   0.891604  0.140245  0.607093  0.004285
    C   C109  0.607107  0.586857  0.450738  -0.038431
    C   C110  0.392893  0.586857  0.549262  -0.038446
    C   C111  0.107107  0.086857  0.450738  -0.038400
    C   C112  0.892893  0.086857  0.549262  -0.038438
    H   H85   0.567283  0.580031  0.398177  0.026762
    H   H86   0.432717  0.580031  0.601823  0.026772
    H   H87   0.067283  0.080031  0.398177  0.026759
    H   H88   0.932717  0.080031  0.601823  0.026772
    H   H89   0.633988  0.556723  0.470066  -0.002071
    H   H90   0.366012  0.556723  0.529934  -0.002067
    H   H91   0.133988  0.056723  0.470066  -0.002082
    H   H92   0.866012  0.056723  0.529934  -0.002067
    H   H93   0.724014  0.618812  0.579943  0.014875
    H   H94   0.275985  0.618812  0.420057  0.014915
    H   H95   0.224014  0.118812  0.579943  0.014875
    H   H96   0.775985  0.118812  0.420057  0.014912
    H   H97   0.673112  0.572304  0.593183  0.020552
    H   H98   0.326888  0.572304  0.406817  0.020539
    H   H99   0.173112  0.072304  0.593183  0.020549
    H   H100  0.826888  0.072304  0.406817  0.020542
    C   C113  0.688204  0.637064  0.571090  -0.088934
    C   C114  0.311795  0.637064  0.428910  -0.089053
    C   C115  0.188204  0.137064  0.571090  -0.088939
    C   C116  0.811795  0.137064  0.428910  -0.089044
    C   C117  0.601456  0.679737  0.485318  -0.168087
    C   C118  0.398543  0.679737  0.514682  -0.167722
    C   C119  0.101456  0.179737  0.485318  -0.168088
    C   C120  0.898543  0.179737  0.514682  -0.167711
    C   C121  0.654084  0.659438  0.500467  0.324565
    C   C122  0.345916  0.659438  0.499533  0.324522
    C   C123  0.154084  0.159438  0.500467  0.324574
    C   C124  0.845916  0.159438  0.499533  0.324544
    H   H101  0.613230  0.702057  0.528604  0.043008
    H   H102  0.386770  0.702057  0.471395  0.042921
    H   H103  0.113230  0.202057  0.528604  0.043007
    H   H104  0.886770  0.202057  0.471395  0.042919
    H   H105  0.577785  0.698839  0.435933  0.036823
    H   H106  0.422215  0.698839  0.564066  0.036706
    H   H107  0.077785  0.198839  0.435933  0.036825
    H   H108  0.922215  0.198839  0.564066  0.036704
    C   C125  0.595499  0.599395  0.500970  0.170840
    C   C126  0.404500  0.599395  0.499030  0.170836
    C   C127  0.095499  0.099395  0.500970  0.170829
    C   C128  0.904500  0.099395  0.499030  0.170816
    C   C129  0.651079  0.604746  0.573573  -0.026384
    C   C130  0.348921  0.604746  0.426427  -0.026319
    C   C131  0.151079  0.104746  0.573573  -0.026372
    C   C132  0.848921  0.104746  0.426427  -0.026328
    C   C133  0.563850  0.643088  0.478185  0.053199
    C   C134  0.436150  0.643088  0.521815  0.053034
    C   C135  0.063850  0.143088  0.478185  0.053200
    C   C136  0.936150  0.143088  0.521815  0.053026
    H   H109  0.525576  0.640704  0.423090  0.009438
    H   H110  0.474424  0.640704  0.576910  0.009472
    H   H111  0.025576  0.140704  0.423090  0.009435
    H   H112  0.974424  0.140704  0.576910  0.009472
    H   H113  0.551220  0.650883  0.511157  -0.017353
    H   H114  0.448779  0.650883  0.488843  -0.017334
    H   H115  0.051220  0.150883  0.511157  -0.017352
    H   H116  0.948779  0.150883  0.488843  -0.017330
    H   H117  0.704782  0.662426  0.612492  0.003499
    H   H118  0.295218  0.662426  0.387507  0.003526
    H   H119  0.204782  0.162426  0.612492  0.003499
    H   H120  0.795218  0.162426  0.387507  0.003523
    H   H121  0.643438  0.617886  0.609499  0.017003
    H   H122  0.356562  0.617886  0.390501  0.016999
    H   H123  0.143438  0.117886  0.609499  0.017001
    H   H124  0.856562  0.117886  0.390501  0.017001
    O   O33   0.077200  0.959711  0.560915  -0.628162
    O   O34   0.922800  0.959711  0.439085  -0.628159
    O   O35   0.577200  0.459711  0.560915  -0.628178
    O   O36   0.422800  0.459711  0.439085  -0.628164
    O   O37   0.014751  0.956821  0.441015  -0.657179
    O   O38   0.985249  0.956821  0.558985  -0.657167
    O   O39   0.514751  0.456821  0.441015  -0.657178
    O   O40   0.485249  0.456821  0.558985  -0.657164
    C   C137  0.060626  0.943420  0.501177  0.684533
    C   C138  0.939374  0.943420  0.498822  0.684436
    C   C139  0.560626  0.443420  0.501177  0.684477
    C   C140  0.439374  0.443420  0.498822  0.684462
    Cu  Cu9   0.534456  0.503965  0.569340  1.012177
    Cu  Cu10  0.465544  0.503965  0.430660  1.012186
    Cu  Cu11  0.034456  0.003965  0.569340  1.012134
    Cu  Cu12  0.965544  0.003965  0.430660  1.012212
    O   O41   0.485048  0.550811  0.559034  -0.633170
    O   O42   0.514952  0.550811  0.440966  -0.633160
    O   O43   0.985048  0.050811  0.559034  -0.633163
    O   O44   0.014952  0.050811  0.440966  -0.633146
    O   O45   0.423007  0.548464  0.439080  -0.616466
    O   O46   0.576993  0.548464  0.560920  -0.616441
    O   O47   0.923007  0.048464  0.439080  -0.616454
    O   O48   0.076993  0.048464  0.560920  -0.616437
    C   C141  0.439256  0.564224  0.498987  0.582391
    C   C142  0.560743  0.564224  0.501013  0.582355
    C   C143  0.939256  0.064224  0.498987  0.582393
    C   C144  0.060743  0.064224  0.501013  0.582338
    C   C145  0.923107  0.852075  0.436688  -0.246515
    C   C146  0.896212  0.829274  0.368581  -0.016488
    C   C147  0.926922  0.803472  0.359529  -0.484691
    H   H125  0.944732  0.826898  0.478766  0.096082
    H   H126  0.954712  0.875472  0.444387  0.095892
    H   H127  0.851648  0.833356  0.326316  0.092037
    H   H128  0.971397  0.798748  0.401531  0.194245
    H   H129  0.907364  0.786871  0.310104  0.169862
    C   C148  0.076893  0.852075  0.563312  -0.246465
    C   C149  0.103787  0.829274  0.631419  -0.016517
    C   C150  0.073077  0.803472  0.640471  -0.484672
    H   H130  0.055268  0.826898  0.521234  0.096057
    H   H131  0.045288  0.875472  0.555612  0.095850
    H   H132  0.148352  0.833356  0.673684  0.092036
    H   H133  0.028603  0.798748  0.598469  0.194241
    H   H134  0.092636  0.786871  0.689896  0.169862
    C   C151  0.423107  0.352075  0.436688  -0.246543
    C   C152  0.396212  0.329274  0.368581  -0.016497
    C   C153  0.426922  0.303472  0.359529  -0.484678
    H   H135  0.444732  0.326898  0.478766  0.096084
    H   H136  0.454712  0.375472  0.444387  0.095890
    H   H137  0.351648  0.333356  0.326316  0.092039
    H   H138  0.471397  0.298748  0.401531  0.194242
    H   H139  0.407364  0.286871  0.310104  0.169861
    C   C154  0.576893  0.352075  0.563312  -0.246480
    C   C155  0.603787  0.329274  0.631419  -0.016513
    C   C156  0.573077  0.303472  0.640471  -0.484673
    H   H140  0.555268  0.326898  0.521234  0.096064
    H   H141  0.545288  0.375472  0.555612  0.095866
    H   H142  0.648352  0.333356  0.673684  0.092035
    H   H143  0.528603  0.298748  0.598469  0.194240
    H   H144  0.592636  0.286871  0.689896  0.169862
