# generated using pymatgen
data_Fe2H29C44N11O16
_symmetry_space_group_name_H-M   'P 1'
_cell_length_a   15.55242100
_cell_length_b   19.64672900
_cell_length_c   13.33599400
_cell_angle_alpha   96.87493900
_cell_angle_beta   102.15108800
_cell_angle_gamma   70.14276500
_symmetry_Int_Tables_number   1
_chemical_formula_structural   Fe2H29C44N11O16
_chemical_formula_sum   'Fe2 H29 C44 N11 O16'
_cell_volume   3741.56727974
_cell_formula_units_Z   1
loop_
 _symmetry_equiv_pos_site_id
 _symmetry_equiv_pos_as_xyz
  1  'x, y, z'
loop_
 _atom_site_type_symbol
 _atom_site_label
 _atom_site_symmetry_multiplicity
 _atom_site_fract_x
 _atom_site_fract_y
 _atom_site_fract_z
 _atom_site_occupancy
  Fe  Fe1  1  0.47615400  0.98165800  0.77450800  1
  Fe  Fe2  1  0.51336900  0.01384000  0.22547900  1
  H  H1  1  0.78889200  0.01663800  0.21729100  1
  H  H2  1  0.54113900  0.91650500  0.47994800  1
  H  H3  1  0.71189400  0.73081900  0.64716900  1
  H  H4  1  0.14640500  0.50917100  0.55491100  1
  H  H5  1  0.06801700  0.28495600  0.46278400  1
  H  H6  1  0.94364900  0.39968900  0.46940200  1
  H  H7  1  0.44302400  0.07722800  0.51581700  1
  H  H8  1  0.23420700  0.23762700  0.65173500  1
  H  H9  1  0.86621900  0.50334100  0.38564400  1
  H  H10  1  0.74330600  0.61879000  0.38682300  1
  H  H11  1  0.03356500  0.58378200  0.63703800  1
  H  H12  1  0.32189500  0.36097800  0.63008400  1
  H  H13  1  0.32829500  0.37158200  0.50745800  1
  H  H14  1  0.19316600  0.28144300  0.30330000  1
  H  H15  1  0.27285300  0.32471900  0.34714200  1
  H  H16  1  0.90952300  0.75866400  0.60383300  1
  H  H17  1  0.87157500  0.73017700  0.69707400  1
  H  H18  1  0.96390800  0.99278300  0.23967500  1
  H  H19  1  0.90775400  0.08203200  0.22244500  1
  H  H20  1  0.87315200  0.93991100  0.81919000  1
  H  H21  1  0.82631500  0.03109900  0.80608100  1
  H  H22  1  0.01703100  0.00205500  0.76347700  1
  H  H23  1  0.07601000  0.91211000  0.78034100  1
  H  H24  1  0.14098600  0.02373000  0.71922200  1
  H  H25  1  0.19473700  0.93213500  0.72255200  1
  H  H26  1  0.11904300  0.05302400  0.18273900  1
  H  H27  1  0.16548200  0.96168400  0.19416800  1
  H  H28  1  0.84886300  0.75312300  0.37479800  1
  H  H29  1  0.77446700  0.71218400  0.30145700  1
  C  C1  1  0.79357000  0.01055100  0.13677900  1
  C  C2  1  0.87136100  0.01518500  0.10830600  1
  C  C3  1  0.87894900  0.00573900  0.00522800  1
  C  C4  1  0.80577500  0.99576900  0.93232300  1
  C  C5  1  0.72572300  0.99286300  0.96063700  1
  C  C6  1  0.72192500  0.99779800  0.06515200  1
  C  C7  1  0.11611000  0.98029400  0.89210600  1
  C  C8  1  0.19306000  0.98626000  0.86179000  1
  C  C9  1  0.26619700  0.99729800  0.93350500  1
  C  C10  1  0.26437600  0.00050400  0.03841700  1
  C  C11  1  0.18462800  0.99793900  0.06789300  1
  C  C12  1  0.11040400  0.98899200  0.99588000  1
  C  C13  1  0.36188000  0.10414900  0.67363000  1
  C  C14  1  0.34395700  0.00393400  0.89364100  1
  C  C15  1  0.64513700  0.99016900  0.87944600  1
  C  C16  1  0.57575300  0.86033600  0.66154600  1
  C  C17  1  0.40724500  0.13349100  0.33532900  1
  C  C18  1  0.34611300  0.00213500  0.11899200  1
  C  C19  1  0.64391000  0.99180100  0.10493500  1
  C  C20  1  0.62867900  0.89228300  0.32799000  1
  C  C21  1  0.64899500  0.84310500  0.40991500  1
  C  C22  1  0.72395200  0.78014400  0.41757300  1
  C  C23  1  0.74472100  0.73805500  0.50173200  1
  C  C24  1  0.69383900  0.76236300  0.58025700  1
  C  C25  1  0.62079100  0.82684600  0.57347800  1
  C  C26  1  0.59644000  0.86508600  0.48598200  1
  C  C27  1  0.12744600  0.46055700  0.53576200  1
  C  C28  1  0.19792500  0.39498300  0.53512000  1
  C  C29  1  0.17668500  0.33163200  0.50600800  1
  C  C30  1  0.08497100  0.33445100  0.48273300  1
  C  C31  1  0.01459600  0.39985800  0.48554500  1
  C  C32  1  0.03505100  0.46382400  0.51098600  1
  C  C33  1  0.29319900  0.23459900  0.42079600  1
  C  C34  1  0.36420400  0.16841500  0.42463400  1
  C  C35  1  0.39040000  0.13003100  0.51244000  1
  C  C36  1  0.34256100  0.15368700  0.59243100  1
  C  C37  1  0.27187600  0.21899600  0.58883700  1
  C  C38  1  0.24982600  0.26109900  0.50536200  1
  C  C39  1  0.87705000  0.54520900  0.44219700  1
  C  C40  1  0.80746700  0.61118700  0.44152100  1
  C  C41  1  0.81954000  0.66791700  0.50817100  1
  C  C42  1  0.90197400  0.65731600  0.57834200  1
  C  C43  1  0.97096700  0.59071400  0.58014600  1
  C  C44  1  0.95977200  0.53418400  0.51154300  1
  N  N1  1  0.95759700  0.00886600  0.97032600  1
  N  N2  1  0.03192700  0.98641000  0.03200500  1
  N  N3  1  0.29192200  0.39366600  0.56737600  1
  N  N4  1  0.26366700  0.27418200  0.32980300  1
  N  N5  1  0.91883700  0.71483900  0.64686400  1
  N  N6  1  0.94014600  0.03265900  0.18593300  1
  N  N7  1  0.81547800  0.98553300  0.82707600  1
  N  N8  1  0.04593600  0.96202200  0.81699300  1
  N  N9  1  0.19736600  0.98252200  0.75531300  1
  N  N10  1  0.17632600  0.00736000  0.17356000  1
  N  N11  1  0.77986000  0.76044800  0.33983400  1
  O  O1  1  0.44774500  0.07872100  0.72307600  1
  O  O2  1  0.36390200  0.06457200  0.91069200  1
  O  O3  1  0.30329000  0.06935600  0.67337000  1
  O  O4  1  0.38393400  0.95389700  0.82797600  1
  O  O5  1  0.57676800  0.97214000  0.89908200  1
  O  O6  1  0.63825100  0.01004800  0.78683200  1
  O  O7  1  0.50218100  0.91858700  0.64722300  1
  O  O8  1  0.61811300  0.84152000  0.75492800  1
  O  O9  1  0.48499500  0.07871200  0.35079200  1
  O  O10  1  0.36144500  0.14733300  0.24153500  1
  O  O11  1  0.41410300  0.02104400  0.09980000  1
  O  O12  1  0.35337500  0.98180800  0.21143000  1
  O  O13  1  0.68738200  0.92644800  0.32536700  1
  O  O14  1  0.60590800  0.04134200  0.17220900  1
  O  O15  1  0.54228400  0.91758200  0.27987800  1
  O  O16  1  0.62323600  0.93146500  0.08805500  1
