# generated using pymatgen
data_FeH11C26BrO8
_symmetry_space_group_name_H-M   'P 1'
_cell_length_a   15.97862000
_cell_length_b   15.93551200
_cell_length_c   13.74531300
_cell_angle_alpha   88.47084800
_cell_angle_beta   97.56901800
_cell_angle_gamma   104.60383800
_symmetry_Int_Tables_number   1
_chemical_formula_structural   FeH11C26BrO8
_chemical_formula_sum   'Fe2 H22 C52 Br2 O16'
_cell_volume   3357.27196970
_cell_formula_units_Z   2
loop_
 _symmetry_equiv_pos_site_id
 _symmetry_equiv_pos_as_xyz
  1  'x, y, z'
loop_
 _atom_site_type_symbol
 _atom_site_label
 _atom_site_symmetry_multiplicity
 _atom_site_fract_x
 _atom_site_fract_y
 _atom_site_fract_z
 _atom_site_occupancy
  Fe  Fe1  1  0.49128300  0.98653300  0.79684800  1
  Fe  Fe2  1  0.48509200  0.97189600  0.21653600  1
  H  H1  1  0.20921000  0.94687200  0.77907600  1
  H  H2  1  0.06361500  0.94495400  0.81823600  1
  H  H3  1  0.16329500  0.98605700  0.11962500  1
  H  H4  1  0.80735400  0.96604000  0.89007600  1
  H  H5  1  0.91865800  0.01498900  0.18604600  1
  H  H6  1  0.50860400  0.90333500  0.51253600  1
  H  H7  1  0.50303200  0.67847200  0.35348200  1
  H  H8  1  0.46741000  0.65905900  0.65778300  1
  H  H9  1  0.36902100  0.52537900  0.57642500  1
  H  H10  1  0.36708000  0.37230200  0.57417000  1
  H  H11  1  0.59547300  0.43171700  0.42964500  1
  H  H12  1  0.59507000  0.58447600  0.42779900  1
  H  H13  1  0.49403500  0.29633700  0.35231200  1
  H  H14  1  0.45693200  0.05344400  0.49930000  1
  H  H15  1  0.61196200  0.36840700  0.68246800  1
  H  H16  1  0.62373300  0.43724400  0.84300200  1
  H  H17  1  0.36590100  0.29287700  0.87614300  1
  H  H18  1  0.35311200  0.22458200  0.71521800  1
  H  H19  1  0.75482800  0.14925600  0.23771500  1
  H  H20  1  0.75720400  0.17704800  0.41317900  1
  H  H21  1  0.81204200  0.93262200  0.48202300  1
  H  H22  1  0.80870400  0.90414400  0.30665200  1
  C  C1  1  0.19945300  0.95317100  0.85462000  1
  C  C2  1  0.11772500  0.95304400  0.87629900  1
  C  C3  1  0.10585500  0.96718900  0.97122900  1
  C  C4  1  0.17487400  0.97727900  0.04532500  1
  C  C5  1  0.25744000  0.97710000  0.02459500  1
  C  C6  1  0.26991900  0.96779100  0.92741000  1
  C  C7  1  0.02209300  0.97365900  0.99275500  1
  C  C8  1  0.95234100  0.98017500  0.01150200  1
  C  C9  1  0.79872100  0.97733300  0.96482600  1
  C  C10  1  0.71789300  0.98018500  0.98904100  1
  C  C11  1  0.70907500  0.99330000  0.08696400  1
  C  C12  1  0.78276700  0.00908200  0.15697500  1
  C  C13  1  0.86215400  0.00548900  0.13095000  1
  C  C14  1  0.86985800  0.98790700  0.03584900  1
  C  C15  1  0.45075900  0.10359900  0.67076700  1
  C  C16  1  0.35697300  0.98512100  0.89704800  1
  C  C17  1  0.64491500  0.97198500  0.90879500  1
  C  C18  1  0.48220000  0.83231300  0.68516200  1
  C  C19  1  0.48394300  0.12385800  0.32652900  1
  C  C20  1  0.32850200  0.98323100  0.10649500  1
  C  C21  1  0.62233800  0.97357500  0.11963800  1
  C  C22  1  0.52411900  0.85322200  0.34259300  1
  C  C23  1  0.50629600  0.79592900  0.42585500  1
  C  C24  1  0.49790700  0.70792100  0.42165700  1
  C  C25  1  0.48462700  0.65835800  0.50538800  1
  C  C26  1  0.47681900  0.69722100  0.59210300  1
  C  C27  1  0.48615600  0.78585300  0.59571400  1
  C  C28  1  0.50168200  0.83417400  0.51239700  1
  C  C29  1  0.41947200  0.50544100  0.54483000  1
  C  C30  1  0.41882100  0.41875400  0.54413500  1
  C  C31  1  0.48312700  0.39144900  0.50505900  1
  C  C32  1  0.54505300  0.45163300  0.46131600  1
  C  C33  1  0.54459200  0.53817600  0.46006100  1
  C  C34  1  0.48259900  0.56577300  0.50316200  1
  C  C35  1  0.48717400  0.25884700  0.41876200  1
  C  C36  1  0.47880100  0.17040800  0.41563400  1
  C  C37  1  0.46462900  0.12270500  0.49947600  1
  C  C38  1  0.46409300  0.16153900  0.58706100  1
  C  C39  1  0.47546100  0.25039800  0.59233900  1
  C  C40  1  0.48339200  0.29899700  0.50627600  1
  C  C41  1  0.48183900  0.29183600  0.68823100  1
  C  C42  1  0.55750700  0.35193600  0.72448200  1
  C  C43  1  0.56433000  0.39046400  0.81482100  1
  C  C44  1  0.49556200  0.36922300  0.86933100  1
  C  C45  1  0.41991700  0.30941900  0.83348200  1
  C  C46  1  0.41300100  0.27076100  0.74320400  1
  C  C47  1  0.77843300  0.02352900  0.26071000  1
  C  C48  1  0.76565500  0.10077700  0.29109800  1
  C  C49  1  0.76764800  0.11672500  0.38961700  1
  C  C50  1  0.78383500  0.05614600  0.45818100  1
  C  C51  1  0.79859100  0.97983400  0.42824300  1
  C  C52  1  0.79646000  0.96379300  0.32971800  1
  Br  Br1  1  0.50502000  0.42257000  0.99411100  1
  Br  Br2  1  0.78705700  0.07845000  0.59435500  1
  O  O1  1  0.51515500  0.10464200  0.74110000  1
  O  O2  1  0.41155800  0.06113600  0.91667700  1
  O  O3  1  0.38626700  0.03349500  0.65896700  1
  O  O4  1  0.37754800  0.93000500  0.84094000  1
  O  O5  1  0.57221600  0.99172200  0.92250900  1
  O  O6  1  0.65601400  0.95304800  0.81988400  1
  O  O7  1  0.50421000  0.91743900  0.68232900  1
  O  O8  1  0.45611600  0.79112900  0.76399300  1
  O  O9  1  0.47318200  0.03945200  0.33293600  1
  O  O10  1  0.50121900  0.16470900  0.24455600  1
  O  O11  1  0.40306300  0.96814400  0.09195900  1
  O  O12  1  0.31465500  0.99633000  0.19615600  1
  O  O13  1  0.58791500  0.92357400  0.35752600  1
  O  O14  1  0.59816900  0.02938400  0.17144200  1
  O  O15  1  0.46163600  0.85296300  0.27026400  1
  O  O16  1  0.56983000  0.89627600  0.10160500  1
