# Generated by REPEAT Assigner based on pymatgen
data_DB0-m9_o6_o23_f0_sra.sym.32
_audit_creation_date              2022-05-24
_audit_creation_method            REPEAT_Assigner
_cell_length_a                    6.703392
_cell_length_b                    20.403783
_cell_length_c                    23.859417
_cell_angle_alpha                 90.170938
_cell_angle_beta                  89.977688
_cell_angle_gamma                 90.012120
_cell_volume                      3263.346599
_symmetry_space_group_name_H-M    P1
_symmetry_Int_Tables_number       1
loop_
    _symmetry_equiv_pos_site_id
    _symmetry_equiv_pos_as_xyz
    1  x,y,z
loop_
    _atom_site_type_symbol
    _atom_site_label
    _atom_site_fract_x
    _atom_site_fract_y
    _atom_site_fract_z
    _atom_type_partial_charge
    O  O1   0.478499  0.448210  0.441771  -0.556499
    O  O2   0.819098  0.433961  0.560195  -0.444804
    O  O3   0.978353  0.556665  0.564224  -0.550211
    C  C1   0.644654  0.423774  0.582100  0.683488
    O  O4   0.819325  0.434178  0.445266  -0.535982
    O  O5   0.978553  0.556836  0.442201  -0.534748
    C  C2   0.645056  0.424171  0.423133  0.767786
    O  O6   0.478257  0.447960  0.563780  -0.555484
    O  O7   0.652986  0.543623  0.503162  -0.436204
    V  V1   0.926883  0.494033  0.502977  1.255974
    O  O8   0.319446  0.570858  0.445793  -0.561052
    C  C3   0.145198  0.580809  0.423787  0.784973
    O  O9   0.319185  0.570679  0.560735  -0.554543
    C  C4   0.144773  0.580854  0.582803  0.745892
    V  V2   0.426897  0.510811  0.503037  1.398375
    O  O10  0.152766  0.461221  0.502853  -0.416224
    C  C5   0.955419  0.695142  0.753083  -0.036153
    C  C6   0.313769  0.718401  0.740687  -0.216100
    C  C7   0.293202  0.760131  0.792957  0.086460
    H  H1   0.917523  0.730154  0.837903  0.157099
    H  H2   0.004723  0.650335  0.775315  0.048735
    H  H3   0.425331  0.740694  0.712187  0.076738
    H  H4   0.362682  0.668389  0.752472  0.074856
    H  H5   0.419868  0.795000  0.795360  -0.014644
    C  C8   0.088107  0.884550  0.874341  -0.055589
    C  C9   0.114014  0.715099  0.711250  0.512390
    C  C10  0.925589  0.750369  0.794879  -0.359921
    C  C11  0.098666  0.797771  0.790304  0.814547
    C  C12  0.086433  0.832707  0.734516  -0.270308
    C  C13  0.063546  0.782192  0.688247  -0.003189
    C  C14  0.091129  0.845539  0.836252  -0.477573
    C  C15  0.123588  0.667174  0.665452  -0.347556
    C  C16  0.132781  0.627740  0.627763  -0.129614
    H  H6   0.907286  0.782076  0.672991  0.007497
    H  H7   0.165627  0.794347  0.653194  0.014828
    H  H8   0.956239  0.866227  0.734236  0.077664
    H  H9   0.813010  0.685230  0.730987  -0.007291
    H  H10  0.784954  0.776624  0.785234  0.049524
    H  H11  0.225230  0.861213  0.727809  0.036442
    H  H12  0.398247  0.817616  0.223771  0.158454
    C  C17  0.279829  0.745324  0.279110  -0.075473
    H  H13  0.415193  0.741636  0.303506  0.118877
    C  C18  0.116221  0.707666  0.292790  0.231204
    C  C19  0.943525  0.712229  0.261709  -0.243817
    H  H14  0.815446  0.682618  0.272468  0.166978
    C  C20  0.934160  0.754705  0.217005  0.053699
    C  C21  0.097580  0.792467  0.203387  0.214642
    C  C22  0.270457  0.787803  0.234389  -0.222183
    C  C23  0.125898  0.663461  0.339250  -0.056981
    C  C24  0.086120  0.837605  0.157619  -0.051371
    C  C25  0.074674  0.876101  0.119629  -0.242975
    C  C26  0.134306  0.626003  0.378052  -0.242840
    H  H15  0.309191  0.310301  0.727432  0.154351
    C  C27  0.428785  0.234503  0.779005  -0.113890
    H  H16  0.293125  0.228620  0.802980  0.138176
    C  C28  0.593424  0.196539  0.790947  0.260280
    C  C29  0.766828  0.204219  0.760596  -0.221264
    H  H17  0.896022  0.174598  0.770159  0.155714
    C  C30  0.775930  0.250025  0.718366  -0.014557
    C  C31  0.611663  0.288159  0.706535  0.264516
    C  C32  0.437882  0.280329  0.736728  -0.196401
    C  C33  0.586597  0.150062  0.835830  -0.097611
    C  C34  0.622288  0.336165  0.662903  -0.151337
    C  C35  0.632235  0.376327  0.626140  -0.115956
    C  C36  0.584333  0.111519  0.873934  -0.182586
    H  H18  0.298266  0.301386  0.285256  0.139006
    C  C37  0.423811  0.236365  0.224438  -0.206968
    H  H19  0.281068  0.223939  0.206212  0.160751
    C  C38  0.596062  0.208620  0.203449  0.262352
    C  C39  0.778034  0.224352  0.226869  -0.170234
    H  H20  0.913108  0.202517  0.210564  0.133924
    C  C40  0.787647  0.267747  0.271256  -0.215922
    H  H21  0.930308  0.279986  0.289625  0.160987
    C  C41  0.615311  0.295396  0.292304  0.299342
    C  C42  0.433421  0.279746  0.268813  -0.177475
    C  C43  0.585216  0.162633  0.157841  -0.047448
    C  C44  0.625241  0.340493  0.338573  -0.119729
    C  C45  0.633880  0.378516  0.377289  -0.199285
    C  C46  0.574274  0.123549  0.119953  -0.289273
    O  O11  0.760876  0.036767  0.928347  -0.533979
    O  O12  0.392500  0.041447  0.073494  -0.600668
    O  O13  0.211831  0.927498  0.040152  -0.468441
    C  C47  0.558486  0.076257  0.075450  0.846392
    O  O14  0.447763  0.076212  0.959252  -0.490125
    O  O15  0.261675  0.961459  0.928269  -0.545506
    C  C48  0.586294  0.066409  0.919861  0.677590
    O  O16  0.711586  0.071528  0.040260  -0.485145
    O  O17  0.578518  0.955549  0.999595  -0.495280
    V  V3   0.303604  0.006636  0.000351  1.332667
    O  O18  0.948076  0.921931  0.959138  -0.480002
    C  C49  0.088719  0.930555  0.920084  0.669349
    O  O19  0.892957  0.957706  0.073402  -0.565182
    C  C50  0.058418  0.922787  0.075131  0.838518
    V  V4   0.803730  0.991775  0.000230  1.336485
    O  O20  0.078473  0.043093  0.999389  -0.508830
    N  N1   0.755746  0.759809  0.185097  0.512566
    O  O21  0.601497  0.724306  0.198039  -0.348758
    O  O22  0.746899  0.799972  0.142977  -0.300483
    N  N2   0.955035  0.258200  0.687203  0.572678
    O  O23  0.110111  0.222341  0.698473  -0.379664
    O  O24  0.963756  0.301576  0.647478  -0.328695
    N  N3   0.294113  0.718421  0.842071  0.552183
    O  O25  0.430009  0.726338  0.880356  -0.374566
    O  O26  0.163581  0.671648  0.846892  -0.380357
