# Generated by REPEAT Assigner based on pymatgen
data_DB0-m3_o153_o22_f0_fsc.sym.21
_audit_creation_date              2022-05-24
_audit_creation_method            REPEAT_Assigner
_cell_length_a                    8.526417
_cell_length_b                    9.114344
_cell_length_c                    13.024588
_cell_angle_alpha                 90.593404
_cell_angle_beta                  86.459004
_cell_angle_gamma                 93.278166
_cell_volume                      1008.566741
_symmetry_space_group_name_H-M    P1
_symmetry_Int_Tables_number       1
loop_
    _symmetry_equiv_pos_site_id
    _symmetry_equiv_pos_as_xyz
    1  x,y,z
loop_
    _atom_site_type_symbol
    _atom_site_label
    _atom_site_fract_x
    _atom_site_fract_y
    _atom_site_fract_z
    _atom_type_partial_charge
    C   C1   0.977021  0.985639  0.133310  0.158818
    C   C2   0.108345  0.976068  0.190279  0.046789
    C   C3   0.250152  0.940258  0.142357  -0.074856
    C   C4   0.265152  0.922749  0.036924  -0.223336
    C   C5   0.143437  0.958834  0.977881  0.236817
    C   C6   0.997023  0.983972  0.025757  -0.043102
    C   C7   0.168582  0.973712  0.871643  -0.363357
    C   C8   0.045277  0.999147  0.811837  0.128835
    C   C9   0.897371  0.014560  0.859369  0.185364
    C   C10  0.875182  0.013007  0.964766  -0.196128
    C   C11  0.064717  0.006112  0.705015  -0.105728
    C   C12  0.933377  0.010791  0.650133  -0.165622
    C   C13  0.787261  0.027061  0.697030  0.085655
    C   C14  0.769168  0.033097  0.802099  -0.213952
    C   C15  0.829678  0.996909  0.185896  -0.197381
    C   C16  0.819395  0.022695  0.290447  -0.045264
    C   C17  0.954746  0.040108  0.341123  -0.121911
    C   C18  0.096178  0.003392  0.295167  -0.125296
    H   H1   0.348492  0.920604  0.187733  0.135044
    H   H2   0.946024  0.999684  0.568612  0.080955
    H   H3   0.653232  0.043665  0.839016  0.091190
    H   H4   0.760634  0.038355  0.996340  0.121970
    H   H5   0.284501  0.969021  0.834212  0.145569
    H   H6   0.720584  0.985199  0.149156  0.158710
    H   H7   0.947832  0.073517  0.419923  0.123783
    O   O1   0.602923  0.898625  0.597143  -0.725898
    O   O2   0.602472  0.150429  0.604381  -0.720101
    C   C19  0.653107  0.025506  0.633390  0.849255
    O   O3   0.621192  0.145619  0.390483  -0.695801
    O   O4   0.607447  0.892337  0.384337  -0.679405
    C   C20  0.669191  0.020662  0.352482  0.799165
    O   O5   0.281393  0.132037  0.395874  -0.621693
    O   O6   0.278845  0.877792  0.390492  -0.741183
    C   C21  0.229881  0.004124  0.360357  0.851563
    O   O7   0.263586  0.883912  0.604989  -0.673296
    O   O8   0.274566  0.137328  0.609254  -0.730126
    C   C22  0.215642  0.008832  0.643360  0.844532
    Zn  Zn1  0.445771  0.179105  0.497771  0.929928
    Zn  Zn2  0.437349  0.850478  0.496451  0.960488
    C   C23  0.497192  0.435418  0.394428  0.302794
    H   H8   0.614719  0.401091  0.369082  0.008390
    C   C24  0.507819  0.603128  0.398495  -0.311627
    H   H9   0.634553  0.637373  0.391042  0.101254
    H   H10  0.450520  0.648981  0.332754  0.145836
    H   H11  0.199670  0.359337  0.477801  0.037814
    H   H12  0.216235  0.605211  0.436826  0.098712
    C   C25  0.288391  0.420315  0.522580  0.068426
    C   C26  0.546021  0.441499  0.573790  0.187725
    N   N1   0.447094  0.372921  0.495706  0.096762
    H   H13  0.503890  0.398236  0.650419  0.044245
    N   N2   0.436972  0.656896  0.495664  0.425384
    C   C27  0.279529  0.584933  0.506267  -0.201323
    C   C28  0.532656  0.606533  0.577106  -0.258927
    H   H14  0.654199  0.654547  0.564453  0.111673
    H   H15  0.255248  0.397907  0.604512  0.049922
    H   H16  0.206757  0.631394  0.569987  0.070926
    N   N3   0.712798  0.410709  0.558792  0.514125
    O   O9   0.783939  0.372422  0.639046  -0.332365
    O   O10  0.799430  0.464346  0.480881  -0.326658
    N   N4   0.473806  0.651546  0.679684  0.638840
    O   O11  0.574247  0.709158  0.741894  -0.324474
    O   O12  0.337956  0.600007  0.718538  -0.306612
    N   N5   0.401957  0.859190  0.990853  0.759830
    O   O13  0.387237  0.770136  0.912971  -0.385993
    O   O14  0.526003  0.853573  0.043403  -0.459994
    N   N6   0.395477  0.380383  0.314989  0.517550
    O   O15  0.452070  0.290842  0.245656  -0.379388
    O   O16  0.262299  0.437567  0.301121  -0.363839
