# generated using pymatgen
data_ZnH7C13(NO2)2
_symmetry_space_group_name_H-M   'P 1'
_cell_length_a   15.78465000
_cell_length_b   8.57058500
_cell_length_c   10.98885900
_cell_angle_alpha   90.00000000
_cell_angle_beta   93.33455200
_cell_angle_gamma   90.00000000
_symmetry_Int_Tables_number   1
_chemical_formula_structural   ZnH7C13(NO2)2
_chemical_formula_sum   'Zn2 H14 C26 N4 O8'
_cell_volume   1484.09638085
_cell_formula_units_Z   2
loop_
 _symmetry_equiv_pos_site_id
 _symmetry_equiv_pos_as_xyz
  1  'x, y, z'
loop_
 _atom_site_type_symbol
 _atom_site_label
 _atom_site_symmetry_multiplicity
 _atom_site_fract_x
 _atom_site_fract_y
 _atom_site_fract_z
 _atom_site_occupancy
  Zn  Zn1  1  0.90688300  0.00000000  0.97793500  1
  Zn  Zn2  1  0.09311700  0.00000000  0.02206500  1
  H  H1  1  0.00627600  0.24826600  0.40743000  1
  H  H2  1  0.99372400  0.75173400  0.59257000  1
  H  H3  1  0.99372400  0.24826600  0.59257000  1
  H  H4  1  0.00627600  0.75173400  0.40743000  1
  H  H5  1  0.96262700  0.50000000  0.08177600  1
  H  H6  1  0.03737300  0.50000000  0.91822400  1
  H  H7  1  0.22405100  0.00000000  0.84672700  1
  H  H8  1  0.77594900  0.00000000  0.15327300  1
  H  H9  1  0.37712000  0.00000000  0.84737600  1
  H  H10  1  0.62288000  0.00000000  0.15262400  1
  H  H11  1  0.61200200  0.00000000  0.76207800  1
  H  H12  1  0.38799900  0.00000000  0.23792200  1
  H  H13  1  0.76806500  0.00000000  0.77045100  1
  H  H14  1  0.23193600  0.00000000  0.22954800  1
  C  C1  1  0.99017800  0.21996300  0.16753400  1
  C  C2  1  0.00982200  0.78003700  0.83246500  1
  C  C3  1  0.00982200  0.21996300  0.83246500  1
  C  C4  1  0.99017800  0.78003700  0.16753400  1
  C  C5  1  0.98449200  0.36175400  0.24024300  1
  C  C6  1  0.01550800  0.63824600  0.75975600  1
  C  C7  1  0.01550800  0.36175400  0.75975600  1
  C  C8  1  0.98449200  0.63824600  0.24024300  1
  C  C9  1  0.99671600  0.36056000  0.36556800  1
  C  C10  1  0.00328500  0.63944000  0.63443200  1
  C  C11  1  0.00328500  0.36056000  0.63443200  1
  C  C12  1  0.99671600  0.63944000  0.36556800  1
  C  C13  1  0.99716800  0.50000000  0.43172500  1
  C  C14  1  0.00283200  0.50000000  0.56827500  1
  C  C15  1  0.97306900  0.50000000  0.17942700  1
  C  C16  1  0.02693100  0.50000000  0.82057300  1
  C  C17  1  0.73930800  0.00000000  0.06704900  1
  C  C18  1  0.26069200  0.00000000  0.93295000  1
  C  C19  1  0.65193300  0.00000000  0.06594800  1
  C  C20  1  0.34806700  0.00000000  0.93405200  1
  C  C21  1  0.60496800  0.00000000  0.95559200  1
  C  C22  1  0.39503200  0.00000000  0.04440700  1
  C  C23  1  0.64743600  0.00000000  0.84927300  1
  C  C24  1  0.35256400  0.00000000  0.15072700  1
  C  C25  1  0.73509800  0.00000000  0.85396700  1
  C  C26  1  0.26490200  0.00000000  0.14603300  1
  N  N1  1  0.77951800  0.00000000  0.96229100  1
  N  N2  1  0.22048300  0.00000000  0.03770800  1
  N  N3  1  0.51509500  0.00000000  0.94890600  1
  N  N4  1  0.48490500  0.00000000  0.05109400  1
  O  O1  1  0.06518600  0.16556500  0.14364700  1
  O  O2  1  0.93481400  0.83443500  0.85635300  1
  O  O3  1  0.93481400  0.16556500  0.85635300  1
  O  O4  1  0.06518600  0.83443500  0.14364700  1
  O  O5  1  0.92201900  0.16783100  0.10658500  1
  O  O6  1  0.07798200  0.83216900  0.89341400  1
  O  O7  1  0.07798200  0.16783100  0.89341400  1
  O  O8  1  0.92201900  0.83216900  0.10658500  1
