# generated using pymatgen
data_CuH17C20NO8
_symmetry_space_group_name_H-M   'P 1'
_cell_length_a   18.02761000
_cell_length_b   18.79173600
_cell_length_c   11.75844000
_cell_angle_alpha   90.00000000
_cell_angle_beta   76.82559300
_cell_angle_gamma   90.00000000
_symmetry_Int_Tables_number   1
_chemical_formula_structural   CuH17C20NO8
_chemical_formula_sum   'Cu4 H68 C80 N4 O32'
_cell_volume   3878.56767013
_cell_formula_units_Z   4
loop_
 _symmetry_equiv_pos_site_id
 _symmetry_equiv_pos_as_xyz
  1  'x, y, z'
loop_
 _atom_site_type_symbol
 _atom_site_label
 _atom_site_symmetry_multiplicity
 _atom_site_fract_x
 _atom_site_fract_y
 _atom_site_fract_z
 _atom_site_occupancy
  Cu  Cu1  1  0.50741500  0.99934300  0.38367300  1
  Cu  Cu2  1  0.49268000  0.99950500  0.61593900  1
  Cu  Cu3  1  0.00753200  0.49968100  0.38382000  1
  Cu  Cu4  1  0.99240000  0.49949500  0.61615100  1
  H  H1  1  0.63867400  0.17306600  0.64736400  1
  H  H2  1  0.35645300  0.83175500  0.35160000  1
  H  H3  1  0.36162600  0.17320200  0.35105000  1
  H  H4  1  0.64188500  0.82999400  0.64944900  1
  H  H5  1  0.13822100  0.67298900  0.64697800  1
  H  H6  1  0.85742000  0.33120100  0.35192400  1
  H  H7  1  0.86208900  0.67389300  0.35198700  1
  H  H8  1  0.14324400  0.33121900  0.64924900  1
  H  H9  1  0.68662700  0.15007000  0.28187700  1
  H  H10  1  0.30873500  0.85402800  0.71744100  1
  H  H11  1  0.31213400  0.14898700  0.71638000  1
  H  H12  1  0.69083600  0.85362700  0.28409400  1
  H  H13  1  0.18784900  0.64960700  0.28135600  1
  H  H14  1  0.80829600  0.35405900  0.71770700  1
  H  H15  1  0.81368600  0.65046100  0.71739800  1
  H  H16  1  0.19137300  0.35403900  0.28360300  1
  H  H17  1  0.34622400  0.98635800  0.03317700  1
  H  H18  1  0.65362200  0.98863400  0.96531600  1
  H  H19  1  0.84600500  0.48893100  0.03354100  1
  H  H20  1  0.15387800  0.48760700  0.96557600  1
  H  H21  1  0.69481600  0.94736900  0.12972200  1
  H  H22  1  0.66463500  0.99731000  0.25784500  1
  H  H23  1  0.75913000  0.03724100  0.08531900  1
  H  H24  1  0.30467000  0.94751900  0.86768700  1
  H  H25  1  0.33515100  0.99893600  0.74174800  1
  H  H26  1  0.24044200  0.03619700  0.91589700  1
  H  H27  1  0.19392700  0.44783000  0.13313000  1
  H  H28  1  0.16534600  0.50083900  0.25879500  1
  H  H29  1  0.25955100  0.53658500  0.08590400  1
  H  H30  1  0.80290300  0.44910300  0.86766600  1
  H  H31  1  0.83410700  0.50037800  0.74142100  1
  H  H32  1  0.74078400  0.53804200  0.91523600  1
  H  H33  1  0.36768200  0.99806500  0.32386900  1
  H  H34  1  0.34200200  0.95384600  0.20984600  1
  H  H35  1  0.38240900  0.09770200  0.18522300  1
  H  H36  1  0.63121200  0.99925700  0.67536500  1
  H  H37  1  0.65714000  0.95359800  0.78707600  1
  H  H38  1  0.61784400  0.09794600  0.81537200  1
  H  H39  1  0.86705700  0.49813600  0.32486600  1
  H  H40  1  0.84340100  0.45429400  0.20962800  1
  H  H41  1  0.88097600  0.59941700  0.18975200  1
  H  H42  1  0.13200100  0.49819700  0.67502500  1
  H  H43  1  0.15591400  0.45310200  0.78854400  1
  H  H44  1  0.11993800  0.59925300  0.81093500  1
  H  H45  1  0.70618500  0.20147000  0.79207900  1
  H  H46  1  0.63352100  0.26590500  0.77797200  1
  H  H47  1  0.72715200  0.26511400  0.91614200  1
  H  H48  1  0.35828500  0.74034400  0.21820900  1
  H  H49  1  0.28674900  0.80795100  0.21214200  1
  H  H50  1  0.32204800  0.69412400  0.08882200  1
  H  H51  1  0.29457200  0.20084200  0.20740600  1
  H  H52  1  0.36731100  0.26443100  0.21973500  1
  H  H53  1  0.27691700  0.26542700  0.08047000  1
  H  H54  1  0.64108700  0.73976000  0.78295300  1
  H  H55  1  0.71187000  0.80777800  0.78904500  1
  H  H56  1  0.67879500  0.69348600  0.91176400  1
  H  H57  1  0.20566500  0.70140900  0.79274000  1
  H  H58  1  0.13304100  0.76592400  0.77944000  1
  H  H59  1  0.22492600  0.76448100  0.91783700  1
  H  H60  1  0.85878200  0.24004100  0.21674000  1
  H  H61  1  0.78759600  0.30757600  0.21114500  1
  H  H62  1  0.82101500  0.19390300  0.08731400  1
  H  H63  1  0.79484900  0.70111100  0.20660900  1
  H  H64  1  0.86688800  0.76562800  0.22069100  1
  H  H65  1  0.77490700  0.76593300  0.08097000  1
  H  H66  1  0.14090400  0.24076000  0.78462700  1
  H  H67  1  0.21173300  0.30764700  0.79071000  1
  H  H68  1  0.17845300  0.19348800  0.91301600  1
  C  C1  1  0.39798000  0.09764600  0.52119800  1
  C  C2  1  0.60291400  0.90219000  0.47866100  1
  C  C3  1  0.60193100  0.09784100  0.47813300  1
  C  C4  1  0.39722900  0.90226600  0.52151300  1
  C  C5  1  0.89815300  0.59780300  0.52131900  1
  C  C6  1  0.10266600  0.40203600  0.47864000  1
  C  C7  1  0.10219400  0.59752500  0.47842700  1
  C  C8  1  0.89709300  0.40237500  0.52180500  1
  C  C9  1  0.41133100  0.99629500  0.86540400  1
  C  C10  1  0.58819900  0.99660200  0.13386800  1
  C  C11  1  0.91111100  0.49674500  0.86530900  1
  C  C12  1  0.08849400  0.49738700  0.13451200  1
  C  C13  1  0.40373700  0.99268400  0.98415700  1
  C  C14  1  0.59595000  0.99367600  0.01489900  1
  C  C15  1  0.90358000  0.49388200  0.98414800  1
  C  C16  1  0.09637600  0.49372200  0.01546100  1
  C  C17  1  0.54390000  0.99771600  0.84036200  1
  C  C18  1  0.45553700  0.99769400  0.15924400  1
  C  C19  1  0.04402800  0.49793700  0.84061800  1
  C  C20  1  0.95565800  0.49842100  0.15943300  1
  C  C21  1  0.65884800  0.15535000  0.46603500  1
  C  C22  1  0.33799200  0.84704200  0.53344400  1
  C  C23  1  0.34081400  0.15494900  0.53253600  1
  C  C24  1  0.66194900  0.84692800  0.46760300  1
  C  C25  1  0.15922200  0.65493600  0.46625700  1
  C  C26  1  0.83816500  0.34707000  0.53322000  1
  C  C27  1  0.84110800  0.65520300  0.53315100  1
  C  C28  1  0.16187700  0.34690900  0.46738000  1
  C  C29  1  0.24004800  0.77642600  0.65418600  1
  C  C30  1  0.75389700  0.22899000  0.34519400  1
  C  C31  1  0.75980900  0.77624000  0.34620400  1
  C  C32  1  0.24595900  0.22897600  0.65486600  1
  C  C33  1  0.74033600  0.27635200  0.65387400  1
  C  C34  1  0.25360200  0.72909100  0.34532500  1
  C  C35  1  0.26011100  0.27633400  0.34598600  1
  C  C36  1  0.74618000  0.72897500  0.65457300  1
  C  C37  1  0.29645200  0.82783200  0.64224300  1
  C  C38  1  0.69891700  0.17614300  0.35715600  1
  C  C39  1  0.70345900  0.82764800  0.35888400  1
  C  C40  1  0.30048200  0.17564200  0.64161400  1
  C  C41  1  0.79656000  0.32782200  0.64213700  1
  C  C42  1  0.19933100  0.67573900  0.35698700  1
  C  C43  1  0.20369900  0.32780200  0.35852700  1
  C  C44  1  0.80112700  0.67611700  0.64222600  1
  C  C45  1  0.32321700  0.81493300  0.43526600  1
  C  C46  1  0.67206600  0.18918400  0.56384400  1
  C  C47  1  0.67609500  0.81431700  0.56553500  1
  C  C48  1  0.32791000  0.18892800  0.43482500  1
  C  C49  1  0.82384100  0.31460100  0.43537600  1
  C  C50  1  0.17215500  0.68898100  0.56376800  1
  C  C51  1  0.17650800  0.31473700  0.56537400  1
  C  C52  1  0.82811000  0.68927300  0.43565500  1
  C  C53  1  0.26797800  0.76212500  0.44476600  1
  C  C54  1  0.72671900  0.24248900  0.55452900  1
  C  C55  1  0.73170000  0.76190900  0.55548100  1
  C  C56  1  0.27339300  0.24235200  0.44506700  1
  C  C57  1  0.76842800  0.26195900  0.44463500  1
  C  C58  1  0.22653800  0.74248100  0.55473100  1
  C  C59  1  0.23175700  0.26200300  0.55550600  1
  C  C60  1  0.77341400  0.74246900  0.44535800  1
  C  C61  1  0.53485900  0.99618200  0.96311400  1
  C  C62  1  0.46471700  0.99581000  0.03639400  1
  C  C63  1  0.03509000  0.49592200  0.96345200  1
  C  C64  1  0.96478900  0.49644700  0.03658100  1
  C  C65  1  0.66436400  0.99653100  0.16578100  1
  C  C66  1  0.33518100  0.99702500  0.83367000  1
  C  C67  1  0.16454400  0.49793700  0.16683000  1
  C  C68  1  0.83466900  0.49819200  0.83344100  1
  C  C69  1  0.37447800  0.00050000  0.23037400  1
  C  C70  1  0.62484100  0.00082200  0.76875000  1
  C  C71  1  0.87486600  0.50113900  0.23101900  1
  C  C72  1  0.12481200  0.50061800  0.76874600  1
  C  C73  1  0.69492700  0.25765300  0.77368300  1
  C  C74  1  0.29682900  0.75071200  0.22573300  1
  C  C75  1  0.30543400  0.25720200  0.22578600  1
  C  C76  1  0.70275500  0.75030400  0.77464400  1
  C  C77  1  0.19462600  0.75761700  0.77414100  1
  C  C78  1  0.79715500  0.25028700  0.22518000  1
  C  C79  1  0.80521100  0.75752000  0.22575100  1
  C  C80  1  0.20267700  0.25034300  0.77572800  1
  N  N1  1  0.51780300  0.99932400  0.20948600  1
  N  N2  1  0.48186500  0.99960400  0.79017100  1
  N  N3  1  0.01810900  0.49958700  0.20960800  1
  N  N4  1  0.98162900  0.49920800  0.79039200  1
  O  O1  1  0.43060000  0.07482400  0.41641900  1
  O  O2  1  0.56972600  0.92448000  0.58314500  1
  O  O3  1  0.56924700  0.07512300  0.58300800  1
  O  O4  1  0.43041500  0.92427300  0.41699000  1
  O  O5  1  0.93078700  0.57497600  0.41664600  1
  O  O6  1  0.06880000  0.42394400  0.58316200  1
  O  O7  1  0.06935200  0.57453400  0.58324700  1
  O  O8  1  0.93088500  0.42458000  0.41712700  1
  O  O9  1  0.41446200  0.07134500  0.61566000  1
  O  O10  1  0.58534600  0.92747700  0.38435100  1
  O  O11  1  0.58569400  0.07114800  0.38346600  1
  O  O12  1  0.41451200  0.92774200  0.61582900  1
  O  O13  1  0.91435200  0.57155000  0.61600400  1
  O  O14  1  0.08599500  0.42804600  0.38406600  1
  O  O15  1  0.08569900  0.57178100  0.38388800  1
  O  O16  1  0.91376300  0.42791100  0.61620000  1
  O  O17  1  0.70643900  0.05505900  0.11395200  1
  O  O18  1  0.29283800  0.05486800  0.88773700  1
  O  O19  1  0.20707500  0.55526900  0.11132200  1
  O  O20  1  0.79324100  0.55647000  0.88759900  1
  O  O21  1  0.33986900  0.06338100  0.20643400  1
  O  O22  1  0.65999100  0.06323900  0.79371200  1
  O  O23  1  0.83962600  0.56364700  0.20689500  1
  O  O24  1  0.16064900  0.56277400  0.79358700  1
  O  O25  1  0.71504500  0.29971100  0.85949300  1
  O  O26  1  0.27387900  0.71216700  0.13858700  1
  O  O27  1  0.28486800  0.29952000  0.14069500  1
  O  O28  1  0.72653900  0.71182300  0.86118400  1
  O  O29  1  0.21525400  0.79934200  0.85975600  1
  O  O30  1  0.77332000  0.21172500  0.13873800  1
  O  O31  1  0.78473900  0.79984500  0.14036200  1
  O  O32  1  0.22626600  0.21146200  0.86211000  1
