# generated using pymatgen
data_CuH11C15NO4
_symmetry_space_group_name_H-M   'P 1'
_cell_length_a   8.54143800
_cell_length_b   10.83152100
_cell_length_c   14.18657600
_cell_angle_alpha   90.00000000
_cell_angle_beta   90.00000000
_cell_angle_gamma   90.00000000
_symmetry_Int_Tables_number   1
_chemical_formula_structural   CuH11C15NO4
_chemical_formula_sum   'Cu2 H22 C30 N2 O8'
_cell_volume   1312.49611890
_cell_formula_units_Z   2
loop_
 _symmetry_equiv_pos_site_id
 _symmetry_equiv_pos_as_xyz
  1  'x, y, z'
loop_
 _atom_site_type_symbol
 _atom_site_label
 _atom_site_symmetry_multiplicity
 _atom_site_fract_x
 _atom_site_fract_y
 _atom_site_fract_z
 _atom_site_occupancy
  Cu  Cu1  1  0.99766700  0.01447300  0.09252800  1
  Cu  Cu2  1  0.99766700  0.98552700  0.90747200  1
  H  H1  1  0.18992000  0.87708800  0.40443000  1
  H  H2  1  0.22158200  0.89747400  0.56280400  1
  H  H3  1  0.18992000  0.12291200  0.59557000  1
  H  H4  1  0.22158200  0.10252600  0.43719600  1
  H  H5  1  0.99616700  0.18800100  0.58258200  1
  H  H6  1  0.05505000  0.20490200  0.42685100  1
  H  H7  1  0.99616700  0.81199900  0.41741800  1
  H  H8  1  0.05505000  0.79509800  0.57314900  1
  H  H9  1  0.78853400  0.88928500  0.56173700  1
  H  H10  1  0.76112800  0.94956300  0.40915100  1
  H  H11  1  0.78853400  0.11071500  0.43826300  1
  H  H12  1  0.76112800  0.05043700  0.59084900  1
  H  H13  1  0.10992700  0.61450900  0.99963400  1
  H  H14  1  0.21048600  0.55002900  0.89908100  1
  H  H15  1  0.10992700  0.38549100  0.00036600  1
  H  H16  1  0.21048600  0.44997100  0.10091900  1
  H  H17  1  0.86380400  0.59736200  0.06516100  1
  H  H18  1  0.85344600  0.60605600  0.93840600  1
  H  H19  1  0.86380400  0.40263800  0.93483900  1
  H  H20  1  0.85344600  0.39394400  0.06159400  1
  H  H21  1  0.49515500  0.91598600  0.04539200  1
  H  H22  1  0.49515500  0.08401400  0.95460800  1
  C  C1  1  0.77841600  0.83336700  0.01476100  1
  C  C2  1  0.77841600  0.16663300  0.98523900  1
  C  C3  1  0.21535600  0.16703200  0.98664300  1
  C  C4  1  0.21535600  0.83296800  0.01335700  1
  C  C5  1  0.09598900  0.88521600  0.54537000  1
  C  C6  1  0.07459100  0.88837800  0.43930600  1
  C  C7  1  0.09598900  0.11478400  0.45463000  1
  C  C8  1  0.07459100  0.11162200  0.56069400  1
  C  C9  1  0.00205900  0.98918300  0.58888300  1
  C  C10  1  0.00205900  0.01081700  0.41111700  1
  C  C11  1  0.83567800  0.01618600  0.44802500  1
  C  C12  1  0.83567800  0.98381400  0.55197500  1
  C  C13  1  0.00168600  0.02185400  0.30801200  1
  C  C14  1  0.00168600  0.97814600  0.69198800  1
  C  C15  1  0.49609600  0.81777600  0.03363800  1
  C  C16  1  0.49609600  0.18222400  0.96636200  1
  C  C17  1  0.35706300  0.75688100  0.01959600  1
  C  C18  1  0.35706300  0.24311900  0.98040400  1
  C  C19  1  0.35932800  0.63072300  0.00229300  1
  C  C20  1  0.35932800  0.36927700  0.99770700  1
  C  C21  1  0.21423900  0.56268600  0.97662300  1
  C  C22  1  0.21423900  0.43731400  0.02337700  1
  C  C23  1  0.63645000  0.75798400  0.02177300  1
  C  C24  1  0.63645000  0.24201600  0.97822700  1
  C  C25  1  0.63935300  0.63136800  0.01005900  1
  C  C26  1  0.63935300  0.36863200  0.98994100  1
  C  C27  1  0.50007800  0.56704000  0.00459800  1
  C  C28  1  0.50007800  0.43296000  0.99540200  1
  C  C29  1  0.79451200  0.57022900  0.00242400  1
  C  C30  1  0.79451200  0.42977100  0.99757600  1
  N  N1  1  0.00088900  0.02702600  0.22643900  1
  N  N2  1  0.00088900  0.97297400  0.77356100  1
  O  O1  1  0.83141400  0.88965400  0.09010900  1
  O  O2  1  0.83379400  0.86191700  0.93107800  1
  O  O3  1  0.83141400  0.11034600  0.90989100  1
  O  O4  1  0.83379400  0.13808300  0.06892200  1
  O  O5  1  0.15823500  0.14005400  0.07019500  1
  O  O6  1  0.16533900  0.10932200  0.91081700  1
  O  O7  1  0.15823500  0.85994600  0.92980500  1
  O  O8  1  0.16533900  0.89067800  0.08918300  1
