# generated using pymatgen
data_Zn3H24C41(SO3)4
_symmetry_space_group_name_H-M   'P 1'
_cell_length_a   27.84987800
_cell_length_b   27.87226700
_cell_length_c   27.90087800
_cell_angle_alpha   109.41982500
_cell_angle_beta   109.66888900
_cell_angle_gamma   109.25636800
_symmetry_Int_Tables_number   1
_chemical_formula_structural   Zn3H24C41(SO3)4
_chemical_formula_sum   'Zn6 H48 C82 S8 O24'
_cell_volume   16686.07974516
_cell_formula_units_Z   2
loop_
 _symmetry_equiv_pos_site_id
 _symmetry_equiv_pos_as_xyz
  1  'x, y, z'
loop_
 _atom_site_type_symbol
 _atom_site_label
 _atom_site_symmetry_multiplicity
 _atom_site_fract_x
 _atom_site_fract_y
 _atom_site_fract_z
 _atom_site_occupancy
  Zn  Zn1  1  0.50074400  0.45326400  0.45692100  1
  Zn  Zn2  1  0.50076700  0.54726500  0.55114900  1
  Zn  Zn3  1  0.95060100  0.45336100  0.00013000  1
  Zn  Zn4  1  0.04600100  0.54742500  0.00159700  1
  Zn  Zn5  1  0.04615400  0.99947500  0.54886300  1
  Zn  Zn6  1  0.95195000  0.00048500  0.45517300  1
  H  H1  1  0.65689000  0.41305300  0.69039800  1
  H  H2  1  0.71851700  0.57032900  0.78167000  1
  H  H3  1  0.67041500  0.49749900  0.76412700  1
  H  H4  1  0.74608100  0.50678100  0.83734900  1
  H  H5  1  0.79433600  0.57515000  0.84982500  1
  H  H6  1  0.77029400  0.52580600  0.67821500  1
  H  H7  1  0.78048900  0.58497000  0.73959000  1
  H  H8  1  0.76685800  0.41577900  0.71802600  1
  H  H9  1  0.24089200  0.33429900  0.50194100  1
  H  H10  1  0.16423600  0.25770600  0.50123700  1
  H  H11  1  0.26026300  0.16625800  0.50577700  1
  H  H12  1  0.33692400  0.24285600  0.50648500  1
  H  H13  1  0.31348100  0.58747100  0.35158200  1
  H  H14  1  0.23669300  0.58711300  0.27479900  1
  H  H15  1  0.18280800  0.41223000  0.15508000  1
  H  H16  1  0.75821900  0.75881000  0.59570900  1
  H  H17  1  0.83384100  0.83522200  0.59520200  1
  H  H18  1  0.73957400  0.74122600  0.40811600  1
  H  H19  1  0.66395000  0.66481400  0.40862400  1
  H  H20  1  0.08490800  0.23441800  0.77748300  1
  H  H21  1  0.91578600  0.18999700  0.65199900  1
  H  H22  1  0.91555200  0.26669000  0.72778200  1
  H  H23  1  0.99657900  0.83454300  0.24157200  1
  H  H24  1  0.99771700  0.66499400  0.25911200  1
  H  H25  1  0.72131100  0.31908500  0.69806800  1
  H  H26  1  0.72794900  0.31081200  0.76087800  1
  H  H27  1  0.78993200  0.36710900  0.76848300  1
  H  H28  1  0.61163000  0.30492300  0.54852200  1
  H  H29  1  0.58886700  0.34881400  0.58894400  1
  H  H30  1  0.62947900  0.31766400  0.62145000  1
  H  H31  1  0.92716800  0.68093800  0.79799200  1
  H  H32  1  0.87053300  0.61417800  0.73186500  1
  H  H33  1  0.93987300  0.62016500  0.77593200  1
  H  H34  1  0.18664600  0.31116600  0.22336400  1
  H  H35  1  0.18888000  0.38033700  0.25463300  1
  H  H36  1  0.24387900  0.36836300  0.29797500  1
  H  H37  1  0.18395600  0.42043400  0.90430300  1
  H  H38  1  0.11905200  0.38681000  0.83433700  1
  H  H39  1  0.16992500  0.35880500  0.84126900  1
  H  H40  1  0.09135800  0.80659900  0.14918400  1
  H  H41  1  0.09666200  0.79215400  0.20856600  1
  H  H42  1  0.08704000  0.85356400  0.20876900  1
  H  H43  1  0.09430800  0.78823300  0.44621500  1
  H  H44  1  0.09833200  0.80727300  0.39142100  1
  H  H45  1  0.08933200  0.73660500  0.38205200  1
  H  H46  1  0.94268400  0.50748600  0.75883600  1
  H  H47  1  0.89581900  0.46546100  0.77780000  1
  H  H48  1  0.93265000  0.54516900  0.81679600  1
  C  C1  1  0.42011200  0.42000900  0.50518300  1
  C  C2  1  0.58256300  0.49954800  0.58439700  1
  C  C3  1  0.58137300  0.58052200  0.50285700  1
  C  C4  1  0.41895100  0.50098200  0.42367600  1
  C  C5  1  0.69905900  0.43767000  0.69321400  1
  C  C6  1  0.71246900  0.52568600  0.76876200  1
  C  C7  1  0.76285000  0.52876100  0.81534000  1
  C  C8  1  0.87348700  0.50047600  0.87353100  1
  C  C9  1  0.71188300  0.50034700  0.71152800  1
  C  C10  1  0.74698200  0.43732400  0.73914500  1
  C  C11  1  0.79269900  0.50041600  0.78812700  1
  C  C12  1  0.82015500  0.53540700  0.76244200  1
  C  C13  1  0.77128900  0.53898900  0.72079200  1
  C  C14  1  0.83717300  0.50049600  0.83483500  1
  C  C15  1  0.66564900  0.50017800  0.66645200  1
  C  C16  1  0.62766800  0.49993000  0.62910400  1
  C  C17  1  0.20217400  0.25444700  0.50237100  1
  C  C18  1  0.20763000  0.20736700  0.50344200  1
  C  C19  1  0.25601300  0.20317700  0.50491700  1
  C  C20  1  0.29897300  0.24610100  0.50532600  1
  C  C21  1  0.29352100  0.29318800  0.50426900  1
  C  C22  1  0.24513100  0.29736800  0.50277900  1
  C  C23  1  0.16301100  0.16278700  0.50315600  1
  C  C24  1  0.33818700  0.33783900  0.50467500  1
  C  C25  1  0.37563800  0.37535100  0.50495900  1
  C  C26  1  0.12559400  0.12538200  0.50301400  1
  C  C27  1  0.24165100  0.54871900  0.26538500  1
  C  C28  1  0.20504200  0.49964200  0.21026500  1
  C  C29  1  0.21145700  0.45071400  0.19827700  1
  C  C30  1  0.25438300  0.45081200  0.24139600  1
  C  C31  1  0.29120300  0.50003500  0.29646300  1
  C  C32  1  0.28471600  0.54892300  0.30844000  1
  C  C33  1  0.16055800  0.49966200  0.16531400  1
  C  C34  1  0.33625600  0.50046100  0.34130700  1
  C  C35  1  0.37402400  0.50075700  0.37893800  1
  C  C36  1  0.12340400  0.49988400  0.12759000  1
  C  C37  1  0.79649300  0.79778900  0.55421500  1
  C  C38  1  0.79124400  0.79283400  0.50162800  1
  C  C39  1  0.74364200  0.74509200  0.44932500  1
  C  C40  1  0.70127200  0.70227200  0.44961000  1
  C  C41  1  0.70653300  0.70721700  0.50219700  1
  C  C42  1  0.75412300  0.75497000  0.55450000  1
  C  C43  1  0.83541400  0.83730400  0.50134800  1
  C  C44  1  0.66248900  0.66263200  0.50248500  1
  C  C45  1  0.62547900  0.62516300  0.50268800  1
  C  C46  1  0.87258900  0.87463700  0.50117200  1
  C  C47  1  0.99969000  0.42025800  0.92026400  1
  C  C48  1  0.91721900  0.50038600  0.91904500  1
  C  C49  1  0.99688500  0.58052300  0.08144700  1
  C  C50  1  0.07942300  0.50042500  0.08266500  1
  C  C51  1  0.00033400  0.08102500  0.58440100  1
  C  C52  1  0.08114600  0.08090100  0.50299800  1
  C  C53  1  0.99779000  0.91897300  0.41965300  1
  C  C54  1  0.91696700  0.91906500  0.50105900  1
  C  C55  1  0.04770800  0.24152300  0.76660900  1
  C  C56  1  0.00034200  0.20763500  0.71026200  1
  C  C57  1  0.95287100  0.21662300  0.69624200  1
  C  C58  1  0.95273800  0.25956500  0.73867000  1
  C  C59  1  0.00009100  0.29345500  0.79502500  1
  C  C60  1  0.04763500  0.28454300  0.80902400  1
  C  C61  1  0.00046300  0.16302700  0.66610700  1
  C  C62  1  0.99993700  0.33813700  0.83908100  1
  C  C63  1  0.99981000  0.37566900  0.87610900  1
  C  C64  1  0.00046400  0.12556300  0.62888300  1
  C  C65  1  0.99679800  0.79726200  0.24537800  1
  C  C66  1  0.99727000  0.79253200  0.29311900  1
  C  C67  1  0.99772000  0.74512000  0.29817800  1
  C  C68  1  0.99743000  0.70224100  0.25527100  1
  C  C69  1  0.99692700  0.70695100  0.20751500  1
  C  C70  1  0.99674900  0.75449900  0.20258800  1
  C  C71  1  0.99749600  0.83709800  0.33767100  1
  C  C72  1  0.99687000  0.66244900  0.16306800  1
  C  C73  1  0.99687500  0.62504700  0.12578600  1
  C  C74  1  0.99767600  0.87452700  0.37511300  1
  C  C75  1  0.74125100  0.34312100  0.74650300  1
  C  C76  1  0.62409200  0.33744400  0.59284000  1
  C  C77  1  0.90610500  0.63252200  0.77697300  1
  C  C78  1  0.21614600  0.35911400  0.25317500  1
  C  C79  1  0.14934700  0.37829400  0.86352500  1
  C  C80  1  0.07549400  0.80794800  0.18086100  1
  C  C81  1  0.07778200  0.77073000  0.39850400  1
  C  C82  1  0.91014100  0.50529000  0.77366200  1
  S  S1  1  0.71476200  0.39367600  0.76757500  1
  S  S2  1  0.69289600  0.40241900  0.62192800  1
  S  S3  1  0.87827000  0.61012700  0.82096300  1
  S  S4  1  0.26268500  0.38740000  0.22558600  1
  S  S5  1  0.10901800  0.32855100  0.88207200  1
  S  S6  1  0.99632000  0.76066500  0.14076700  1
  S  S7  1  0.99854100  0.73914200  0.36018900  1
  S  S8  1  0.84738400  0.49976500  0.71801800  1
  O  O1  1  0.44035200  0.40365500  0.47021500  1
  O  O2  1  0.43813300  0.47498500  0.54009300  1
  O  O3  1  0.56423800  0.46464900  0.52928200  1
  O  O4  1  0.56202800  0.53432400  0.60079100  1
  O  O5  1  0.56336300  0.52554500  0.46796400  1
  O  O6  1  0.56114200  0.59687600  0.53783800  1
  O  O7  1  0.43948600  0.46620600  0.40727900  1
  O  O8  1  0.43727300  0.53588300  0.47879100  1
  O  O9  1  0.96232800  0.40383900  0.93800200  1
  O  O10  1  0.03699100  0.47519900  0.94080600  1
  O  O11  1  0.89967800  0.46527000  0.93873700  1
  O  O12  1  0.97272700  0.53496800  0.93823900  1
  O  O13  1  0.95959700  0.52558600  0.06090100  1
  O  O14  1  0.03424700  0.59694800  0.06370500  1
  O  O15  1  0.02390100  0.46580600  0.06346400  1
  O  O16  1  0.09689800  0.53550100  0.06292400  1
  O  O17  1  0.03719500  0.06256900  0.60097900  1
  O  O18  1  0.96342800  0.06108500  0.52929500  1
  O  O19  1  0.09796300  0.06246900  0.53974000  1
  O  O20  1  0.02587200  0.06095600  0.46635400  1
  O  O21  1  0.03468500  0.93890700  0.47477000  1
  O  O22  1  0.96091600  0.93740000  0.40306500  1
  O  O23  1  0.97223700  0.93902500  0.53770100  1
  O  O24  1  0.90014300  0.93749900  0.46431300  1
