# Generated by REPEAT Assigner based on pymatgen
data_DB0-m29_o89_o54_f0_pts.sym.5
_audit_creation_date              2022-05-24
_audit_creation_method            REPEAT_Assigner
_cell_length_a                    14.157069
_cell_length_b                    9.557859
_cell_length_c                    27.778419
_cell_angle_alpha                 83.767684
_cell_angle_beta                  88.841962
_cell_angle_gamma                 109.773463
_cell_volume                      3509.685587
_symmetry_space_group_name_H-M    P1
_symmetry_Int_Tables_number       1
loop_
    _symmetry_equiv_pos_site_id
    _symmetry_equiv_pos_as_xyz
    1  x,y,z
loop_
    _atom_site_type_symbol
    _atom_site_label
    _atom_site_fract_x
    _atom_site_fract_y
    _atom_site_fract_z
    _atom_type_partial_charge
    C   C1   0.835874  0.997645  0.057586  -0.181272
    C   C2   0.751461  0.012099  0.036521  0.037824
    C   C3   0.751485  0.036002  0.986267  0.027505
    C   C4   0.836129  0.047680  0.958167  -0.046613
    C   C5   0.919340  0.028054  0.979609  0.129599
    C   C6   0.918624  0.999886  0.029520  0.121100
    C   C7   0.002561  0.033556  0.951447  -0.197127
    C   C8   0.084127  0.010865  0.972650  0.146670
    C   C9   0.083681  0.980465  0.022262  0.168601
    C   C10  0.000698  0.975109  0.051017  -0.187510
    C   C11  0.166584  0.019884  0.943550  -0.168135
    C   C12  0.251600  0.004512  0.963544  0.036552
    C   C13  0.251710  0.974480  0.013608  0.068381
    C   C14  0.167003  0.957440  0.042378  -0.289208
    H   H1   0.835224  0.983258  0.096558  0.147074
    H   H2   0.006163  0.056754  0.912477  0.122016
    H   H3   0.164817  0.042883  0.904706  0.163746
    H   H4   0.171236  0.935323  0.081007  0.182540
    N   N1   0.060089  0.033722  0.132389  -0.222554
    C   C15  0.037676  0.965579  0.178219  -0.055298
    C   C16  0.962036  0.828569  0.178865  -0.184458
    C   C17  0.937673  0.813255  0.131406  -0.183842
    C   C18  0.999517  0.941673  0.103825  0.263596
    H   H5   0.114129  0.138377  0.121163  0.290912
    H   H6   0.074241  0.012804  0.209432  0.131598
    H   H7   0.928457  0.748782  0.210419  0.149092
    H   H8   0.881436  0.719253  0.118440  0.154520
    O   O1   0.584429  0.023614  0.052213  -0.433367
    C   C19  0.663577  0.996956  0.068786  0.513358
    O   O2   0.499130  0.698143  0.094668  -0.442746
    O   O3   0.663564  0.954250  0.115299  -0.536895
    O   O4   0.463875  0.806457  0.158330  -0.468451
    C   C20  0.481933  0.693462  0.141517  0.488833
    Fe  Fe1  0.477149  0.967757  0.104749  1.403565
    O   O5   0.345707  0.886241  0.074058  -0.600158
    O   O6   0.421683  0.110495  0.028811  -0.489373
    C   C21  0.344219  0.986031  0.037868  0.594532
    O   O7   0.509880  0.160161  0.134121  -0.583248
    O   O8   0.365116  0.029260  0.179700  -0.555053
    C   C22  0.438385  0.155902  0.165884  0.617025
    O   O9   0.495983  0.856106  0.865304  -0.545998
    O   O10  0.641748  0.988491  0.820643  -0.450038
    C   C23  0.568557  0.861418  0.834026  0.541964
    O   O11  0.655979  0.128850  0.927367  -0.568073
    O   O12  0.582644  0.898432  0.969383  -0.482234
    C   C24  0.659129  0.024526  0.961679  0.591116
    O   O13  0.339807  0.071675  0.884828  -0.530693
    O   O14  0.541286  0.209918  0.841728  -0.497067
    C   C25  0.524768  0.323982  0.858553  0.514638
    O   O15  0.416687  0.989186  0.946663  -0.431963
    C   C26  0.339286  0.022735  0.930855  0.501202
    O   O16  0.507865  0.319705  0.905408  -0.436466
    Fe  Fe2  0.526278  0.047490  0.895156  1.381947
    C   C27  0.555115  0.698348  0.661328  0.172001
    O   O17  0.528148  0.807480  0.677536  -0.333298
    N   N2   0.572168  0.591652  0.692852  -0.003029
    C   C28  0.584931  0.473421  0.674440  0.284513
    C   C29  0.538563  0.460751  0.776416  -0.234917
    C   C30  0.535131  0.461334  0.826042  0.151604
    C   C31  0.566628  0.724539  0.814206  0.114151
    C   C32  0.590682  0.727679  0.765532  -0.269812
    C   C33  0.568835  0.594366  0.744986  0.189554
    C   C34  0.545591  0.553897  0.595682  -0.035722
    C   C35  0.556478  0.688635  0.611787  0.160566
    C   C36  0.563443  0.809506  0.578272  -0.079922
    C   C37  0.555136  0.442212  0.628412  -0.043720
    C   C38  0.541133  0.591846  0.844680  -0.230067
    H   H9   0.622268  0.835706  0.744232  0.203532
    C   C39  0.466510  0.425882  0.155282  -0.182308
    C   C40  0.502835  0.627706  0.466390  0.108796
    C   C41  0.483997  0.367251  0.485490  0.035646
    C   C42  0.483111  0.486295  0.452297  0.005752
    C   C43  0.500810  0.742959  0.431500  -0.250805
    C   C44  0.474929  0.717051  0.385039  0.161310
    C   C45  0.453575  0.575658  0.371611  -0.021467
    C   C46  0.463196  0.464006  0.404325  -0.045622
    C   C47  0.452298  0.329279  0.388212  0.166818
    C   C48  0.453570  0.319562  0.338668  0.159289
    N   N3   0.436421  0.426225  0.307166  0.016353
    C   C49  0.423651  0.544409  0.325607  0.258021
    C   C50  0.469470  0.557029  0.223586  -0.224363
    C   C51  0.472467  0.556356  0.173969  0.124113
    C   C52  0.441351  0.293204  0.185761  0.087652
    C   C53  0.417702  0.290158  0.234482  -0.270285
    C   C54  0.439579  0.423473  0.255030  0.163665
    O   O18  0.377185  0.627632  0.300427  -0.385777
    C   C55  0.524861  0.650672  0.514507  0.018097
    C   C56  0.525724  0.531620  0.547705  0.018011
    C   C57  0.506002  0.390210  0.533611  0.092239
    C   C58  0.548648  0.791009  0.530410  -0.098323
    H   H10  0.493060  0.665004  0.236617  0.174545
    H   H11  0.520109  0.857278  0.438138  0.116399
    H   H12  0.558202  0.892379  0.507034  0.119040
    O   O19  0.631205  0.390061  0.699695  -0.386513
    C   C59  0.533801  0.300824  0.614977  0.168673
    H   H13  0.514913  0.352833  0.763345  0.176820
    C   C60  0.460229  0.226921  0.469582  -0.109492
    C   C61  0.445388  0.208420  0.421722  -0.076557
    O   O20  0.480514  0.210443  0.322434  -0.339635
    C   C62  0.507988  0.274947  0.568505  -0.243029
    H   H14  0.450717  0.125556  0.492952  0.124997
    H   H15  0.386200  0.182158  0.255804  0.220403
    H   H16  0.488685  0.160630  0.561865  0.112918
    H   H17  0.530511  0.592656  0.883268  0.153289
    H   H18  0.476584  0.425007  0.116665  0.133413
    Cl  Cl1  0.609523  0.993313  0.592639  -0.015402
    Cl  Cl2  0.489648  0.872735  0.341963  -0.014248
    Cl  Cl3  0.519029  0.145085  0.658039  -0.013061
    Cl  Cl4  0.399276  0.024614  0.407359  -0.018409
    Cl  Cl5  0.830887  0.069987  0.894757  0.011940
