# generated using pymatgen
data_Zn3H20(C9O4)3
_symmetry_space_group_name_H-M   'P 1'
_cell_length_a   19.07124100
_cell_length_b   18.86262500
_cell_length_c   18.95316900
_cell_angle_alpha   108.89007600
_cell_angle_beta   109.84876600
_cell_angle_gamma   109.70386000
_symmetry_Int_Tables_number   1
_chemical_formula_structural   Zn3H20(C9O4)3
_chemical_formula_sum   'Zn6 H40 C54 O24'
_cell_volume   5246.36917564
_cell_formula_units_Z   2
loop_
 _symmetry_equiv_pos_site_id
 _symmetry_equiv_pos_as_xyz
  1  'x, y, z'
loop_
 _atom_site_type_symbol
 _atom_site_label
 _atom_site_symmetry_multiplicity
 _atom_site_fract_x
 _atom_site_fract_y
 _atom_site_fract_z
 _atom_site_occupancy
  Zn  Zn1  1  0.43806300  0.00536700  0.93424300  1
  Zn  Zn2  1  0.57043200  0.00300900  0.07626500  1
  Zn  Zn3  1  0.44841900  0.44079400  0.51265400  1
  Zn  Zn4  1  0.58179600  0.58684100  0.51556200  1
  Zn  Zn5  1  0.00773200  0.43932100  0.94556600  1
  Zn  Zn6  1  0.01087200  0.58004900  0.08322800  1
  H  H1  1  0.48926500  0.24162900  0.36626400  1
  H  H2  1  0.55310100  0.35822400  0.29514800  1
  H  H3  1  0.53135900  0.15131600  0.27609100  1
  H  H4  1  0.47109900  0.22730000  0.16362900  1
  H  H5  1  0.88269200  0.25089300  0.00803100  1
  H  H6  1  0.63147600  0.26482700  0.01014400  1
  H  H7  1  0.50918500  0.74084800  0.88660300  1
  H  H8  1  0.50600200  0.62819800  0.77297400  1
  H  H9  1  0.51005200  0.77144100  0.63885000  1
  H  H10  1  0.50740300  0.88060400  0.74897900  1
  H  H11  1  0.20726700  0.80022500  0.11235200  1
  H  H12  1  0.19474200  0.60418000  0.90906000  1
  H  H13  1  0.30135900  0.71483900  0.90347900  1
  H  H14  1  0.77935600  0.65399800  0.77859300  1
  H  H15  1  0.88776700  0.65170300  0.89219700  1
  H  H16  1  0.75364400  0.37548900  0.74680300  1
  H  H17  1  0.64257300  0.37760800  0.63646200  1
  H  H18  1  0.40465900  0.63499000  0.34824900  1
  H  H19  1  0.28845300  0.63221200  0.23897800  1
  H  H20  1  0.22785700  0.38557300  0.29160000  1
  H  H21  1  0.22532700  0.93895500  0.14625500  1
  H  H22  1  0.31074100  0.93909300  0.22822300  1
  H  H23  1  0.32833400  0.03615900  0.22205300  1
  H  H24  1  0.40005000  0.97059000  0.16207100  1
  H  H25  1  0.31739400  0.97312500  0.08237100  1
  H  H26  1  0.07094700  0.41080900  0.27953600  1
  H  H27  1  0.02025900  0.43119600  0.19451900  1
  H  H28  1  0.97268700  0.32370700  0.18093300  1
  H  H29  1  0.05377700  0.33931400  0.09984700  1
  H  H30  1  0.09052400  0.30618300  0.17652500  1
  H  H31  1  0.83233900  0.10105200  0.92427000  1
  H  H32  1  0.90603200  0.15099100  0.03995300  1
  H  H33  1  0.83559200  0.03572200  0.97514000  1
  H  H34  1  0.78464000  0.10650700  0.06438700  1
  H  H35  1  0.70919100  0.04739800  0.94962700  1
  H  H36  1  0.71544100  0.43249400  0.11863300  1
  H  H37  1  0.82495900  0.49021200  0.14208700  1
  H  H38  1  0.74666500  0.51773800  0.09224200  1
  H  H39  1  0.76618000  0.43132100  0.98059000  1
  H  H40  1  0.66178000  0.36986500  0.96298600  1
  C  C1  1  0.62649700  0.12371900  0.00731600  1
  C  C2  1  0.49989400  0.12345700  0.11941000  1
  C  C3  1  0.38242200  0.88460800  0.00297800  1
  C  C4  1  0.50783000  0.88439700  0.89088200  1
  C  C5  1  0.50667200  0.25856900  0.32283000  1
  C  C6  1  0.52647600  0.33706800  0.33158800  1
  C  C7  1  0.51576100  0.19656700  0.26076500  1
  C  C8  1  0.49643900  0.18918900  0.18324600  1
  C  C9  1  0.76550300  0.18542800  0.00817400  1
  C  C10  1  0.82657600  0.25162200  0.00832600  1
  C  C11  1  0.81941400  0.32291000  0.01162100  1
  C  C12  1  0.74841000  0.32770900  0.01185700  1
  C  C13  1  0.68709000  0.26158800  0.01047000  1
  C  C14  1  0.69551800  0.19170100  0.01014500  1
  C  C15  1  0.50901100  0.74749400  0.83200700  1
  C  C16  1  0.50626200  0.68358700  0.76756000  1
  C  C17  1  0.50759000  0.69244000  0.69843400  1
  C  C18  1  0.50922900  0.76403700  0.69282900  1
  C  C19  1  0.50729900  0.82539100  0.75470600  1
  C  C20  1  0.50859000  0.81806200  0.82513800  1
  C  C21  1  0.28902600  0.84619000  0.06339800  1
  C  C22  1  0.22850200  0.78300000  0.06682600  1
  C  C23  1  0.19463400  0.69593600  0.01192800  1
  C  C24  1  0.22039900  0.67167100  0.95267000  1
  C  C25  1  0.28011500  0.73392100  0.94887300  1
  C  C26  1  0.31419800  0.82045100  0.00370100  1
  C  C27  1  0.63612600  0.51581500  0.63444300  1
  C  C28  1  0.52032900  0.39919500  0.39614400  1
  C  C29  1  0.39367400  0.51163000  0.39347600  1
  C  C30  1  0.51067500  0.62858900  0.63264900  1
  C  C31  1  0.89249500  0.51145500  0.89363100  1
  C  C32  1  0.88723800  0.38973400  0.01209600  1
  C  C33  1  0.12601800  0.50774300  0.13531000  1
  C  C34  1  0.13020100  0.62975600  0.01548500  1
  C  C35  1  0.77366300  0.59276000  0.77143000  1
  C  C36  1  0.83421400  0.59137700  0.83576400  1
  C  C37  1  0.82766900  0.51339100  0.82678400  1
  C  C38  1  0.75960700  0.43685600  0.75414700  1
  C  C39  1  0.69674300  0.43806900  0.69221600  1
  C  C40  1  0.70405300  0.51594800  0.70020000  1
  C  C41  1  0.34072700  0.57891700  0.31166200  1
  C  C42  1  0.27498800  0.57782100  0.25036800  1
  C  C43  1  0.19268100  0.50718500  0.20209800  1
  C  C44  1  0.17560900  0.43733800  0.21681400  1
  C  C45  1  0.24152600  0.43950400  0.27955500  1
  C  C46  1  0.32427200  0.50980000  0.32678600  1
  C  C47  1  0.32944400  0.94197300  0.12226500  1
  C  C48  1  0.29570000  0.96459300  0.18330900  1
  C  C49  1  0.08662600  0.36113600  0.16973200  1
  C  C50  1  0.03425500  0.38337800  0.20865300  1
  C  C51  1  0.77150600  0.10621000  0.00262800  1
  C  C52  1  0.84115600  0.09890700  0.98435100  1
  C  C53  1  0.73156100  0.39849300  0.00714900  1
  C  C54  1  0.75635700  0.46399600  0.09588900  1
  O  O1  1  0.54665600  0.09877600  0.95451700  1
  O  O2  1  0.64678500  0.09256200  0.05896500  1
  O  O3  1  0.45217700  0.09827200  0.03796200  1
  O  O4  1  0.54948000  0.09241200  0.14570900  1
  O  O5  1  0.36145600  0.91543700  0.95106800  1
  O  O6  1  0.46202900  0.91021100  0.05673400  1
  O  O7  1  0.45932800  0.91635800  0.86489300  1
  O  O8  1  0.55573300  0.90948800  0.97244500  1
  O  O9  1  0.55636700  0.45703400  0.60276400  1
  O  O10  1  0.65744700  0.57276000  0.60891400  1
  O  O11  1  0.46911300  0.36998000  0.42422800  1
  O  O12  1  0.56749500  0.48188200  0.42371700  1
  O  O13  1  0.37288800  0.45561600  0.42002600  1
  O  O14  1  0.47370100  0.56980200  0.42465800  1
  O  O15  1  0.46353300  0.54582800  0.60533500  1
  O  O16  1  0.56052500  0.65754700  0.60335100  1
  O  O17  1  0.91643000  0.45463400  0.86935200  1
  O  O18  1  0.92373900  0.56647100  0.97474800  1
  O  O19  1  0.91443700  0.36395500  0.95923000  1
  O  O20  1  0.91932000  0.47172500  0.06606300  1
  O  O21  1  0.09562600  0.45374000  0.05413400  1
  O  O22  1  0.10167500  0.56421000  0.15948700  1
  O  O23  1  0.09862500  0.54774900  0.96211100  1
  O  O24  1  0.10473400  0.65533100  0.07011700  1
