# generated using pymatgen
data_CuH6C24N3(OF3)4
_symmetry_space_group_name_H-M   'P 1'
_cell_length_a   19.23513900
_cell_length_b   15.91655800
_cell_length_c   14.49629200
_cell_angle_alpha   90.00705100
_cell_angle_beta   89.99616900
_cell_angle_gamma   90.00099700
_symmetry_Int_Tables_number   1
_chemical_formula_structural   CuH6C24N3(OF3)4
_chemical_formula_sum   'Cu2 H12 C48 N6 O8 F24'
_cell_volume   4438.14420509
_cell_formula_units_Z   2
loop_
 _symmetry_equiv_pos_site_id
 _symmetry_equiv_pos_as_xyz
  1  'x, y, z'
loop_
 _atom_site_type_symbol
 _atom_site_label
 _atom_site_symmetry_multiplicity
 _atom_site_fract_x
 _atom_site_fract_y
 _atom_site_fract_z
 _atom_site_occupancy
  Cu  Cu1  1  0.50002900  0.49977400  0.59230800  1
  Cu  Cu2  1  0.49997300  0.50022800  0.40769500  1
  H  H1  1  0.15371100  0.36666000  0.50304300  1
  H  H2  1  0.84629100  0.63333300  0.49656800  1
  H  H3  1  0.15374400  0.63329700  0.49740500  1
  H  H4  1  0.84625700  0.36671200  0.50298900  1
  H  H5  1  0.60283300  0.05106400  0.41922000  1
  H  H6  1  0.39716700  0.94893700  0.58078300  1
  H  H7  1  0.60276300  0.94896500  0.58093900  1
  H  H8  1  0.39723800  0.05103800  0.41906300  1
  H  H9  1  0.38267300  0.52734400  0.05612400  1
  H  H10  1  0.61732900  0.47265900  0.94387800  1
  H  H11  1  0.42379700  0.38876900  0.94389500  1
  H  H12  1  0.57620500  0.61123300  0.05610800  1
  C  C1  1  0.49998800  0.33878000  0.49916100  1
  C  C2  1  0.50001400  0.66122200  0.50084200  1
  C  C3  1  0.36648500  0.49995000  0.50042600  1
  C  C4  1  0.63351700  0.50005200  0.49957600  1
  C  C5  1  0.25424400  0.42434900  0.50197000  1
  C  C6  1  0.74575700  0.57564800  0.49780900  1
  C  C7  1  0.18224400  0.42496300  0.50185300  1
  C  C8  1  0.81775800  0.57503400  0.49793400  1
  C  C9  1  0.14612000  0.49997900  0.50019900  1
  C  C10  1  0.85388100  0.50002200  0.49980300  1
  C  C11  1  0.18226300  0.57498600  0.49865500  1
  C  C12  1  0.81773800  0.42501900  0.50156200  1
  C  C13  1  0.25426300  0.57558100  0.49874700  1
  C  C14  1  0.74573800  0.42442500  0.50147800  1
  C  C15  1  0.29033200  0.49996000  0.50041500  1
  C  C16  1  0.70967000  0.50004200  0.49958800  1
  C  C17  1  0.93035100  0.50001100  0.49990800  1
  C  C18  1  0.06965000  0.49999000  0.50009500  1
  C  C19  1  0.55654600  0.97276300  0.54343600  1
  C  C20  1  0.44345400  0.02723900  0.45656600  1
  C  C21  1  0.55658400  0.02725300  0.45665300  1
  C  C22  1  0.44341700  0.97274900  0.54335000  1
  C  C23  1  0.49998700  0.24865100  0.49892000  1
  C  C24  1  0.50001400  0.75135100  0.50108300  1
  C  C25  1  0.49995700  0.02767400  0.58396100  1
  C  C26  1  0.50004300  0.97232800  0.41604200  1
  C  C27  1  0.49999500  0.08105800  0.49865100  1
  C  C28  1  0.50000600  0.91894500  0.50135200  1
  C  C29  1  0.49998900  0.17296300  0.49875300  1
  C  C30  1  0.50001100  0.82703900  0.50125000  1
  C  C31  1  0.47863200  0.57200000  0.96971200  1
  C  C32  1  0.52137000  0.42800300  0.03029100  1
  C  C33  1  0.43572500  0.51409900  0.02997100  1
  C  C34  1  0.56427700  0.48590400  0.97003200  1
  C  C35  1  0.54221100  0.56025600  0.02996200  1
  C  C36  1  0.45779100  0.43974600  0.97004100  1
  C  C37  1  0.49967900  0.50109400  0.08900800  1
  C  C38  1  0.50032300  0.49890900  0.91099500  1
  C  C39  1  0.49973500  0.50092200  0.18992600  1
  C  C40  1  0.50026600  0.49908000  0.81007600  1
  C  C41  1  0.29284200  0.34230500  0.50391200  1
  C  C42  1  0.70716000  0.65768700  0.49564000  1
  C  C43  1  0.29288000  0.65761900  0.49699300  1
  C  C44  1  0.70712000  0.34239200  0.50346000  1
  C  C45  1  0.50009300  0.93856900  0.31836600  1
  C  C46  1  0.49990700  0.06143400  0.68163600  1
  C  C47  1  0.45377000  0.65577400  0.93278400  1
  C  C48  1  0.54623200  0.34422800  0.06721800  1
  N  N1  1  0.03437100  0.57296600  0.49837300  1
  N  N2  1  0.96563000  0.42703500  0.50163100  1
  N  N3  1  0.96565000  0.57297600  0.49827900  1
  N  N4  1  0.03435200  0.42702500  0.50172200  1
  N  N5  1  0.49980000  0.50072600  0.26973000  1
  N  N6  1  0.50020200  0.49927600  0.73027200  1
  O  O1  1  0.49758500  0.37774300  0.57862800  1
  O  O2  1  0.50242000  0.62225900  0.42137500  1
  O  O3  1  0.50243400  0.37807900  0.41992000  1
  O  O4  1  0.49756500  0.62192300  0.58008300  1
  O  O5  1  0.39896900  0.50274500  0.57976900  1
  O  O6  1  0.60103200  0.49725300  0.42023300  1
  O  O7  1  0.39896800  0.49722200  0.42106100  1
  O  O8  1  0.60103300  0.50278400  0.57894100  1
  F  F1  1  0.33387700  0.33505000  0.42602300  1
  F  F2  1  0.24719500  0.27528700  0.50573600  1
  F  F3  1  0.33412800  0.33831900  0.58184600  1
  F  F4  1  0.66589500  0.66151000  0.41767600  1
  F  F5  1  0.75280700  0.72470200  0.49367100  1
  F  F6  1  0.66610400  0.66510400  0.57349100  1
  F  F7  1  0.33361200  0.66489200  0.57515000  1
  F  F8  1  0.24725000  0.72464300  0.49483900  1
  F  F9  1  0.33447000  0.66157700  0.41933000  1
  F  F10  1  0.66555200  0.33859600  0.58115200  1
  F  F11  1  0.75275000  0.27537100  0.50575900  1
  F  F12  1  0.66636600  0.33495800  0.42534200  1
  F  F13  1  0.50011900  0.00493300  0.25691000  1
  F  F14  1  0.44141400  0.89010300  0.30437000  1
  F  F15  1  0.55879300  0.89011800  0.30446200  1
  F  F16  1  0.49988100  0.99506900  0.74309300  1
  F  F17  1  0.44120700  0.10988500  0.69554100  1
  F  F18  1  0.55858600  0.10989900  0.69563300  1
  F  F19  1  0.43814000  0.70837900  0.00573900  1
  F  F20  1  0.39497000  0.64384400  0.87958100  1
  F  F21  1  0.50545400  0.69174500  0.87961700  1
  F  F22  1  0.56186100  0.29162300  0.99426300  1
  F  F23  1  0.49454800  0.30825800  0.12038600  1
  F  F24  1  0.60503200  0.35615800  0.12042000  1
