# generated using pymatgen
data_ZnH17C21NO4
_symmetry_space_group_name_H-M   'P 1'
_cell_length_a   13.08207300
_cell_length_b   15.24096800
_cell_length_c   14.01223600
_cell_angle_alpha   90.00495600
_cell_angle_beta   95.40798100
_cell_angle_gamma   90.00351400
_symmetry_Int_Tables_number   1
_chemical_formula_structural   ZnH17C21NO4
_chemical_formula_sum   'Zn2 H34 C42 N2 O8'
_cell_volume   2781.37235292
_cell_formula_units_Z   2
loop_
 _symmetry_equiv_pos_site_id
 _symmetry_equiv_pos_as_xyz
  1  'x, y, z'
loop_
 _atom_site_type_symbol
 _atom_site_label
 _atom_site_symmetry_multiplicity
 _atom_site_fract_x
 _atom_site_fract_y
 _atom_site_fract_z
 _atom_site_occupancy
  Zn  Zn1  1  0.52660400  0.49563700  0.61199500  1
  Zn  Zn2  1  0.52537600  0.50509800  0.39560600  1
  H  H1  1  0.85317300  0.50513400  0.37859100  1
  H  H2  1  0.19882000  0.49564300  0.62907100  1
  H  H3  1  0.85356800  0.49459100  0.68389600  1
  H  H4  1  0.19843900  0.50575200  0.32374500  1
  H  H5  1  0.01187900  0.50694500  0.30794100  1
  H  H6  1  0.04013100  0.49356600  0.69970400  1
  H  H7  1  0.59209700  0.06620300  0.64750400  1
  H  H8  1  0.60558100  0.93431500  0.37934500  1
  H  H9  1  0.58778900  0.22396700  0.63956400  1
  H  H10  1  0.60061100  0.77619200  0.38601500  1
  H  H11  1  0.46706600  0.04704300  0.35993300  1
  H  H12  1  0.45364000  0.95292200  0.63087500  1
  H  H13  1  0.37354000  0.45002900  0.05806200  1
  H  H14  1  0.61523900  0.61571300  0.94090700  1
  H  H15  1  0.37598000  0.45392700  0.23142300  1
  H  H16  1  0.61655900  0.60742700  0.76827300  1
  H  H17  1  0.67349800  0.56110600  0.25605300  1
  H  H18  1  0.43958300  0.37691400  0.75888100  1
  H  H19  1  0.67890100  0.55403000  0.08357200  1
  H  H20  1  0.44017300  0.37798300  0.93286600  1
  H  H21  1  0.49276900  0.27591100  0.29548300  1
  H  H22  1  0.37543400  0.11145800  0.23582400  1
  H  H23  1  0.51236800  0.12838800  0.22501500  1
  H  H24  1  0.41815900  0.20008400  0.16565400  1
  H  H25  1  0.28857400  0.19965800  0.35161700  1
  H  H26  1  0.30205000  0.28339300  0.26227600  1
  H  H27  1  0.33869900  0.30611200  0.38690100  1
  H  H28  1  0.47074600  0.72325900  0.69931500  1
  H  H29  1  0.34848000  0.88765200  0.72710000  1
  H  H30  1  0.48187600  0.87046300  0.77535100  1
  H  H31  1  0.38218300  0.79858800  0.80736900  1
  H  H32  1  0.27675700  0.79970200  0.58809600  1
  H  H33  1  0.27915300  0.71625900  0.68001100  1
  H  H34  1  0.33035300  0.69309500  0.56789800  1
  C  C1  1  0.52517200  0.32798600  0.49664700  1
  C  C2  1  0.52471700  0.67263900  0.51067400  1
  C  C3  1  0.32481200  0.50023700  0.48751300  1
  C  C4  1  0.72718800  0.50035000  0.52016300  1
  C  C5  1  0.83986400  0.49996400  0.52991200  1
  C  C6  1  0.21214100  0.50059500  0.47774300  1
  C  C7  1  0.05276500  0.50443400  0.37861700  1
  C  C8  1  0.99924400  0.49611000  0.62903000  1
  C  C9  1  0.15859900  0.50376400  0.38783900  1
  C  C10  1  0.89341200  0.49669000  0.61980700  1
  C  C11  1  0.15849700  0.49804500  0.55819200  1
  C  C12  1  0.89350400  0.50263100  0.44946300  1
  C  C13  1  0.05246800  0.49868900  0.54868300  1
  C  C14  1  0.99953600  0.50192900  0.45896600  1
  C  C15  1  0.56345500  0.09758200  0.58113000  1
  C  C16  1  0.57079200  0.90282700  0.43737900  1
  C  C17  1  0.56055000  0.18755200  0.57607100  1
  C  C18  1  0.56747900  0.81284900  0.44146800  1
  C  C19  1  0.52540800  0.23071900  0.49220700  1
  C  C20  1  0.52461500  0.76971900  0.51507600  1
  C  C21  1  0.49170400  0.18056600  0.41037600  1
  C  C22  1  0.48292600  0.81955600  0.58695300  1
  C  C23  1  0.49598000  0.08930100  0.41780100  1
  C  C24  1  0.48797600  0.91083400  0.58114600  1
  C  C25  1  0.53167700  0.04819100  0.50192000  1
  C  C26  1  0.53155600  0.95209000  0.50744900  1
  C  C27  1  0.44150500  0.47380000  0.09986100  1
  C  C28  1  0.57781800  0.56091000  0.90328800  1
  C  C29  1  0.44200100  0.47742000  0.19822000  1
  C  C30  1  0.57765900  0.55693900  0.80511500  1
  C  C31  1  0.60728800  0.53699800  0.21191100  1
  C  C32  1  0.47908800  0.42886600  0.79988900  1
  C  C33  1  0.60976900  0.53359000  0.11379900  1
  C  C34  1  0.47844100  0.43035300  0.89838500  1
  C  C35  1  0.52632900  0.50149300  0.05634700  1
  C  C36  1  0.52767200  0.49730800  0.95135900  1
  C  C37  1  0.44427200  0.22188700  0.31769900  1
  C  C38  1  0.43729900  0.16066400  0.23143700  1
  C  C39  1  0.33676500  0.25499600  0.33065500  1
  C  C40  1  0.42569500  0.77759800  0.66482500  1
  C  C41  1  0.40875700  0.83832100  0.74818000  1
  C  C42  1  0.32155600  0.74445600  0.62235000  1
  N  N1  1  0.52418500  0.50878700  0.25276600  1
  N  N2  1  0.52816900  0.49193000  0.75483200  1
  O  O1  1  0.52629600  0.36564500  0.58126500  1
  O  O2  1  0.52557800  0.63509100  0.42623600  1
  O  O3  1  0.52607400  0.37378600  0.41767700  1
  O  O4  1  0.52651900  0.62697400  0.58997800  1
  O  O5  1  0.37334000  0.49625400  0.57370700  1
  O  O6  1  0.67859800  0.50448200  0.43411200  1
  O  O7  1  0.37263400  0.50412800  0.40949500  1
  O  O8  1  0.67932000  0.49617000  0.59803600  1
