# Generated by REPEAT Assigner based on pymatgen
data_DB0-m3_o153_o15_f0_fsc.sym.12_sqe
_audit_creation_date              2022-05-24
_audit_creation_method            REPEAT_Assigner
_cell_length_a                    8.537944
_cell_length_b                    9.364370
_cell_length_c                    13.040702
_cell_angle_alpha                 90.595734
_cell_angle_beta                  86.458598
_cell_angle_gamma                 93.231407
_cell_volume                      1038.965669
_symmetry_space_group_name_H-M    P1
_symmetry_Int_Tables_number       1
loop_
    _symmetry_equiv_pos_site_id
    _symmetry_equiv_pos_as_xyz
    1  x,y,z
loop_
    _atom_site_type_symbol
    _atom_site_label
    _atom_site_fract_x
    _atom_site_fract_y
    _atom_site_fract_z
    _atom_type_partial_charge
    C   C1   0.978484  0.008393  0.132641  0.029459
    C   C2   0.110057  0.001751  0.190040  0.168066
    C   C3   0.258577  0.001699  0.141813  -0.472898
    C   C4   0.278295  0.002625  0.036594  0.408403
    C   C5   0.149473  0.002417  0.977674  -0.116000
    C   C6   0.999088  0.005628  0.024965  0.117134
    C   C7   0.172033  0.998669  0.871248  -0.193435
    C   C8   0.045431  0.999976  0.810733  0.022987
    C   C9   0.895635  0.001622  0.857605  0.322489
    C   C10  0.872688  0.001786  0.962946  -0.337947
    C   C11  0.064515  0.003465  0.704077  -0.112603
    C   C12  0.935568  0.021274  0.649208  -0.140956
    C   C13  0.786816  0.015562  0.694910  -0.034482
    C   C14  0.765954  0.003321  0.799481  -0.333386
    C   C15  0.830638  0.018659  0.184981  -0.185064
    C   C16  0.815062  0.004835  0.290405  -0.023157
    C   C17  0.944254  0.981236  0.342886  -0.164587
    C   C18  0.091855  0.991078  0.295871  -0.160777
    H   H1   0.361764  0.997800  0.185394  0.185489
    H   H2   0.952705  0.039110  0.568635  0.122678
    H   H3   0.648382  0.999623  0.835486  0.123814
    H   H4   0.752927  0.998240  0.993264  0.158587
    H   H5   0.289005  0.997311  0.834815  0.112162
    H   H6   0.724763  0.035764  0.147588  0.073468
    H   H7   0.929036  0.959049  0.422988  0.140993
    O   O1   0.599874  0.887893  0.597555  -0.699883
    O   O2   0.606052  0.134685  0.598757  -0.700179
    C   C19  0.654003  0.012882  0.630091  0.892246
    O   O3   0.618547  0.131796  0.387035  -0.677882
    O   O4   0.603049  0.884979  0.385607  -0.683693
    C   C20  0.664650  0.007955  0.350997  0.792813
    O   O5   0.278026  0.119432  0.395171  -0.704112
    O   O6   0.272249  0.873008  0.393777  -0.716245
    C   C21  0.224298  0.994452  0.361952  0.938117
    O   O7   0.259552  0.876105  0.605890  -0.706286
    O   O8   0.275461  0.122646  0.607555  -0.664334
    C   C22  0.214682  0.999956  0.642985  0.835904
    Zn  Zn1  0.444779  0.164273  0.495515  0.994372
    Zn  Zn2  0.433153  0.843341  0.497281  1.035765
    H   H8   0.432528  0.380806  0.845087  0.121369
    C   C23  0.450377  0.356344  0.311125  -0.132790
    C   C24  0.449993  0.426499  0.219947  -0.074299
    C   C25  0.445160  0.570490  0.219655  -0.145527
    C   C26  0.439504  0.644558  0.310475  -0.068700
    C   C27  0.437896  0.577281  0.406378  0.108760
    C   C28  0.445211  0.427565  0.406332  0.142956
    N   N1   0.430371  0.654111  0.496669  -0.073980
    C   C29  0.432387  0.580137  0.586498  0.114192
    C   C30  0.439836  0.430431  0.586444  0.140284
    N   N2   0.447305  0.353600  0.496152  -0.084740
    C   C31  0.427286  0.651341  0.681721  -0.073598
    C   C32  0.427739  0.581180  0.772890  -0.154173
    C   C33  0.432862  0.437221  0.773166  -0.068545
    C   C34  0.438643  0.363184  0.682338  -0.128213
    H   H9   0.455376  0.245067  0.299845  0.144868
    H   H10  0.454364  0.367281  0.148323  0.123815
    H   H11  0.445773  0.626915  0.147722  0.114631
    H   H12  0.436939  0.755115  0.297510  0.111922
    H   H13  0.422401  0.762613  0.693053  0.115901
    H   H14  0.423399  0.640392  0.844517  0.120194
    H   H15  0.441808  0.252683  0.695297  0.133330
    O   O9   0.426615  0.999946  0.991129  -0.456709
    H   H16  0.447302  0.897059  0.986104  0.322015
