# generated using pymatgen
data_Zn2H36C52N4O15
_symmetry_space_group_name_H-M   'P 1'
_cell_length_a   15.95445100
_cell_length_b   14.80324200
_cell_length_c   23.42573900
_cell_angle_alpha   90.00000000
_cell_angle_beta   90.01336400
_cell_angle_gamma   90.00000000
_symmetry_Int_Tables_number   1
_chemical_formula_structural   Zn2H36C52N4O15
_chemical_formula_sum   'Zn2 H36 C52 N4 O15'
_cell_volume   5532.63464437
_cell_formula_units_Z   1
loop_
 _symmetry_equiv_pos_site_id
 _symmetry_equiv_pos_as_xyz
  1  'x, y, z'
loop_
 _atom_site_type_symbol
 _atom_site_label
 _atom_site_symmetry_multiplicity
 _atom_site_fract_x
 _atom_site_fract_y
 _atom_site_fract_z
 _atom_site_occupancy
  Zn  Zn1  1  0.49893300  0.60317500  0.50072600  1
  Zn  Zn2  1  0.49984000  0.39752100  0.50067900  1
  H  H1  1  0.29927500  0.55724200  0.94953500  1
  H  H2  1  0.29983400  0.55740800  0.05248700  1
  H  H3  1  0.70353800  0.44563100  0.94810300  1
  H  H4  1  0.48397700  0.64361500  0.21481300  1
  H  H5  1  0.48324900  0.64411700  0.31877400  1
  H  H6  1  0.51669600  0.35698400  0.31859900  1
  H  H7  1  0.51769300  0.35808700  0.21461800  1
  H  H8  1  0.48003400  0.64278800  0.78657100  1
  H  H9  1  0.47966400  0.64340600  0.68261400  1
  H  H10  1  0.51957100  0.35726800  0.68268200  1
  H  H11  1  0.52022200  0.35819900  0.78666500  1
  H  H12  1  0.93306500  0.58010000  0.57748400  1
  H  H13  1  0.92680900  0.41637000  0.57580100  1
  H  H14  1  0.07367600  0.59171600  0.57224500  1
  H  H15  1  0.06762600  0.42281600  0.57855500  1
  H  H16  1  0.07136000  0.35564900  0.51422000  1
  H  H17  1  0.06720100  0.64503700  0.50301300  1
  H  H18  1  0.07298100  0.55252600  0.41482600  1
  H  H19  1  0.06676400  0.43094200  0.41992100  1
  H  H20  1  0.93229100  0.56403000  0.41785600  1
  H  H21  1  0.92592300  0.44299200  0.41581800  1
  H  H22  1  0.36642500  0.92914500  0.52081900  1
  H  H23  1  0.36357400  0.08080900  0.51068000  1
  H  H24  1  0.57964000  0.07988600  0.57252400  1
  H  H25  1  0.59022300  0.92824100  0.56547000  1
  H  H26  1  0.46915200  0.07226000  0.58870700  1
  H  H27  1  0.48352600  0.92059700  0.59083300  1
  H  H28  1  0.55021300  0.07994900  0.41417100  1
  H  H29  1  0.53505300  0.92837500  0.41116600  1
  H  H30  1  0.62602000  0.07151900  0.47123200  1
  H  H31  1  0.62062600  0.91990900  0.46140800  1
  H  H32  1  0.39816200  0.07251200  0.43743300  1
  H  H33  1  0.38748000  0.92090300  0.44521900  1
  H  H34  1  0.89934200  0.30172700  0.53364500  1
  H  H35  1  0.90206700  0.69910100  0.54060500  1
  H  H36  1  0.75285000  0.49981800  0.05564800  1
  C  C1  1  0.33553100  0.49974700  0.50075200  1
  C  C2  1  0.49964900  0.50041900  0.38889700  1
  C  C3  1  0.66318300  0.50094300  0.50091300  1
  C  C4  1  0.49947200  0.50029900  0.61246500  1
  C  C5  1  0.57191500  0.48081100  0.88231100  1
  C  C6  1  0.42983500  0.52081900  0.88277800  1
  C  C7  1  0.42932800  0.52123000  0.94181600  1
  C  C8  1  0.50170300  0.50111400  0.97126300  1
  C  C9  1  0.57342700  0.48089500  0.94134800  1
  C  C10  1  0.35693600  0.54132200  0.97153100  1
  C  C11  1  0.35729300  0.54141400  0.03028900  1
  C  C12  1  0.43000100  0.52143200  0.05979800  1
  C  C13  1  0.50227900  0.50118000  0.03024600  1
  C  C14  1  0.57484400  0.48108400  0.05987200  1
  C  C15  1  0.64747100  0.46150700  0.02940700  1
  C  C16  1  0.64626400  0.46134100  0.97060400  1
  C  C17  1  0.43074100  0.52126700  0.11873300  1
  C  C18  1  0.57300700  0.48119400  0.11927400  1
  C  C19  1  0.49098000  0.58067200  0.23771900  1
  C  C20  1  0.49090700  0.58068700  0.29656500  1
  C  C21  1  0.49992000  0.50052500  0.32629500  1
  C  C22  1  0.50935700  0.42052400  0.29646200  1
  C  C23  1  0.51028000  0.42089000  0.23761500  1
  C  C24  1  0.50095100  0.50088400  0.20810200  1
  C  C25  1  0.48850100  0.58006100  0.76366000  1
  C  C26  1  0.48868900  0.58017500  0.70481400  1
  C  C27  1  0.49957200  0.50032000  0.67506000  1
  C  C28  1  0.51069200  0.42054300  0.70485900  1
  C  C29  1  0.51145700  0.42084100  0.76370900  1
  C  C30  1  0.50014900  0.50050600  0.79326000  1
  C  C31  1  0.04720700  0.58584900  0.52862900  1
  C  C32  1  0.04648400  0.41855700  0.53353900  1
  C  C33  1  0.95163300  0.41708100  0.53159700  1
  C  C34  1  0.95248600  0.58352800  0.53209100  1
  C  C35  1  0.75309700  0.50130200  0.50089100  1
  C  C36  1  0.07845700  0.49980000  0.50069500  1
  C  C37  1  0.92026200  0.50074900  0.50085200  1
  C  C38  1  0.95209600  0.50114600  0.43972500  1
  C  C39  1  0.04682100  0.49545500  0.43977200  1
  C  C40  1  0.82860600  0.50122200  0.50087000  1
  C  C41  1  0.17010700  0.49940900  0.50069000  1
  C  C42  1  0.24561400  0.49937100  0.50070700  1
  C  C43  1  0.41177800  0.05173400  0.48196000  1
  C  C44  1  0.40981300  0.94967700  0.48619400  1
  C  C45  1  0.51884200  0.05129400  0.55838300  1
  C  C46  1  0.52461100  0.94925200  0.55722700  1
  C  C47  1  0.49783700  0.08555300  0.49912500  1
  C  C48  1  0.49718900  0.91513300  0.49916200  1
  C  C49  1  0.55751500  0.94903500  0.45402200  1
  C  C50  1  0.56248100  0.05106200  0.45704100  1
  C  C51  1  0.49699100  0.81633400  0.49929700  1
  C  C52  1  0.49830700  0.18435300  0.49921900  1
  N  N1  1  0.50062500  0.50065700  0.85409800  1
  N  N2  1  0.50155200  0.50110200  0.14727400  1
  N  N3  1  0.49711800  0.73818400  0.49955400  1
  N  N4  1  0.49877000  0.26250200  0.49945500  1
  O  O1  1  0.37406200  0.57799800  0.50054500  1
  O  O2  1  0.37481800  0.42190600  0.50052700  1
  O  O3  1  0.49883200  0.57836100  0.41563100  1
  O  O4  1  0.49989800  0.42242100  0.41558900  1
  O  O5  1  0.62388400  0.57874800  0.50068800  1
  O  O6  1  0.62463800  0.42273500  0.50063200  1
  O  O7  1  0.49866800  0.57822600  0.58576000  1
  O  O8  1  0.49979900  0.42238400  0.58572700  1
  O  O9  1  0.64205700  0.46257000  0.85273200  1
  O  O10  1  0.35921000  0.53890500  0.85367700  1
  O  O11  1  0.36030100  0.53958400  0.14796000  1
  O  O12  1  0.64231600  0.46292800  0.14974500  1
  O  O13  1  0.92443300  0.33958300  0.50329300  1
  O  O14  1  0.91939600  0.66165200  0.50764900  1
  O  O15  1  0.72130900  0.44220500  0.05634300  1
