# generated using pymatgen
data_ZnH16C24NO4
_symmetry_space_group_name_H-M   'P 1'
_cell_length_a   11.24460400
_cell_length_b   17.78989900
_cell_length_c   16.59958300
_cell_angle_alpha   90.00049200
_cell_angle_beta   102.20312700
_cell_angle_gamma   90.00090800
_symmetry_Int_Tables_number   1
_chemical_formula_structural   ZnH16C24NO4
_chemical_formula_sum   'Zn2 H32 C48 N2 O8'
_cell_volume   3245.55593170
_cell_formula_units_Z   2
loop_
 _symmetry_equiv_pos_site_id
 _symmetry_equiv_pos_as_xyz
  1  'x, y, z'
loop_
 _atom_site_type_symbol
 _atom_site_label
 _atom_site_symmetry_multiplicity
 _atom_site_fract_x
 _atom_site_fract_y
 _atom_site_fract_z
 _atom_site_occupancy
  Zn  Zn1  1  0.49899100  0.50027400  0.59152700  1
  Zn  Zn2  1  0.49464700  0.49973900  0.40763200  1
  H  H1  1  0.88308400  0.49979600  0.42539200  1
  H  H2  1  0.11055200  0.50020300  0.57376500  1
  H  H3  1  0.91683600  0.50030200  0.61349800  1
  H  H4  1  0.07679700  0.49971700  0.38566000  1
  H  H5  1  0.50288100  0.87757800  0.62656100  1
  H  H6  1  0.49864500  0.12244200  0.37364500  1
  H  H7  1  0.49769700  0.74070900  0.62787800  1
  H  H8  1  0.49344800  0.25931200  0.37093100  1
  H  H9  1  0.50188000  0.73838200  0.37071300  1
  H  H10  1  0.50641800  0.26161300  0.63042800  1
  H  H11  1  0.36338600  0.41478200  0.84712400  1
  H  H12  1  0.63003400  0.58530200  0.15197800  1
  H  H13  1  0.36645300  0.41607000  0.69959900  1
  H  H14  1  0.62705700  0.58399900  0.29951600  1
  H  H15  1  0.63494400  0.58456200  0.73934900  1
  H  H16  1  0.35870800  0.41542000  0.25983700  1
  H  H17  1  0.63515100  0.58534000  0.88752300  1
  H  H18  1  0.35841400  0.41465500  0.11165000  1
  H  H19  1  0.34858000  0.83360000  0.28247100  1
  H  H20  1  0.35749500  0.89554800  0.15263500  1
  H  H21  1  0.45049200  0.97670300  0.07449200  1
  H  H22  1  0.61455900  0.97709800  0.10536400  1
  H  H23  1  0.52740200  0.05498900  0.13263500  1
  H  H24  1  0.68647200  0.00532700  0.26880800  1
  H  H25  1  0.67876200  0.94239700  0.39874500  1
  H  H26  1  0.35499900  0.16646000  0.67709300  1
  H  H27  1  0.36785400  0.10445500  0.80987000  1
  H  H28  1  0.46351500  0.02320800  0.91371000  1
  H  H29  1  0.62731900  0.02271100  0.92757600  1
  H  H30  1  0.53882200  0.94489400  0.87629800  1
  H  H31  1  0.69445700  0.99451200  0.78308800  1
  H  H32  1  0.68280600  0.05749700  0.65053300  1
  C  C1  1  0.49706100  0.35277700  0.49980100  1
  C  C2  1  0.49684600  0.64723500  0.49939400  1
  C  C3  1  0.25879900  0.49994600  0.46751900  1
  C  C4  1  0.73483500  0.50006700  0.53163900  1
  C  C5  1  0.12545200  0.49989200  0.44942600  1
  C  C6  1  0.86818200  0.50011900  0.54973200  1
  C  C7  1  0.06353300  0.50003800  0.50966400  1
  C  C8  1  0.93010100  0.49996600  0.48949400  1
  C  C9  1  0.50335600  0.84683900  0.57045500  1
  C  C10  1  0.50105200  0.15317600  0.43014500  1
  C  C11  1  0.49991400  0.76941600  0.57085100  1
  C  C12  1  0.49760300  0.23060000  0.42882100  1
  C  C13  1  0.49880700  0.72973300  0.49910900  1
  C  C14  1  0.49902800  0.27027900  0.50061000  1
  C  C15  1  0.50130500  0.76845100  0.42717800  1
  C  C16  1  0.50396900  0.23155300  0.57354600  1
  C  C17  1  0.50678400  0.84605700  0.42691400  1
  C  C18  1  0.50935500  0.15394500  0.57527900  1
  C  C19  1  0.50699800  0.88536400  0.49898300  1
  C  C20  1  0.50711800  0.11464500  0.50293200  1
  C  C21  1  0.50618200  0.96612500  0.50017300  1
  C  C22  1  0.50621700  0.03388400  0.50150200  1
  C  C23  1  0.42391700  0.45245200  0.82409200  1
  C  C24  1  0.56955500  0.54760800  0.17502900  1
  C  C25  1  0.42585200  0.45325600  0.74134000  1
  C  C26  1  0.56767400  0.54679400  0.25778900  1
  C  C27  1  0.57531900  0.54706000  0.76346200  1
  C  C28  1  0.41828700  0.45294200  0.23570600  1
  C  C29  1  0.57553800  0.54761000  0.84661300  1
  C  C30  1  0.41801600  0.45240100  0.15254700  1
  C  C31  1  0.49916900  0.50000900  0.87716100  1
  C  C32  1  0.49432300  0.50002900  0.12197600  1
  C  C33  1  0.49753300  0.50004500  0.96338400  1
  C  C34  1  0.49593100  0.49999300  0.03574900  1
  C  C35  1  0.51142500  0.88516600  0.34983800  1
  C  C36  1  0.42302200  0.87135600  0.27990400  1
  C  C37  1  0.42795400  0.90648500  0.20662000  1
  C  C38  1  0.52230000  0.95503100  0.20258600  1
  C  C39  1  0.52886000  0.99322300  0.12384400  1
  C  C40  1  0.61178100  0.96794700  0.27193300  1
  C  C41  1  0.60675300  0.93294500  0.34524700  1
  C  C42  1  0.51637600  0.11482300  0.65393800  1
  C  C43  1  0.42977800  0.12866000  0.70000400  1
  C  C44  1  0.43693200  0.09349800  0.77492000  1
  C  C45  1  0.53171900  0.04488900  0.80473300  1
  C  C46  1  0.54066400  0.00665500  0.88557100  1
  C  C47  1  0.61942000  0.03194500  0.75955400  1
  C  C48  1  0.61216800  0.06698000  0.68458000  1
  N  N1  1  0.50090900  0.50022700  0.71229900  1
  N  N2  1  0.49269700  0.49978500  0.28685600  1
  O  O1  1  0.49882700  0.38828600  0.56934800  1
  O  O2  1  0.49498700  0.61172800  0.42983400  1
  O  O3  1  0.49510400  0.38773500  0.42987200  1
  O  O4  1  0.49861500  0.61227800  0.56929800  1
  O  O5  1  0.31737100  0.50019000  0.54473400  1
  O  O6  1  0.67627200  0.49979800  0.45441000  1
  O  O7  1  0.31372600  0.49973200  0.40520400  1
  O  O8  1  0.67991700  0.50030500  0.59397100  1
