# generated using pymatgen
data_Zn3H11C37(NO5)4
_symmetry_space_group_name_H-M   'P 1'
_cell_length_a   28.85842100
_cell_length_b   18.37997500
_cell_length_c   16.84985200
_cell_angle_alpha   90.00000000
_cell_angle_beta   61.81084600
_cell_angle_gamma   90.00000000
_symmetry_Int_Tables_number   1
_chemical_formula_structural   Zn3H11C37(NO5)4
_chemical_formula_sum   'Zn12 H44 C148 N16 O80'
_cell_volume   7877.40391024
_cell_formula_units_Z   4
loop_
 _symmetry_equiv_pos_site_id
 _symmetry_equiv_pos_as_xyz
  1  'x, y, z'
loop_
 _atom_site_type_symbol
 _atom_site_label
 _atom_site_symmetry_multiplicity
 _atom_site_fract_x
 _atom_site_fract_y
 _atom_site_fract_z
 _atom_site_occupancy
  Zn  Zn1  1  0.78953600  0.20127800  0.50463800  1
  Zn  Zn2  1  0.21046400  0.79872200  0.49536200  1
  Zn  Zn3  1  0.21046400  0.20127800  0.49536200  1
  Zn  Zn4  1  0.78953600  0.79872200  0.50463800  1
  Zn  Zn5  1  0.28953600  0.70127800  0.50463800  1
  Zn  Zn6  1  0.71046400  0.29872200  0.49536200  1
  Zn  Zn7  1  0.71046400  0.70127800  0.49536200  1
  Zn  Zn8  1  0.28953600  0.29872200  0.50463800  1
  Zn  Zn9  1  0.49912000  0.50000000  0.09042700  1
  Zn  Zn10  1  0.50088000  0.50000000  0.90957400  1
  Zn  Zn11  1  0.99912000  0.00000000  0.09042700  1
  Zn  Zn12  1  0.00088000  0.00000000  0.90957400  1
  H  H1  1  0.71613100  0.00000000  0.54207400  1
  H  H2  1  0.28386900  0.00000000  0.45792600  1
  H  H3  1  0.21613100  0.50000000  0.54207400  1
  H  H4  1  0.78386900  0.50000000  0.45792600  1
  H  H5  1  0.08523300  0.32144600  0.57634800  1
  H  H6  1  0.91476700  0.67855400  0.42365200  1
  H  H7  1  0.91476700  0.32144600  0.42365200  1
  H  H8  1  0.08523300  0.67855400  0.57634800  1
  H  H9  1  0.58523300  0.82144600  0.57634800  1
  H  H10  1  0.41476700  0.17855400  0.42365200  1
  H  H11  1  0.41476700  0.82144600  0.42365200  1
  H  H12  1  0.58523300  0.17855400  0.57634800  1
  H  H13  1  0.01562200  0.32108100  0.54541200  1
  H  H14  1  0.98437800  0.67891800  0.45458800  1
  H  H15  1  0.98437800  0.32108100  0.45458800  1
  H  H16  1  0.01562200  0.67891900  0.54541200  1
  H  H17  1  0.51562200  0.82108100  0.54541200  1
  H  H18  1  0.48437800  0.17891900  0.45458800  1
  H  H19  1  0.48437800  0.82108100  0.45458800  1
  H  H20  1  0.51562200  0.17891800  0.54541200  1
  H  H21  1  0.74859900  0.37605200  0.95244600  1
  H  H22  1  0.25140100  0.62394800  0.04755400  1
  H  H23  1  0.25140100  0.37605200  0.04755400  1
  H  H24  1  0.74859900  0.62394800  0.95244600  1
  H  H25  1  0.24859900  0.87605200  0.95244600  1
  H  H26  1  0.75140100  0.12394800  0.04755400  1
  H  H27  1  0.75140100  0.87605200  0.04755400  1
  H  H28  1  0.24859900  0.12394800  0.95244600  1
  H  H29  1  0.69886600  0.15533100  0.97286800  1
  H  H30  1  0.30113400  0.84466900  0.02713200  1
  H  H31  1  0.30113400  0.15533100  0.02713200  1
  H  H32  1  0.69886700  0.84466900  0.97286800  1
  H  H33  1  0.19886600  0.65533100  0.97286800  1
  H  H34  1  0.80113400  0.34466900  0.02713200  1
  H  H35  1  0.80113400  0.65533100  0.02713200  1
  H  H36  1  0.19886600  0.34466900  0.97286800  1
  H  H37  1  0.62003100  0.34665500  0.77774400  1
  H  H38  1  0.37996900  0.65334400  0.22225600  1
  H  H39  1  0.37996900  0.34665500  0.22225600  1
  H  H40  1  0.62003100  0.65334400  0.77774400  1
  H  H41  1  0.12003100  0.84665500  0.77774400  1
  H  H42  1  0.87996900  0.15334400  0.22225600  1
  H  H43  1  0.87996900  0.84665500  0.22225600  1
  H  H44  1  0.12003100  0.15334400  0.77774400  1
  C  C1  1  0.70570300  0.27050500  0.67663600  1
  C  C2  1  0.29429700  0.72949500  0.32336400  1
  C  C3  1  0.29429700  0.27050500  0.32336400  1
  C  C4  1  0.70570300  0.72949500  0.67663600  1
  C  C5  1  0.20570300  0.77050500  0.67663600  1
  C  C6  1  0.79429700  0.22949500  0.32336500  1
  C  C7  1  0.79429700  0.77050500  0.32336500  1
  C  C8  1  0.20570300  0.22949500  0.67663600  1
  C  C9  1  0.68804500  0.13246900  0.53107700  1
  C  C10  1  0.31195500  0.86753100  0.46892400  1
  C  C11  1  0.31195500  0.13246900  0.46892400  1
  C  C12  1  0.68804500  0.86753100  0.53107700  1
  C  C13  1  0.18804500  0.63246900  0.53107700  1
  C  C14  1  0.81195500  0.36753100  0.46892400  1
  C  C15  1  0.81195500  0.63246900  0.46892400  1
  C  C16  1  0.18804500  0.36753100  0.53107700  1
  C  C17  1  0.54200500  0.00000000  0.51933500  1
  C  C18  1  0.45799500  0.00000000  0.48066600  1
  C  C19  1  0.04200500  0.50000000  0.51933500  1
  C  C20  1  0.95799500  0.50000000  0.48066600  1
  C  C21  1  0.52023200  0.06472400  0.51154000  1
  C  C22  1  0.47976800  0.93527600  0.48846000  1
  C  C23  1  0.47976800  0.06472400  0.48846000  1
  C  C24  1  0.52023200  0.93527600  0.51154000  1
  C  C25  1  0.02023200  0.56472400  0.51154000  1
  C  C26  1  0.97976800  0.43527600  0.48846000  1
  C  C27  1  0.97976800  0.56472400  0.48846000  1
  C  C28  1  0.02023200  0.43527600  0.51154000  1
  C  C29  1  0.60735100  0.93440400  0.54155900  1
  C  C30  1  0.39264900  0.06559500  0.45844200  1
  C  C31  1  0.39264900  0.93440400  0.45844200  1
  C  C32  1  0.60735100  0.06559500  0.54155900  1
  C  C33  1  0.10735100  0.43440400  0.54155900  1
  C  C34  1  0.89264900  0.56559500  0.45844200  1
  C  C35  1  0.89264900  0.43440400  0.45844200  1
  C  C36  1  0.10735100  0.56559500  0.54155900  1
  C  C37  1  0.65570300  0.93393600  0.54249000  1
  C  C38  1  0.34429700  0.06606400  0.45751000  1
  C  C39  1  0.34429700  0.93393600  0.45751000  1
  C  C40  1  0.65570300  0.06606400  0.54249000  1
  C  C41  1  0.15570300  0.43393600  0.54249000  1
  C  C42  1  0.84429700  0.56606400  0.45751000  1
  C  C43  1  0.84429700  0.43393600  0.45751000  1
  C  C44  1  0.15570300  0.56606400  0.54249000  1
  C  C45  1  0.67862900  0.00000000  0.54284300  1
  C  C46  1  0.32137100  0.00000000  0.45715800  1
  C  C47  1  0.17862900  0.50000000  0.54284300  1
  C  C48  1  0.82137100  0.50000000  0.45715800  1
  C  C49  1  0.58579700  0.00000000  0.53400700  1
  C  C50  1  0.41420300  0.00000000  0.46599400  1
  C  C51  1  0.08579700  0.50000000  0.53400700  1
  C  C52  1  0.91420300  0.50000000  0.46599400  1
  C  C53  1  0.07838100  0.37177000  0.55145800  1
  C  C54  1  0.92161900  0.62823000  0.44854200  1
  C  C55  1  0.92161900  0.37177000  0.44854200  1
  C  C56  1  0.07838100  0.62823000  0.55145800  1
  C  C57  1  0.57838100  0.87177000  0.55145800  1
  C  C58  1  0.42161900  0.12823000  0.44854200  1
  C  C59  1  0.42161900  0.87177000  0.44854200  1
  C  C60  1  0.57838100  0.12823000  0.55145800  1
  C  C61  1  0.03639900  0.37183700  0.53482900  1
  C  C62  1  0.96360100  0.62816300  0.46517100  1
  C  C63  1  0.96360100  0.37183700  0.46517100  1
  C  C64  1  0.03639900  0.62816300  0.53482900  1
  C  C65  1  0.53639900  0.87183700  0.53482900  1
  C  C66  1  0.46360100  0.12816300  0.46517100  1
  C  C67  1  0.46360100  0.87183700  0.46517100  1
  C  C68  1  0.53639900  0.12816300  0.53482900  1
  C  C69  1  0.71994700  0.26784400  0.95870000  1
  C  C70  1  0.28005400  0.73215600  0.04130100  1
  C  C71  1  0.28005400  0.26784400  0.04130100  1
  C  C72  1  0.71994700  0.73215600  0.95869900  1
  C  C73  1  0.21994700  0.76784400  0.95869900  1
  C  C74  1  0.78005400  0.23215600  0.04130100  1
  C  C75  1  0.78005400  0.76784400  0.04130100  1
  C  C76  1  0.21994700  0.23215600  0.95870000  1
  C  C77  1  0.72131400  0.19701000  0.98469900  1
  C  C78  1  0.27868600  0.80299000  0.01530100  1
  C  C79  1  0.27868600  0.19701000  0.01530100  1
  C  C80  1  0.72131400  0.80299000  0.98469900  1
  C  C81  1  0.22131400  0.69701000  0.98469900  1
  C  C82  1  0.77868600  0.30299000  0.01530100  1
  C  C83  1  0.77868600  0.69701000  0.01530100  1
  C  C84  1  0.22131400  0.30299000  0.98469900  1
  C  C85  1  0.75117700  0.17928500  0.02604100  1
  C  C86  1  0.24882300  0.82071500  0.97395900  1
  C  C87  1  0.24882300  0.17928500  0.97395900  1
  C  C88  1  0.75117700  0.82071500  0.02604100  1
  C  C89  1  0.25117700  0.67928500  0.02604100  1
  C  C90  1  0.74882300  0.32071500  0.97395900  1
  C  C91  1  0.74882300  0.67928500  0.97395900  1
  C  C92  1  0.25117700  0.32071500  0.02604100  1
  C  C93  1  0.64635500  0.33075400  0.95179000  1
  C  C94  1  0.35364500  0.66924600  0.04821000  1
  C  C95  1  0.35364500  0.33075400  0.04821000  1
  C  C96  1  0.64635500  0.66924600  0.95179000  1
  C  C97  1  0.14635500  0.83075400  0.95179000  1
  C  C98  1  0.85364500  0.16924600  0.04821000  1
  C  C99  1  0.85364500  0.83075400  0.04821000  1
  C  C100  1  0.14635500  0.16924600  0.95179000  1
  C  C101  1  0.62010000  0.35211400  0.90420200  1
  C  C102  1  0.37990000  0.64788600  0.09579800  1
  C  C103  1  0.37990000  0.35211400  0.09579800  1
  C  C104  1  0.62010000  0.64788600  0.90420200  1
  C  C105  1  0.12010000  0.85211400  0.90420200  1
  C  C106  1  0.87990000  0.14788600  0.09579800  1
  C  C107  1  0.87990000  0.85211400  0.09579800  1
  C  C108  1  0.12010000  0.14788600  0.90420200  1
  C  C109  1  0.63932300  0.32907700  0.81580000  1
  C  C110  1  0.36067700  0.67092200  0.18420000  1
  C  C111  1  0.36067700  0.32907700  0.18420000  1
  C  C112  1  0.63932300  0.67092200  0.81580000  1
  C  C113  1  0.13932300  0.82907700  0.81580000  1
  C  C114  1  0.86067700  0.17092200  0.18420000  1
  C  C115  1  0.86067700  0.82907700  0.18420000  1
  C  C116  1  0.13932300  0.17092200  0.81580000  1
  C  C117  1  0.68368500  0.28561800  0.77412200  1
  C  C118  1  0.31631500  0.71438200  0.22587900  1
  C  C119  1  0.31631500  0.28561800  0.22587900  1
  C  C120  1  0.68368500  0.71438200  0.77412100  1
  C  C121  1  0.18368500  0.78561800  0.77412100  1
  C  C122  1  0.81631500  0.21438200  0.22587900  1
  C  C123  1  0.81631500  0.78561800  0.22587900  1
  C  C124  1  0.18368500  0.21438200  0.77412200  1
  C  C125  1  0.70856700  0.26292900  0.82330100  1
  C  C126  1  0.29143300  0.73707100  0.17670000  1
  C  C127  1  0.29143300  0.26292900  0.17670000  1
  C  C128  1  0.70856700  0.73707100  0.82330100  1
  C  C129  1  0.20856700  0.76292900  0.82330100  1
  C  C130  1  0.79143300  0.23707100  0.17670000  1
  C  C131  1  0.79143300  0.76292900  0.17670000  1
  C  C132  1  0.20856700  0.23707100  0.82330100  1
  C  C133  1  0.69026600  0.28647500  0.91097300  1
  C  C134  1  0.30973400  0.71352500  0.08902700  1
  C  C135  1  0.30973400  0.28647500  0.08902700  1
  C  C136  1  0.69026600  0.71352500  0.91097300  1
  C  C137  1  0.19026600  0.78647500  0.91097300  1
  C  C138  1  0.80973400  0.21352500  0.08902700  1
  C  C139  1  0.80973400  0.78647500  0.08902700  1
  C  C140  1  0.19026600  0.21352500  0.91097300  1
  C  C141  1  0.07430900  0.09794300  0.94213100  1
  C  C142  1  0.92569100  0.90205700  0.05786900  1
  C  C143  1  0.92569100  0.09794300  0.05786900  1
  C  C144  1  0.07430900  0.90205700  0.94213100  1
  C  C145  1  0.57430900  0.59794300  0.94213100  1
  C  C146  1  0.42569100  0.40205700  0.05786900  1
  C  C147  1  0.42569100  0.59794300  0.05786900  1
  C  C148  1  0.57430900  0.40205700  0.94213100  1
  N  N1  1  0.62882200  0.35305400  0.04259000  1
  N  N2  1  0.37117800  0.64694600  0.95741100  1
  N  N3  1  0.37117800  0.35305400  0.95741100  1
  N  N4  1  0.62882200  0.64694600  0.04259000  1
  N  N5  1  0.12882200  0.85305400  0.04259000  1
  N  N6  1  0.87117800  0.14694600  0.95741100  1
  N  N7  1  0.87117800  0.85305400  0.95741100  1
  N  N8  1  0.12882200  0.14694600  0.04259000  1
  N  N9  1  0.75428700  0.21802800  0.78394000  1
  N  N10  1  0.24571300  0.78197200  0.21606100  1
  N  N11  1  0.24571300  0.21802800  0.21606100  1
  N  N12  1  0.75428700  0.78197200  0.78394000  1
  N  N13  1  0.25428700  0.71802800  0.78394000  1
  N  N14  1  0.74571300  0.28197200  0.21606100  1
  N  N15  1  0.74571300  0.71802800  0.21606100  1
  N  N16  1  0.25428700  0.28197200  0.78394000  1
  O  O1  1  0.74865400  0.23157300  0.63550200  1
  O  O2  1  0.25134600  0.76842700  0.36449800  1
  O  O3  1  0.25134600  0.23157300  0.36449800  1
  O  O4  1  0.74865500  0.76842700  0.63550200  1
  O  O5  1  0.24865500  0.73157300  0.63550200  1
  O  O6  1  0.75134600  0.26842700  0.36449800  1
  O  O7  1  0.75134600  0.73157300  0.36449800  1
  O  O8  1  0.24865500  0.26842700  0.63550200  1
  O  O9  1  0.67104800  0.19683300  0.52370300  1
  O  O10  1  0.32895200  0.80316700  0.47629700  1
  O  O11  1  0.32895200  0.19683300  0.47629700  1
  O  O12  1  0.67104800  0.80316700  0.52370300  1
  O  O13  1  0.17104800  0.69683300  0.52370300  1
  O  O14  1  0.82895200  0.30316700  0.47629700  1
  O  O15  1  0.82895200  0.69683300  0.47629700  1
  O  O16  1  0.17104800  0.30316700  0.52370300  1
  O  O17  1  0.73538400  0.12402000  0.52236400  1
  O  O18  1  0.26461600  0.87598000  0.47763600  1
  O  O19  1  0.26461600  0.12402000  0.47763600  1
  O  O20  1  0.73538400  0.87598000  0.52236400  1
  O  O21  1  0.23538400  0.62402000  0.52236400  1
  O  O22  1  0.76461600  0.37598000  0.47763600  1
  O  O23  1  0.76461600  0.62402000  0.47763600  1
  O  O24  1  0.23538400  0.37598000  0.52236400  1
  O  O25  1  0.68335400  0.30069800  0.63270400  1
  O  O26  1  0.31664600  0.69930200  0.36729700  1
  O  O27  1  0.31664600  0.30069800  0.36729700  1
  O  O28  1  0.68335400  0.69930200  0.63270400  1
  O  O29  1  0.18335400  0.80069800  0.63270400  1
  O  O30  1  0.81664600  0.19930200  0.36729700  1
  O  O31  1  0.81664600  0.80069800  0.36729700  1
  O  O32  1  0.18335400  0.19930200  0.63270400  1
  O  O33  1  0.05661600  0.07256900  0.02411600  1
  O  O34  1  0.94338400  0.92743100  0.97588400  1
  O  O35  1  0.94338400  0.07256900  0.97588400  1
  O  O36  1  0.05661600  0.92743100  0.02411600  1
  O  O37  1  0.55661600  0.57256900  0.02411600  1
  O  O38  1  0.44338400  0.42743100  0.97588400  1
  O  O39  1  0.44338400  0.57256900  0.97588400  1
  O  O40  1  0.55661600  0.42743100  0.02411600  1
  O  O41  1  0.94487900  0.07634000  0.11073100  1
  O  O42  1  0.05512200  0.92366000  0.88927000  1
  O  O43  1  0.05512200  0.07634000  0.88927000  1
  O  O44  1  0.94487900  0.92366000  0.11073100  1
  O  O45  1  0.44487900  0.57634000  0.11073100  1
  O  O46  1  0.55512200  0.42366000  0.88927000  1
  O  O47  1  0.55512200  0.57634000  0.88927000  1
  O  O48  1  0.44487900  0.42366000  0.11073100  1
  O  O49  1  0.61213000  0.30441900  0.10617400  1
  O  O50  1  0.64053300  0.41782700  0.05866300  1
  O  O51  1  0.35946700  0.58217300  0.94133700  1
  O  O52  1  0.38787000  0.69558100  0.89382600  1
  O  O53  1  0.38787000  0.30441900  0.89382600  1
  O  O54  1  0.35946700  0.41782700  0.94133700  1
  O  O55  1  0.64053300  0.58217300  0.05866300  1
  O  O56  1  0.61213000  0.69558100  0.10617400  1
  O  O57  1  0.11213000  0.80441900  0.10617400  1
  O  O58  1  0.14053300  0.91782700  0.05866300  1
  O  O59  1  0.85946700  0.08217300  0.94133700  1
  O  O60  1  0.88787000  0.19558100  0.89382600  1
  O  O61  1  0.88787000  0.80441900  0.89382600  1
  O  O62  1  0.85946700  0.91782700  0.94133700  1
  O  O63  1  0.14053300  0.08217300  0.05866300  1
  O  O64  1  0.11213000  0.19558100  0.10617400  1
  O  O65  1  0.79958000  0.24402800  0.76921600  1
  O  O66  1  0.74959800  0.14888300  0.77285500  1
  O  O67  1  0.25040200  0.85111600  0.22714500  1
  O  O68  1  0.20042000  0.75597200  0.23078400  1
  O  O69  1  0.20042000  0.24402800  0.23078400  1
  O  O70  1  0.25040200  0.14888300  0.22714500  1
  O  O71  1  0.74959800  0.85111600  0.77285500  1
  O  O72  1  0.79958000  0.75597200  0.76921600  1
  O  O73  1  0.29958000  0.74402800  0.76921600  1
  O  O74  1  0.24959800  0.64888300  0.77285500  1
  O  O75  1  0.75040200  0.35111600  0.22714500  1
  O  O76  1  0.70042000  0.25597200  0.23078400  1
  O  O77  1  0.70042000  0.74402800  0.23078400  1
  O  O78  1  0.75040200  0.64888300  0.22714500  1
  O  O79  1  0.24959800  0.35111600  0.77285500  1
  O  O80  1  0.29958000  0.25597200  0.76921600  1
