# generated using pymatgen
data_Cu3H19C28N5O17
_symmetry_space_group_name_H-M   'P 1'
_cell_length_a   19.04547300
_cell_length_b   18.80641700
_cell_length_c   18.76415000
_cell_angle_alpha   109.16714000
_cell_angle_beta   110.20647600
_cell_angle_gamma   109.38602900
_symmetry_Int_Tables_number   1
_chemical_formula_structural   Cu3H19C28N5O17
_chemical_formula_sum   'Cu6 H38 C56 N10 O34'
_cell_volume   5151.17940945
_cell_formula_units_Z   2
loop_
 _symmetry_equiv_pos_site_id
 _symmetry_equiv_pos_as_xyz
  1  'x, y, z'
loop_
 _atom_site_type_symbol
 _atom_site_label
 _atom_site_symmetry_multiplicity
 _atom_site_fract_x
 _atom_site_fract_y
 _atom_site_fract_z
 _atom_site_occupancy
  Cu  Cu1  1  0.52354600  0.42511500  0.43799500  1
  Cu  Cu2  1  0.48752100  0.53148200  0.52807800  1
  Cu  Cu3  1  0.98239400  0.46090900  0.98735000  1
  Cu  Cu4  1  0.08179300  0.57300600  0.96315600  1
  Cu  Cu5  1  0.06409600  0.98431700  0.54368300  1
  Cu  Cu6  1  0.94357500  0.98206100  0.42064600  1
  H  H1  1  0.53067800  0.22430800  0.58288400  1
  H  H2  1  0.97277700  0.80693600  0.96338500  1
  H  H3  1  0.96681200  0.67204200  0.92918500  1
  H  H4  1  0.79705600  0.35054400  0.77099300  1
  H  H5  1  0.54307300  0.36106700  0.60420000  1
  H  H6  1  0.16074100  0.20136200  0.44788500  1
  H  H7  1  0.31490700  0.21800500  0.44149300  1
  H  H8  1  0.18339000  0.41085700  0.12782300  1
  H  H9  1  0.34377700  0.55776300  0.31277300  1
  H  H10  1  0.28522900  0.36665300  0.20144100  1
  H  H11  1  0.84540200  0.78133400  0.53119500  1
  H  H12  1  0.65340000  0.59515300  0.36211000  1
  H  H13  1  0.06077200  0.21018500  0.72288200  1
  H  H14  1  0.88793800  0.22957700  0.75006300  1
  H  H15  1  0.05747300  0.33602100  0.76214600  1
  H  H16  1  0.97889400  0.79667200  0.23254800  1
  H  H17  1  0.05969400  0.65152600  0.24677000  1
  H  H18  1  0.06146500  0.76942500  0.16656600  1
  H  H19  1  0.29664900  0.38278800  0.68704800  1
  H  H20  1  0.36719500  0.48425300  0.71685100  1
  H  H21  1  0.34866500  0.73863500  0.31844900  1
  H  H22  1  0.24428300  0.68338900  0.23877500  1
  H  H23  1  0.71211200  0.82050300  0.28898000  1
  H  H24  1  0.70341000  0.83870800  0.37944500  1
  H  H25  1  0.58331600  0.66825700  0.79408800  1
  H  H26  1  0.61476300  0.59574100  0.80205600  1
  H  H27  1  0.75057900  0.85595700  0.67118200  1
  H  H28  1  0.78532900  0.78326000  0.65885400  1
  H  H29  1  0.73822900  0.07243700  0.49647200  1
  H  H30  1  0.79603100  0.17420300  0.58257400  1
  H  H31  1  0.19859800  0.90699100  0.52145400  1
  H  H32  1  0.19650200  0.92402200  0.43740700  1
  H  H33  1  0.85274900  0.87703900  0.81892900  1
  H  H34  1  0.82687900  0.93047000  0.88774500  1
  H  H35  1  0.70394200  0.12431800  0.69964200  1
  H  H36  1  0.73140100  0.21775300  0.78352400  1
  H  H37  1  0.31912300  0.22787400  0.74714700  1
  H  H38  1  0.22035400  0.20499200  0.67630400  1
  C  C1  1  0.39855700  0.35448600  0.48303100  1
  C  C2  1  0.62444100  0.51067100  0.62567900  1
  C  C3  1  0.61352900  0.60357500  0.48502600  1
  C  C4  1  0.38816800  0.44774000  0.34147600  1
  C  C5  1  0.76409000  0.67624100  0.80099000  1
  C  C6  1  0.84102200  0.75217400  0.86832400  1
  C  C7  1  0.91289300  0.74810000  0.91059400  1
  C  C8  1  0.90852300  0.66951400  0.89038500  1
  C  C9  1  0.83230600  0.59220700  0.82483100  1
  C  C10  1  0.76038300  0.59512600  0.77544800  1
  C  C11  1  0.82746600  0.51268300  0.81105900  1
  C  C12  1  0.74982300  0.43559900  0.74917300  1
  C  C13  1  0.67961400  0.43807300  0.69753700  1
  C  C14  1  0.68633900  0.51635100  0.70454800  1
  C  C15  1  0.74227200  0.35540400  0.73599500  1
  C  C16  1  0.66409800  0.27903900  0.67606000  1
  C  C17  1  0.59332400  0.28261200  0.62839000  1
  C  C18  1  0.60117300  0.36118900  0.63902600  1
  C  C19  1  0.26736600  0.22864900  0.55704800  1
  C  C20  1  0.18342900  0.18180500  0.49550800  1
  C  C21  1  0.32483100  0.30151800  0.55503500  1
  C  C22  1  0.34133700  0.28511600  0.48940200  1
  C  C23  1  0.23734200  0.47666400  0.17390200  1
  C  C24  1  0.23848000  0.54186900  0.15918100  1
  C  C25  1  0.30564500  0.49345800  0.25528800  1
  C  C26  1  0.32073200  0.43031700  0.25951800  1
  C  C27  1  0.74141500  0.73100200  0.40750000  1
  C  C28  1  0.82360400  0.78831000  0.47365900  1
  C  C29  1  0.68559400  0.66126600  0.41520900  1
  C  C30  1  0.67005900  0.67674200  0.48177000  1
  C  C31  1  0.01642700  0.39323700  0.85110500  1
  C  C32  1  0.90154200  0.51091600  0.86872700  1
  C  C33  1  0.04727300  0.64038900  0.09909100  1
  C  C34  1  0.16316500  0.52780500  0.08634800  1
  C  C35  1  0.99591000  0.09220900  0.59792200  1
  C  C36  1  0.11865900  0.10878300  0.49143500  1
  C  C37  1  0.01511200  0.87680900  0.36758900  1
  C  C38  1  0.88880200  0.85906000  0.47487200  1
  C  C39  1  0.92800000  0.16623200  0.66364100  1
  C  C40  1  0.99737800  0.16094300  0.66609900  1
  C  C41  1  0.93945300  0.24109900  0.73537400  1
  C  C42  1  0.00786200  0.32155600  0.77950300  1
  C  C43  1  0.06787500  0.77661000  0.31451300  1
  C  C44  1  0.02055400  0.81526300  0.29964800  1
  C  C45  1  0.05745600  0.70595900  0.24017800  1
  C  C46  1  0.05470800  0.71132800  0.17009400  1
  C  C47  1  0.37012200  0.38952500  0.63096500  1
  C  C48  1  0.31549900  0.62978800  0.21574100  1
  C  C49  1  0.70549200  0.72854100  0.32312400  1
  C  C50  1  0.68528800  0.68208800  0.77871100  1
  C  C51  1  0.70019000  0.76608800  0.54697600  1
  C  C52  1  0.83902700  0.09280900  0.59913000  1
  C  C53  1  0.12821300  0.79802300  0.40285500  1
  C  C54  1  0.84638400  0.83728800  0.90407300  1
  C  C55  1  0.65534400  0.19449200  0.66370100  1
  C  C56  1  0.30378200  0.21588200  0.63170700  1
  N  N1  1  0.32290500  0.42126800  0.66364000  1
  N  N2  1  0.30730200  0.70455100  0.25055200  1
  N  N3  1  0.68122100  0.79122200  0.31626200  1
  N  N4  1  0.63700600  0.66105500  0.81964900  1
  N  N5  1  0.73092500  0.79014700  0.63673900  1
  N  N6  1  0.76979600  0.10857500  0.56475200  1
  N  N7  1  0.20097900  0.88387000  0.46408000  1
  N  N8  1  0.81506800  0.86896000  0.84801500  1
  N  N9  1  0.72385900  0.19005600  0.72129900  1
  N  N10  1  0.28641900  0.24201400  0.70126800  1
  O  O1  1  0.45565400  0.34363000  0.46296800  1
  O  O2  1  0.39157000  0.42490000  0.49894000  1
  O  O3  1  0.62493100  0.47477300  0.55221600  1
  O  O4  1  0.56323500  0.52823700  0.62709400  1
  O  O5  1  0.58573800  0.52312500  0.42686900  1
  O  O6  1  0.58907700  0.62161400  0.54338900  1
  O  O7  1  0.41654100  0.39213800  0.33789600  1
  O  O8  1  0.41748800  0.51812600  0.41503400  1
  O  O9  1  0.95902500  0.37534300  0.87622300  1
  O  O10  1  0.08202100  0.47255300  0.88792900  1
  O  O11  1  0.89383300  0.48191600  0.92262000  1
  O  O12  1  0.97297300  0.53958800  0.86515400  1
  O  O13  1  0.02129200  0.56391500  0.09471200  1
  O  O14  1  0.06588300  0.65578900  0.04213000  1
  O  O15  1  0.08683300  0.45805600  0.04904100  1
  O  O16  1  0.17492600  0.58941700  0.06521100  1
  O  O17  1  0.06519500  0.08393400  0.62194400  1
  O  O18  1  0.93026100  0.04622300  0.51602100  1
  O  O19  1  0.14220000  0.06208700  0.52323900  1
  O  O20  1  0.03788500  0.09154700  0.45267600  1
  O  O21  1  0.04444100  0.88455400  0.44616900  1
  O  O22  1  0.97605100  0.91869500  0.34463600  1
  O  O23  1  0.96722800  0.90640800  0.54513000  1
  O  O24  1  0.86801800  0.87302400  0.40797800  1
  O  O25  1  0.44836300  0.43500800  0.66763800  1
  O  O26  1  0.38684000  0.63927000  0.23200400  1
  O  O27  1  0.68542100  0.66620000  0.25677100  1
  O  O28  1  0.66364400  0.70992400  0.72976800  1
  O  O29  1  0.69728800  0.81942400  0.52443500  1
  O  O30  1  0.82289400  0.01841700  0.57976100  1
  O  O31  1  0.12307300  0.73965400  0.41946800  1
  O  O32  1  0.88561000  0.88503300  0.98333200  1
  O  O33  1  0.58863000  0.12726200  0.60418500  1
  O  O34  1  0.35725300  0.19259300  0.63932300  1
