# generated using pymatgen
data_Zn2H34C41(N3O4)2
_symmetry_space_group_name_H-M   'P 1'
_cell_length_a   10.78489700
_cell_length_b   15.92498900
_cell_length_c   17.10111100
_cell_angle_alpha   89.11899300
_cell_angle_beta   90.00231900
_cell_angle_gamma   92.76626100
_symmetry_Int_Tables_number   1
_chemical_formula_structural   Zn2H34C41(N3O4)2
_chemical_formula_sum   'Zn2 H34 C41 N6 O8'
_cell_volume   2933.33492155
_cell_formula_units_Z   1
loop_
 _symmetry_equiv_pos_site_id
 _symmetry_equiv_pos_as_xyz
  1  'x, y, z'
loop_
 _atom_site_type_symbol
 _atom_site_label
 _atom_site_symmetry_multiplicity
 _atom_site_fract_x
 _atom_site_fract_y
 _atom_site_fract_z
 _atom_site_occupancy
  Zn  Zn1  1  0.49501000  0.41291200  0.49211200  1
  Zn  Zn2  1  0.50798500  0.60382700  0.49992600  1
  H  H1  1  0.89455000  0.39068600  0.43350100  1
  H  H2  1  0.88137100  0.38021900  0.53881800  1
  H  H3  1  0.08416800  0.37862600  0.54895600  1
  H  H4  1  0.09826900  0.38603000  0.44487200  1
  H  H5  1  0.90189200  0.53402300  0.36989100  1
  H  H6  1  0.10835300  0.51698700  0.37497200  1
  H  H7  1  0.89015700  0.60945500  0.57722300  1
  H  H8  1  0.89552400  0.50505100  0.61922300  1
  H  H9  1  0.09419300  0.62312000  0.55867100  1
  H  H10  1  0.91700700  0.62577600  0.43059000  1
  H  H11  1  0.12396500  0.61659400  0.42286200  1
  H  H12  1  0.49753500  0.39014800  0.24138900  1
  H  H13  1  0.50480000  0.39808200  0.10153100  1
  H  H14  1  0.53045200  0.35099300  0.88163800  1
  H  H15  1  0.52653600  0.35908000  0.73939700  1
  H  H16  1  0.49557800  0.65847700  0.25231100  1
  H  H17  1  0.51188900  0.61903400  0.89039800  1
  H  H18  1  0.50272000  0.66690800  0.11017800  1
  H  H19  1  0.50738400  0.62649700  0.75060000  1
  H  H20  1  0.62759900  0.27457000  0.57061700  1
  H  H21  1  0.62072500  0.12290300  0.56665400  1
  H  H22  1  0.67147600  0.88535300  0.59674600  1
  H  H23  1  0.65890200  0.73148400  0.58928500  1
  H  H24  1  0.34389200  0.28523200  0.40276000  1
  H  H25  1  0.38193700  0.89373800  0.42541600  1
  H  H26  1  0.33117100  0.13135600  0.39533400  1
  H  H27  1  0.37520500  0.74206500  0.42141300  1
  H  H28  1  0.21178400  0.42442200  0.63618500  1
  H  H29  1  0.24928700  0.39890400  0.77202600  1
  H  H30  1  0.23432600  0.43375700  0.90363200  1
  H  H31  1  0.09471400  0.48676700  0.92617200  1
  H  H32  1  0.24174600  0.54591500  0.91978100  1
  H  H33  1  0.07284100  0.62296200  0.83061000  1
  H  H34  1  0.02793600  0.64837800  0.69302100  1
  C  C1  1  0.50935500  0.49868000  0.64893700  1
  C  C2  1  0.74421800  0.50892700  0.49137400  1
  C  C3  1  0.49501900  0.51809400  0.34306000  1
  C  C4  1  0.25859000  0.50766000  0.50112500  1
  C  C5  1  0.92322000  0.41870700  0.49009500  1
  C  C6  1  0.06275300  0.41745800  0.49721800  1
  C  C7  1  0.93953800  0.55882800  0.42576900  1
  C  C8  1  0.92812200  0.54656300  0.56997300  1
  C  C9  1  0.88279000  0.50847600  0.49390000  1
  C  C10  1  0.11944900  0.50720200  0.50117200  1
  C  C11  1  0.07960000  0.55238000  0.42674700  1
  C  C12  1  0.06881100  0.55581100  0.57049100  1
  C  C13  1  0.51566700  0.49340600  0.73457200  1
  C  C14  1  0.51304900  0.56546900  0.77850300  1
  C  C15  1  0.51547300  0.56074400  0.85910000  1
  C  C16  1  0.52083500  0.48315400  0.89675400  1
  C  C17  1  0.52603500  0.41160400  0.85270300  1
  C  C18  1  0.52350600  0.41641400  0.77217500  1
  C  C19  1  0.50306000  0.45646200  0.13284200  1
  C  C20  1  0.49837700  0.45147700  0.21342500  1
  C  C21  1  0.50510100  0.53435900  0.09518700  1
  C  C22  1  0.49602100  0.52359600  0.25731900  1
  C  C23  1  0.49741600  0.60101900  0.21963000  1
  C  C24  1  0.50156900  0.60606000  0.13914400  1
  C  C25  1  0.44047600  0.77411800  0.46004600  1
  C  C26  1  0.44496800  0.86078000  0.46271500  1
  C  C27  1  0.52875100  0.90185300  0.51229200  1
  C  C28  1  0.60549700  0.85458300  0.55770600  1
  C  C29  1  0.59835400  0.76814500  0.55346800  1
  C  C30  1  0.55772500  0.15587300  0.52934300  1
  C  C31  1  0.56230200  0.24253500  0.53198800  1
  C  C32  1  0.47391300  0.11482000  0.47977200  1
  C  C33  1  0.40441900  0.24855200  0.43857400  1
  C  C34  1  0.39719000  0.16211100  0.43435900  1
  C  C35  1  0.11263500  0.53795000  0.65287100  1
  C  C36  1  0.17831200  0.46899700  0.67651500  1
  C  C37  1  0.20154300  0.45434400  0.75480200  1
  C  C38  1  0.16303000  0.50908300  0.81046200  1
  C  C39  1  0.18509200  0.49271700  0.89515400  1
  C  C40  1  0.10276500  0.57939600  0.78740800  1
  C  C41  1  0.07777600  0.59353200  0.70946300  1
  N  N1  1  0.51837200  0.47462900  0.97926400  1
  N  N2  1  0.50965600  0.54289600  0.01271800  1
  N  N3  1  0.51650400  0.72931200  0.50502600  1
  N  N4  1  0.53824700  0.99049900  0.51789100  1
  N  N5  1  0.46438400  0.02617300  0.47417400  1
  N  N6  1  0.48635800  0.28736600  0.48697100  1
  O  O1  1  0.50230900  0.42859200  0.60940800  1
  O  O2  1  0.51188100  0.57337200  0.61532500  1
  O  O3  1  0.68121700  0.43643000  0.48934200  1
  O  O4  1  0.69116800  0.58127200  0.49536200  1
  O  O5  1  0.49162300  0.44340400  0.37670000  1
  O  O6  1  0.50115900  0.58811400  0.38263700  1
  O  O7  1  0.31191500  0.43553900  0.49667500  1
  O  O8  1  0.32165400  0.58025000  0.50275600  1
