# generated using pymatgen
data_Cu3H40(C10O3)4
_symmetry_space_group_name_H-M   'P 1'
_cell_length_a   21.53569600
_cell_length_b   21.53569600
_cell_length_c   28.74022000
_cell_angle_alpha   90.00000000
_cell_angle_beta   90.00000000
_cell_angle_gamma   90.00000000
_symmetry_Int_Tables_number   1
_chemical_formula_structural   Cu3H40(C10O3)4
_chemical_formula_sum   'Cu12 H160 C160 O48'
_cell_volume   13329.31748432
_cell_formula_units_Z   4
loop_
 _symmetry_equiv_pos_site_id
 _symmetry_equiv_pos_as_xyz
  1  'x, y, z'
loop_
 _atom_site_type_symbol
 _atom_site_label
 _atom_site_symmetry_multiplicity
 _atom_site_fract_x
 _atom_site_fract_y
 _atom_site_fract_z
 _atom_site_occupancy
  Cu  Cu1  1  0.50000000  0.93928200  0.00000000  1
  Cu  Cu2  1  0.06071800  0.50000000  0.00000000  1
  Cu  Cu3  1  0.50000000  0.06071800  0.00000000  1
  Cu  Cu4  1  0.93928200  0.50000000  0.00000000  1
  Cu  Cu5  1  0.00000000  0.43928200  0.50000000  1
  Cu  Cu6  1  0.56071800  0.00000000  0.50000000  1
  Cu  Cu7  1  0.00000000  0.56071800  0.50000000  1
  Cu  Cu8  1  0.43928200  0.00000000  0.50000000  1
  Cu  Cu9  1  0.00000000  0.00000000  0.95475900  1
  Cu  Cu10  1  0.00000000  0.00000000  0.04524100  1
  Cu  Cu11  1  0.50000000  0.50000000  0.45475900  1
  Cu  Cu12  1  0.50000000  0.50000000  0.54524100  1
  H  H1  1  0.19228700  0.07117000  0.94871400  1
  H  H2  1  0.92883000  0.19228800  0.94871400  1
  H  H3  1  0.80771200  0.92883000  0.94871400  1
  H  H4  1  0.07117000  0.80771200  0.94871400  1
  H  H5  1  0.80771200  0.07117000  0.05128600  1
  H  H6  1  0.07117000  0.19228800  0.05128600  1
  H  H7  1  0.19228800  0.92883000  0.05128600  1
  H  H8  1  0.92883000  0.80771200  0.05128600  1
  H  H9  1  0.69228700  0.57117000  0.44871400  1
  H  H10  1  0.42883000  0.69228700  0.44871400  1
  H  H11  1  0.30771200  0.42883000  0.44871400  1
  H  H12  1  0.57117000  0.30771200  0.44871400  1
  H  H13  1  0.30771200  0.57117000  0.55128600  1
  H  H14  1  0.57117000  0.69228700  0.55128600  1
  H  H15  1  0.69228800  0.42883000  0.55128600  1
  H  H16  1  0.42883000  0.30771200  0.55128600  1
  H  H17  1  0.28691700  0.08628400  0.90570900  1
  H  H18  1  0.36084500  0.07144700  0.93086700  1
  H  H19  1  0.33306600  0.14805700  0.99558200  1
  H  H20  1  0.26326100  0.16612000  0.96351400  1
  H  H21  1  0.32831700  0.19460300  0.89447800  1
  H  H22  1  0.39751400  0.17934300  0.92838200  1
  H  H23  1  0.29587600  0.27479300  0.95148700  1
  H  H24  1  0.37205000  0.29136200  0.92812500  1
  H  H25  1  0.36454500  0.25916400  0.98596800  1
  H  H26  1  0.91371600  0.28691700  0.90570900  1
  H  H27  1  0.92855300  0.36084500  0.93086700  1
  H  H28  1  0.85194300  0.33306600  0.99558200  1
  H  H29  1  0.83388000  0.26326100  0.96351400  1
  H  H30  1  0.80539700  0.32831700  0.89447800  1
  H  H31  1  0.82065700  0.39751400  0.92838200  1
  H  H32  1  0.72520700  0.29587500  0.95148700  1
  H  H33  1  0.70863800  0.37205000  0.92812500  1
  H  H34  1  0.74083600  0.36454500  0.98596800  1
  H  H35  1  0.71308300  0.91371600  0.90570900  1
  H  H36  1  0.63915500  0.92855300  0.93086700  1
  H  H37  1  0.66693500  0.85194300  0.99558200  1
  H  H38  1  0.73674000  0.83388000  0.96351400  1
  H  H39  1  0.67168300  0.80539600  0.89447800  1
  H  H40  1  0.60248600  0.82065700  0.92838200  1
  H  H41  1  0.70412500  0.72520700  0.95148700  1
  H  H42  1  0.62795000  0.70863800  0.92812500  1
  H  H43  1  0.63545500  0.74083600  0.98596800  1
  H  H44  1  0.08628400  0.71308300  0.90570900  1
  H  H45  1  0.07144700  0.63915500  0.93086700  1
  H  H46  1  0.14805700  0.66693400  0.99558200  1
  H  H47  1  0.16612000  0.73673900  0.96351400  1
  H  H48  1  0.19460300  0.67168300  0.89447800  1
  H  H49  1  0.17934300  0.60248600  0.92838200  1
  H  H50  1  0.27479300  0.70412500  0.95148700  1
  H  H51  1  0.29136200  0.62795000  0.92812500  1
  H  H52  1  0.25916400  0.63545500  0.98596800  1
  H  H53  1  0.71308300  0.08628400  0.09429100  1
  H  H54  1  0.63915500  0.07144700  0.06913300  1
  H  H55  1  0.66693500  0.14805700  0.00441800  1
  H  H56  1  0.73674000  0.16612000  0.03648600  1
  H  H57  1  0.67168300  0.19460400  0.10552200  1
  H  H58  1  0.60248600  0.17934300  0.07161800  1
  H  H59  1  0.70412500  0.27479300  0.04851300  1
  H  H60  1  0.62795000  0.29136200  0.07187500  1
  H  H61  1  0.63545500  0.25916400  0.01403300  1
  H  H62  1  0.08628400  0.28691700  0.09429100  1
  H  H63  1  0.07144700  0.36084500  0.06913300  1
  H  H64  1  0.14805700  0.33306600  0.00441800  1
  H  H65  1  0.16612000  0.26326100  0.03648600  1
  H  H66  1  0.19460400  0.32831700  0.10552200  1
  H  H67  1  0.17934300  0.39751400  0.07161800  1
  H  H68  1  0.27479300  0.29587500  0.04851300  1
  H  H69  1  0.29136200  0.37205000  0.07187500  1
  H  H70  1  0.25916400  0.36454500  0.01403300  1
  H  H71  1  0.28691700  0.91371600  0.09429100  1
  H  H72  1  0.36084500  0.92855300  0.06913300  1
  H  H73  1  0.33306600  0.85194300  0.00441800  1
  H  H74  1  0.26326100  0.83388000  0.03648600  1
  H  H75  1  0.32831700  0.80539700  0.10552200  1
  H  H76  1  0.39751400  0.82065700  0.07161800  1
  H  H77  1  0.29587600  0.72520700  0.04851300  1
  H  H78  1  0.37205000  0.70863800  0.07187500  1
  H  H79  1  0.36454500  0.74083600  0.01403300  1
  H  H80  1  0.91371600  0.71308300  0.09429100  1
  H  H81  1  0.92855300  0.63915500  0.06913300  1
  H  H82  1  0.85194300  0.66693500  0.00441800  1
  H  H83  1  0.83388000  0.73674000  0.03648600  1
  H  H84  1  0.80539700  0.67168300  0.10552200  1
  H  H85  1  0.82065700  0.60248600  0.07161800  1
  H  H86  1  0.72520700  0.70412500  0.04851300  1
  H  H87  1  0.70863800  0.62795000  0.07187500  1
  H  H88  1  0.74083600  0.63545500  0.01403300  1
  H  H89  1  0.78691700  0.58628400  0.40570900  1
  H  H90  1  0.86084500  0.57144700  0.43086700  1
  H  H91  1  0.83306600  0.64805700  0.49558200  1
  H  H92  1  0.76326100  0.66612000  0.46351400  1
  H  H93  1  0.82831700  0.69460300  0.39447800  1
  H  H94  1  0.89751400  0.67934300  0.42838200  1
  H  H95  1  0.79587600  0.77479300  0.45148700  1
  H  H96  1  0.87205000  0.79136200  0.42812500  1
  H  H97  1  0.86454500  0.75916400  0.48596800  1
  H  H98  1  0.41371600  0.78691700  0.40570900  1
  H  H99  1  0.42855300  0.86084500  0.43086700  1
  H  H100  1  0.35194300  0.83306600  0.49558200  1
  H  H101  1  0.33388000  0.76326100  0.46351400  1
  H  H102  1  0.30539700  0.82831700  0.39447800  1
  H  H103  1  0.32065700  0.89751400  0.42838200  1
  H  H104  1  0.22520700  0.79587600  0.45148700  1
  H  H105  1  0.20863800  0.87205000  0.42812500  1
  H  H106  1  0.24083600  0.86454500  0.48596800  1
  H  H107  1  0.21308300  0.41371600  0.40570900  1
  H  H108  1  0.13915500  0.42855300  0.43086700  1
  H  H109  1  0.16693500  0.35194300  0.49558200  1
  H  H110  1  0.23674000  0.33388000  0.46351400  1
  H  H111  1  0.17168300  0.30539600  0.39447800  1
  H  H112  1  0.10248600  0.32065700  0.42838200  1
  H  H113  1  0.20412500  0.22520700  0.45148700  1
  H  H114  1  0.12795000  0.20863800  0.42812500  1
  H  H115  1  0.13545500  0.24083600  0.48596800  1
  H  H116  1  0.58628400  0.21308300  0.40570900  1
  H  H117  1  0.57144700  0.13915500  0.43086700  1
  H  H118  1  0.64805700  0.16693500  0.49558200  1
  H  H119  1  0.66612000  0.23673900  0.46351400  1
  H  H120  1  0.69460400  0.17168300  0.39447800  1
  H  H121  1  0.67934300  0.10248600  0.42838200  1
  H  H122  1  0.77479300  0.20412500  0.45148700  1
  H  H123  1  0.79136200  0.12795000  0.42812500  1
  H  H124  1  0.75916400  0.13545500  0.48596800  1
  H  H125  1  0.21308300  0.58628400  0.59429100  1
  H  H126  1  0.13915500  0.57144700  0.56913300  1
  H  H127  1  0.16693500  0.64805700  0.50441800  1
  H  H128  1  0.23674000  0.66612000  0.53648600  1
  H  H129  1  0.17168300  0.69460400  0.60552200  1
  H  H130  1  0.10248600  0.67934300  0.57161800  1
  H  H131  1  0.20412500  0.77479300  0.54851300  1
  H  H132  1  0.12795000  0.79136200  0.57187500  1
  H  H133  1  0.13545500  0.75916400  0.51403300  1
  H  H134  1  0.58628400  0.78691700  0.59429100  1
  H  H135  1  0.57144700  0.86084500  0.56913300  1
  H  H136  1  0.64805700  0.83306600  0.50441800  1
  H  H137  1  0.66612000  0.76326100  0.53648600  1
  H  H138  1  0.69460300  0.82831700  0.60552200  1
  H  H139  1  0.67934300  0.89751400  0.57161800  1
  H  H140  1  0.77479300  0.79587500  0.54851300  1
  H  H141  1  0.79136200  0.87205000  0.57187500  1
  H  H142  1  0.75916400  0.86454500  0.51403300  1
  H  H143  1  0.78691700  0.41371600  0.59429100  1
  H  H144  1  0.86084500  0.42855300  0.56913300  1
  H  H145  1  0.83306600  0.35194300  0.50441800  1
  H  H146  1  0.76326100  0.33388000  0.53648600  1
  H  H147  1  0.82831700  0.30539700  0.60552200  1
  H  H148  1  0.89751400  0.32065700  0.57161800  1
  H  H149  1  0.79587600  0.22520700  0.54851300  1
  H  H150  1  0.87205000  0.20863800  0.57187500  1
  H  H151  1  0.86454500  0.24083600  0.51403300  1
  H  H152  1  0.41371600  0.21308300  0.59429100  1
  H  H153  1  0.42855300  0.13915500  0.56913300  1
  H  H154  1  0.35194300  0.16693500  0.50441800  1
  H  H155  1  0.33388000  0.23673900  0.53648600  1
  H  H156  1  0.30539600  0.17168300  0.60552200  1
  H  H157  1  0.32065700  0.10248600  0.57161800  1
  H  H158  1  0.22520700  0.20412500  0.54851300  1
  H  H159  1  0.20863800  0.12795000  0.57187500  1
  H  H160  1  0.24083600  0.13545500  0.51403300  1
  C  C1  1  0.38222700  0.00000000  0.00000000  1
  C  C2  1  0.00000000  0.38222700  0.00000000  1
  C  C3  1  0.61777300  0.00000000  0.00000000  1
  C  C4  1  0.00000000  0.61777300  0.00000000  1
  C  C5  1  0.88222700  0.50000000  0.50000000  1
  C  C6  1  0.50000000  0.88222700  0.50000000  1
  C  C7  1  0.11777300  0.50000000  0.50000000  1
  C  C8  1  0.50000000  0.11777300  0.50000000  1
  C  C9  1  0.50000000  0.00000000  0.08810700  1
  C  C10  1  0.00000000  0.50000000  0.08810700  1
  C  C11  1  0.50000000  0.00000000  0.91189300  1
  C  C12  1  0.00000000  0.50000000  0.91189300  1
  C  C13  1  0.00000000  0.50000000  0.58810700  1
  C  C14  1  0.50000000  0.00000000  0.58810700  1
  C  C15  1  0.00000000  0.50000000  0.41189300  1
  C  C16  1  0.50000000  0.00000000  0.41189300  1
  C  C17  1  0.50000000  0.00000000  0.13800200  1
  C  C18  1  0.00000000  0.50000000  0.13800200  1
  C  C19  1  0.50000000  0.00000000  0.86199800  1
  C  C20  1  0.00000000  0.50000000  0.86199800  1
  C  C21  1  0.00000000  0.50000000  0.63800200  1
  C  C22  1  0.50000000  0.00000000  0.63800200  1
  C  C23  1  0.00000000  0.50000000  0.36199800  1
  C  C24  1  0.50000000  0.00000000  0.36199800  1
  C  C25  1  0.50000000  0.00000000  0.17991900  1
  C  C26  1  0.00000000  0.50000000  0.17991900  1
  C  C27  1  0.50000000  0.00000000  0.82008100  1
  C  C28  1  0.00000000  0.50000000  0.82008100  1
  C  C29  1  0.00000000  0.50000000  0.67991900  1
  C  C30  1  0.50000000  0.00000000  0.67991900  1
  C  C31  1  0.00000000  0.50000000  0.32008100  1
  C  C32  1  0.50000000  0.00000000  0.32008100  1
  C  C33  1  0.50000000  0.00000000  0.22903900  1
  C  C34  1  0.00000000  0.50000000  0.22903900  1
  C  C35  1  0.50000000  0.00000000  0.77096100  1
  C  C36  1  0.00000000  0.50000000  0.77096100  1
  C  C37  1  0.00000000  0.50000000  0.72903900  1
  C  C38  1  0.50000000  0.00000000  0.72903900  1
  C  C39  1  0.00000000  0.50000000  0.27096100  1
  C  C40  1  0.50000000  0.00000000  0.27096100  1
  C  C41  1  0.28133700  0.04063600  0.97132200  1
  C  C42  1  0.95936400  0.28133700  0.97132200  1
  C  C43  1  0.71866300  0.95936400  0.97132200  1
  C  C44  1  0.04063600  0.71866300  0.97132200  1
  C  C45  1  0.71866300  0.04063600  0.02867800  1
  C  C46  1  0.04063600  0.28133700  0.02867800  1
  C  C47  1  0.28133700  0.95936400  0.02867800  1
  C  C48  1  0.95936400  0.71866300  0.02867800  1
  C  C49  1  0.78133700  0.54063600  0.47132200  1
  C  C50  1  0.45936400  0.78133700  0.47132200  1
  C  C51  1  0.21866300  0.45936400  0.47132200  1
  C  C52  1  0.54063600  0.21866300  0.47132200  1
  C  C53  1  0.21866300  0.54063600  0.52867800  1
  C  C54  1  0.54063600  0.78133700  0.52867800  1
  C  C55  1  0.78133700  0.45936400  0.52867800  1
  C  C56  1  0.45936400  0.21866300  0.52867800  1
  C  C57  1  0.21730100  0.03962300  0.97115800  1
  C  C58  1  0.96037700  0.21730100  0.97115800  1
  C  C59  1  0.78269900  0.96037700  0.97115800  1
  C  C60  1  0.03962300  0.78269900  0.97115800  1
  C  C61  1  0.78269900  0.03962300  0.02884200  1
  C  C62  1  0.03962300  0.21730100  0.02884200  1
  C  C63  1  0.21730100  0.96037700  0.02884200  1
  C  C64  1  0.96037700  0.78269900  0.02884200  1
  C  C65  1  0.71730100  0.53962300  0.47115800  1
  C  C66  1  0.46037700  0.71730100  0.47115800  1
  C  C67  1  0.28269900  0.46037700  0.47115800  1
  C  C68  1  0.53962300  0.28269900  0.47115800  1
  C  C69  1  0.28269900  0.53962300  0.52884200  1
  C  C70  1  0.53962300  0.71730100  0.52884200  1
  C  C71  1  0.71730100  0.46037700  0.52884200  1
  C  C72  1  0.46037700  0.28269900  0.52884200  1
  C  C73  1  0.18522400  0.00000000  0.00000000  1
  C  C74  1  0.00000000  0.18522400  0.00000000  1
  C  C75  1  0.81477600  0.00000000  0.00000000  1
  C  C76  1  0.00000000  0.81477600  0.00000000  1
  C  C77  1  0.68522400  0.50000000  0.50000000  1
  C  C78  1  0.50000000  0.68522400  0.50000000  1
  C  C79  1  0.31477600  0.50000000  0.50000000  1
  C  C80  1  0.50000000  0.31477600  0.50000000  1
  C  C81  1  0.31408200  0.00000000  0.00000000  1
  C  C82  1  0.00000000  0.31408200  0.00000000  1
  C  C83  1  0.68591800  0.00000000  0.00000000  1
  C  C84  1  0.00000000  0.68591800  0.00000000  1
  C  C85  1  0.81408200  0.50000000  0.50000000  1
  C  C86  1  0.50000000  0.81408200  0.50000000  1
  C  C87  1  0.18591800  0.50000000  0.50000000  1
  C  C88  1  0.50000000  0.18591800  0.50000000  1
  C  C89  1  0.00000000  0.88260600  0.00000000  1
  C  C90  1  0.11739400  0.00000000  0.00000000  1
  C  C91  1  0.00000000  0.11739400  0.00000000  1
  C  C92  1  0.88260600  0.00000000  0.00000000  1
  C  C93  1  0.50000000  0.38260600  0.50000000  1
  C  C94  1  0.61739400  0.50000000  0.50000000  1
  C  C95  1  0.50000000  0.61739400  0.50000000  1
  C  C96  1  0.38260600  0.50000000  0.50000000  1
  C  C97  1  0.31268600  0.08527700  0.93910100  1
  C  C98  1  0.31189400  0.14972000  0.96045500  1
  C  C99  1  0.34827100  0.19426100  0.93004500  1
  C  C100  1  0.34490900  0.25913500  0.95029800  1
  C  C101  1  0.91472300  0.31268600  0.93910100  1
  C  C102  1  0.85028000  0.31189400  0.96045500  1
  C  C103  1  0.80573900  0.34827100  0.93004500  1
  C  C104  1  0.74086500  0.34490900  0.95029800  1
  C  C105  1  0.68731400  0.91472300  0.93910100  1
  C  C106  1  0.68810600  0.85028000  0.96045500  1
  C  C107  1  0.65172900  0.80573900  0.93004500  1
  C  C108  1  0.65509100  0.74086500  0.95029800  1
  C  C109  1  0.08527700  0.68731400  0.93910100  1
  C  C110  1  0.14972000  0.68810600  0.96045500  1
  C  C111  1  0.19426100  0.65172900  0.93004500  1
  C  C112  1  0.25913500  0.65509100  0.95029800  1
  C  C113  1  0.68731400  0.08527700  0.06090000  1
  C  C114  1  0.68810600  0.14972000  0.03954600  1
  C  C115  1  0.65172900  0.19426100  0.06995500  1
  C  C116  1  0.65509100  0.25913500  0.04970200  1
  C  C117  1  0.08527700  0.31268600  0.06090000  1
  C  C118  1  0.14972000  0.31189400  0.03954600  1
  C  C119  1  0.19426100  0.34827100  0.06995500  1
  C  C120  1  0.25913500  0.34490900  0.04970200  1
  C  C121  1  0.31268600  0.91472300  0.06090000  1
  C  C122  1  0.31189400  0.85028000  0.03954600  1
  C  C123  1  0.34827100  0.80573900  0.06995500  1
  C  C124  1  0.34490900  0.74086500  0.04970200  1
  C  C125  1  0.91472300  0.68731400  0.06090000  1
  C  C126  1  0.85028000  0.68810600  0.03954600  1
  C  C127  1  0.80573900  0.65172900  0.06995500  1
  C  C128  1  0.74086500  0.65509100  0.04970200  1
  C  C129  1  0.81268600  0.58527700  0.43910100  1
  C  C130  1  0.81189400  0.64972000  0.46045500  1
  C  C131  1  0.84827100  0.69426100  0.43004500  1
  C  C132  1  0.84490900  0.75913500  0.45029800  1
  C  C133  1  0.41472300  0.81268600  0.43910100  1
  C  C134  1  0.35028000  0.81189400  0.46045500  1
  C  C135  1  0.30573900  0.84827100  0.43004500  1
  C  C136  1  0.24086500  0.84490900  0.45029800  1
  C  C137  1  0.18731400  0.41472300  0.43910100  1
  C  C138  1  0.18810600  0.35028000  0.46045500  1
  C  C139  1  0.15172900  0.30573900  0.43004500  1
  C  C140  1  0.15509100  0.24086500  0.45029800  1
  C  C141  1  0.58527700  0.18731400  0.43910100  1
  C  C142  1  0.64972000  0.18810600  0.46045500  1
  C  C143  1  0.69426100  0.15172900  0.43004500  1
  C  C144  1  0.75913500  0.15509100  0.45029800  1
  C  C145  1  0.18731400  0.58527700  0.56090000  1
  C  C146  1  0.18810600  0.64972000  0.53954600  1
  C  C147  1  0.15172900  0.69426100  0.56995500  1
  C  C148  1  0.15509100  0.75913500  0.54970200  1
  C  C149  1  0.58527700  0.81268600  0.56090000  1
  C  C150  1  0.64972000  0.81189400  0.53954600  1
  C  C151  1  0.69426100  0.84827100  0.56995500  1
  C  C152  1  0.75913500  0.84490900  0.54970200  1
  C  C153  1  0.81268600  0.41472300  0.56090000  1
  C  C154  1  0.81189400  0.35028000  0.53954600  1
  C  C155  1  0.84827100  0.30573900  0.56995500  1
  C  C156  1  0.84490900  0.24086500  0.54970200  1
  C  C157  1  0.41472300  0.18731400  0.56090000  1
  C  C158  1  0.35028000  0.18810600  0.53954600  1
  C  C159  1  0.30573900  0.15172900  0.56995500  1
  C  C160  1  0.24086500  0.15509100  0.54970200  1
  O  O1  1  0.41136200  0.94869800  0.98739200  1
  O  O2  1  0.05130200  0.41136200  0.98739200  1
  O  O3  1  0.58863800  0.05130200  0.98739200  1
  O  O4  1  0.94869800  0.58863800  0.98739200  1
  O  O5  1  0.58863800  0.94869800  0.01260800  1
  O  O6  1  0.94869800  0.41136200  0.01260800  1
  O  O7  1  0.41136200  0.05130200  0.01260800  1
  O  O8  1  0.05130200  0.58863800  0.01260800  1
  O  O9  1  0.91136200  0.44869800  0.48739200  1
  O  O10  1  0.55130200  0.91136200  0.48739200  1
  O  O11  1  0.08863800  0.55130200  0.48739200  1
  O  O12  1  0.44869800  0.08863800  0.48739200  1
  O  O13  1  0.08863800  0.44869800  0.51260800  1
  O  O14  1  0.44869800  0.91136200  0.51260800  1
  O  O15  1  0.91136200  0.55130200  0.51260800  1
  O  O16  1  0.55130200  0.08863800  0.51260800  1
  O  O17  1  0.48317900  0.94866900  0.06641400  1
  O  O18  1  0.05133100  0.48317900  0.06641400  1
  O  O19  1  0.51682100  0.05133100  0.06641400  1
  O  O20  1  0.94866900  0.51682100  0.06641400  1
  O  O21  1  0.51682100  0.94866900  0.93358600  1
  O  O22  1  0.94866900  0.48317900  0.93358600  1
  O  O23  1  0.48317900  0.05133100  0.93358600  1
  O  O24  1  0.05133100  0.51682100  0.93358600  1
  O  O25  1  0.98317900  0.44866900  0.56641400  1
  O  O26  1  0.55133100  0.98317900  0.56641400  1
  O  O27  1  0.01682100  0.55133100  0.56641400  1
  O  O28  1  0.44866900  0.01682100  0.56641400  1
  O  O29  1  0.01682100  0.44866900  0.43358600  1
  O  O30  1  0.44866900  0.98317900  0.43358600  1
  O  O31  1  0.98317900  0.55133100  0.43358600  1
  O  O32  1  0.55133100  0.01682100  0.43358600  1
  O  O33  1  0.01866700  0.91166500  0.96194600  1
  O  O34  1  0.08833500  0.01866700  0.96194500  1
  O  O35  1  0.98133300  0.08833500  0.96194600  1
  O  O36  1  0.91166500  0.98133300  0.96194600  1
  O  O37  1  0.98133300  0.91166500  0.03805500  1
  O  O38  1  0.91166500  0.01866700  0.03805500  1
  O  O39  1  0.01866700  0.08833500  0.03805500  1
  O  O40  1  0.08833500  0.98133300  0.03805500  1
  O  O41  1  0.51866700  0.41166500  0.46194600  1
  O  O42  1  0.58833500  0.51866700  0.46194600  1
  O  O43  1  0.48133300  0.58833500  0.46194600  1
  O  O44  1  0.41166500  0.48133300  0.46194600  1
  O  O45  1  0.48133300  0.41166500  0.53805500  1
  O  O46  1  0.41166500  0.51866700  0.53805500  1
  O  O47  1  0.51866700  0.58833500  0.53805500  1
  O  O48  1  0.58833500  0.48133300  0.53805500  1
