# Generated by REPEAT Assigner based on pymatgen
data_DB0-m3_o6_o16_f0_pcu.sym.63
_audit_creation_date              2022-05-24
_audit_creation_method            REPEAT_Assigner
_cell_length_a                    13.669488
_cell_length_b                    14.980537
_cell_length_c                    16.135766
_cell_angle_alpha                 90.007859
_cell_angle_beta                  89.983448
_cell_angle_gamma                 73.770863
_cell_volume                      3172.554210
_symmetry_space_group_name_H-M    P1
_symmetry_Int_Tables_number       1
loop_
    _symmetry_equiv_pos_site_id
    _symmetry_equiv_pos_as_xyz
    1  x,y,z
loop_
    _atom_site_type_symbol
    _atom_site_label
    _atom_site_fract_x
    _atom_site_fract_y
    _atom_site_fract_z
    _atom_type_partial_charge
    O   O1   0.484734  0.428879  0.655485  -0.678742
    O   O2   0.476616  0.584848  0.655432  -0.652186
    C   C1   0.478872  0.507292  0.693947  0.907657
    O   O3   0.642104  0.392980  0.536638  -0.677840
    O   O4   0.634977  0.548292  0.537958  -0.631910
    C   C2   0.686740  0.460144  0.537518  0.703887
    Zn  Zn1  0.491308  0.402683  0.532112  1.092246
    Zn  Zn2  0.482662  0.607806  0.532066  1.056301
    O   O5   0.496198  0.425829  0.408691  -0.635849
    O   O6   0.490233  0.581471  0.408709  -0.637376
    O   O7   0.338823  0.461983  0.527379  -0.646582
    O   O8   0.331916  0.617733  0.526649  -0.648299
    C   C3   0.494936  0.503245  0.370241  0.834624
    C   C4   0.287775  0.550338  0.524995  0.653225
    C   C5   0.025537  0.678471  0.460693  -0.141024
    H   H1   0.166754  0.710355  0.466350  0.130675
    H   H2   0.991584  0.744752  0.431967  0.126048
    C   C6   0.176996  0.574686  0.513652  0.063401
    C   C7   0.844750  0.352818  0.585537  -0.089793
    C   C8   0.946450  0.329720  0.603818  -0.147295
    C   C9   0.004087  0.387958  0.582598  -0.149564
    C   C10  0.961823  0.469742  0.538410  0.016462
    C   C11  0.858841  0.491427  0.517663  0.192594
    C   C12  0.019192  0.530916  0.515618  0.081534
    C   C13  0.971442  0.614053  0.475503  0.029152
    C   C14  0.871042  0.630771  0.449088  0.092451
    C   C15  0.817975  0.567794  0.467667  -0.370071
    C   C16  0.123734  0.511122  0.531366  -0.210701
    C   C17  0.126652  0.659573  0.480917  -0.199087
    C   C18  0.798941  0.434593  0.544696  -0.120261
    H   H3   0.167589  0.446121  0.556685  0.112941
    H   H4   0.800651  0.307752  0.607060  0.123478
    H   H5   0.081774  0.365845  0.603188  0.124254
    H   H6   0.980948  0.266603  0.637821  0.104086
    H   H7   0.744136  0.578754  0.439782  0.187340
    H   H8   0.431075  0.387238  0.954411  0.152343
    C   C19  0.459142  0.435511  0.074519  0.168791
    C   C20  0.490965  0.502374  0.117659  -0.011195
    C   C21  0.518340  0.571567  0.075206  -0.274314
    H   H9   0.542144  0.623641  0.109835  0.171568
    C   C22  0.514235  0.575272  0.989723  0.211062
    C   C23  0.482479  0.508378  0.946568  -0.041575
    C   C24  0.455020  0.439230  0.989033  -0.229666
    C   C25  0.493801  0.502654  0.206662  0.073243
    C   C26  0.479732  0.508055  0.857549  0.098985
    C   C27  0.478475  0.507619  0.782869  -0.359216
    C   C28  0.495184  0.503012  0.281333  -0.313976
    H   H10  0.603094  0.889322  0.618062  0.145699
    C   C29  0.556091  0.031233  0.579913  -0.223956
    H   H11  0.610669  0.051268  0.618931  0.173211
    C   C30  0.490540  0.096472  0.530861  0.254188
    C   C31  0.420725  0.070990  0.481272  -0.249416
    H   H12  0.369938  0.122955  0.442963  0.184937
    C   C32  0.416261  0.979941  0.480093  0.109803
    C   C33  0.482137  0.914484  0.529847  0.017139
    C   C34  0.551768  0.940451  0.579383  -0.064800
    C   C35  0.494059  0.191315  0.531764  0.104516
    C   C36  0.479582  0.819267  0.531140  0.211115
    N   N1   0.478392  0.742346  0.531985  -0.182093
    N   N2   0.495833  0.268081  0.532319  -0.154358
    C   C37  0.428085  0.359829  0.118436  -0.192693
    C   C38  0.521531  0.282590  0.143479  0.117805
    C   C39  0.488828  0.204497  0.184669  0.233595
    C   C40  0.581849  0.127425  0.210014  -0.251705
    H   H13  0.381397  0.330312  0.076043  0.036114
    H   H14  0.380654  0.387593  0.173419  0.055345
    H   H15  0.568855  0.309582  0.187251  -0.015253
    H   H16  0.567080  0.255599  0.087369  -0.026969
    H   H17  0.442620  0.176221  0.140773  -0.047036
    H   H18  0.442713  0.231447  0.240522  -0.054016
    H   H19  0.628321  0.099717  0.154520  0.056439
    H   H20  0.557097  0.070682  0.239876  0.027286
    H   H21  0.628184  0.154727  0.254548  0.044208
    C   C41  0.544879  0.651183  0.945844  -0.246789
    C   C42  0.451101  0.728318  0.921318  0.142503
    C   C43  0.483192  0.806560  0.879823  0.211513
    C   C44  0.389766  0.883503  0.855062  -0.244749
    H   H22  0.592002  0.623717  0.890634  0.072508
    H   H23  0.591715  0.680666  0.988130  0.048636
    H   H24  0.406046  0.755179  0.977701  -0.040106
    H   H25  0.403465  0.701244  0.877891  -0.011800
    H   H26  0.528768  0.779762  0.823675  -0.048363
    H   H27  0.529744  0.834885  0.923370  -0.046645
    H   H28  0.343075  0.856134  0.810894  0.040479
    H   H29  0.414029  0.940376  0.824960  0.039694
    H   H30  0.343834  0.911044  0.910859  0.046585
    C   C45  0.339609  0.954402  0.425793  -0.140119
    C   C46  0.389690  0.909289  0.346367  0.016093
    C   C47  0.310412  0.886718  0.290645  0.115216
    C   C48  0.360383  0.840431  0.211872  -0.235219
    H   H31  0.279080  0.018280  0.409303  0.053031
    H   H32  0.302924  0.907423  0.458910  0.064978
    H   H33  0.449776  0.844409  0.360762  0.018369
    H   H34  0.424561  0.958103  0.313976  0.027398
    H   H35  0.251196  0.951647  0.274428  -0.014855
    H   H36  0.274391  0.838937  0.323334  0.006463
    H   H37  0.396859  0.887581  0.178758  0.064298
    H   H38  0.301702  0.824931  0.171320  0.064672
    H   H39  0.418705  0.774621  0.227276  0.060512
    C   C49  0.816598  0.714145  0.398620  -0.107238
    C   C50  0.851134  0.701920  0.308699  0.086893
    C   C51  0.793080  0.785554  0.258428  0.265961
    C   C52  0.826975  0.773409  0.168690  -0.277553
    H   H40  0.826067  0.779344  0.425299  0.000774
    H   H41  0.733599  0.721828  0.399851  0.031085
    H   H42  0.835565  0.638368  0.283537  -0.014811
    H   H43  0.933837  0.694519  0.303932  -0.016926
    H   H44  0.808209  0.849308  0.283570  -0.063229
    H   H45  0.710226  0.792597  0.261790  -0.078544
    H   H46  0.909602  0.767145  0.164482  0.048904
    H   H47  0.783997  0.834775  0.132497  0.057414
    H   H48  0.811777  0.709996  0.142837  0.052032
