# generated using pymatgen
data_FeH12(C13O4)2
_symmetry_space_group_name_H-M   'P 1'
_cell_length_a   13.26659100
_cell_length_b   14.17424200
_cell_length_c   11.47445700
_cell_angle_alpha   95.40683000
_cell_angle_beta   101.67710300
_cell_angle_gamma   101.22488500
_symmetry_Int_Tables_number   1
_chemical_formula_structural   FeH12(C13O4)2
_chemical_formula_sum   'Fe2 H24 C52 O16'
_cell_volume   2052.47155408
_cell_formula_units_Z   2
loop_
 _symmetry_equiv_pos_site_id
 _symmetry_equiv_pos_as_xyz
  1  'x, y, z'
loop_
 _atom_site_type_symbol
 _atom_site_label
 _atom_site_symmetry_multiplicity
 _atom_site_fract_x
 _atom_site_fract_y
 _atom_site_fract_z
 _atom_site_occupancy
  Fe  Fe1  1  0.48223000  0.98460500  0.23647300  1
  Fe  Fe2  1  0.47822400  0.99118000  0.75246400  1
  H  H1  1  0.89885000  0.98701500  0.68043500  1
  H  H2  1  0.75438600  0.98365500  0.76625400  1
  H  H3  1  0.21160000  0.02654300  0.22883400  1
  H  H4  1  0.06081600  0.02189300  0.31288700  1
  H  H5  1  0.87955100  0.00965900  0.29229000  1
  H  H6  1  0.74012000  0.61103300  0.99576200  1
  H  H7  1  0.59447500  0.63631800  0.08888000  1
  H  H8  1  0.41270000  0.60031800  0.96684900  1
  H  H9  1  0.70490600  0.55320400  0.77958700  1
  H  H10  1  0.37691400  0.54029000  0.75110900  1
  H  H11  1  0.52442700  0.36251200  0.74007500  1
  H  H12  1  0.52201900  0.70310500  0.69026300  1
  H  H13  1  0.48022000  0.28191600  0.30626000  1
  H  H14  1  0.49399900  0.62599200  0.25881100  1
  H  H15  1  0.31291800  0.43933400  0.21622700  1
  H  H16  1  0.63950500  0.44185900  0.25029500  1
  H  H17  1  0.27879500  0.37967400  0.00067500  1
  H  H18  1  0.42422300  0.34852600  0.91060900  1
  H  H19  1  0.60488400  0.38085100  0.03496500  1
  H  H20  1  0.07817400  0.81282300  0.68027500  1
  H  H21  1  0.94971400  0.84070500  0.63891200  1
  H  H22  1  0.02864600  0.83499400  0.52930600  1
  H  H23  1  0.03904400  0.00969200  0.60842800  1
  H  H24  1  0.15803100  0.97077100  0.62877100  1
  C  C1  1  0.20186700  0.00980700  0.86955800  1
  C  C2  1  0.10099600  0.99296400  0.79472200  1
  C  C3  1  0.01426300  0.99456300  0.84656100  1
  C  C4  1  0.91441200  0.98945500  0.77653800  1
  C  C5  1  0.82911900  0.98868300  0.82721200  1
  C  C6  1  0.21295700  0.01295700  0.99294700  1
  C  C7  1  0.12554800  0.00961100  0.04325600  1
  C  C8  1  0.02676800  0.00255600  0.97024800  1
  C  C9  1  0.93989700  0.00193400  0.02133100  1
  C  C10  1  0.84049700  0.99443900  0.95025100  1
  C  C11  1  0.75334700  0.99096000  0.00178400  1
  C  C12  1  0.13656100  0.01772800  0.16697800  1
  C  C13  1  0.05040200  0.01614200  0.21639100  1
  C  C14  1  0.95215500  0.00776300  0.14402900  1
  C  C15  1  0.86670400  0.00508200  0.19574800  1
  C  C16  1  0.76635000  0.99555900  0.12607100  1
  C  C17  1  0.67798800  0.99189800  0.18769800  1
  C  C18  1  0.49906800  0.81008700  0.32161400  1
  C  C19  1  0.31752300  0.02039800  0.07031400  1
  C  C20  1  0.47695700  0.13244700  0.40713100  1
  C  C21  1  0.51071900  0.85057300  0.58616000  1
  C  C22  1  0.64813500  0.97497300  0.92321800  1
  C  C23  1  0.50518600  0.17562300  0.67655400  1
  C  C24  1  0.29682400  0.02398800  0.81918100  1
  C  C25  1  0.66028000  0.59499900  0.94210800  1
  C  C26  1  0.50392300  0.25104800  0.59527100  1
  C  C27  1  0.57857800  0.60931100  0.99427500  1
  C  C28  1  0.47670700  0.58896500  0.92587500  1
  C  C29  1  0.64041200  0.56193300  0.82105100  1
  C  C30  1  0.53865300  0.54221700  0.75222000  1
  C  C31  1  0.45654200  0.55463800  0.80507800  1
  C  C32  1  0.51587000  0.34694500  0.64445600  1
  C  C33  1  0.51327400  0.42091100  0.57266200  1
  C  C34  1  0.51976000  0.51600500  0.62188300  1
  C  C35  1  0.51193800  0.58795200  0.54790400  1
  C  C36  1  0.51411400  0.68207600  0.59562200  1
  C  C37  1  0.50856000  0.75468100  0.52468200  1
  C  C38  1  0.49202100  0.23012800  0.47146600  1
  C  C39  1  0.49193700  0.30363300  0.40142100  1
  C  C40  1  0.50116000  0.39901300  0.45012500  1
  C  C41  1  0.49636500  0.47152100  0.37654100  1
  C  C42  1  0.50227300  0.56649000  0.42570200  1
  C  C43  1  0.49976100  0.64055600  0.35407600  1
  C  C44  1  0.37744200  0.42819800  0.17606100  1
  C  C45  1  0.47851000  0.44550000  0.24629800  1
  C  C46  1  0.56051100  0.42960800  0.19517100  1
  C  C47  1  0.35814200  0.39400900  0.05537200  1
  C  C48  1  0.43970800  0.37638700  0.00492200  1
  C  C49  1  0.50321000  0.73487600  0.40233600  1
  C  C50  1  0.54095900  0.39464800  0.07462500  1
  C  C51  1  0.08436500  0.96356900  0.66046100  1
  C  C52  1  0.03126100  0.85647600  0.62551800  1
  O  O1  1  0.58080200  0.98544900  0.12801500  1
  O  O2  1  0.52223600  0.79577300  0.21640200  1
  O  O3  1  0.69680100  0.99597500  0.30504000  1
  O  O4  1  0.47100100  0.89090700  0.35321200  1
  O  O5  1  0.33571600  0.94963700  0.13236600  1
  O  O6  1  0.39242400  0.09816400  0.07938800  1
  O  O7  1  0.53686600  0.11724000  0.33219800  1
  O  O8  1  0.39124600  0.06699100  0.40411800  1
  O  O9  1  0.44877600  0.85716600  0.66118600  1
  O  O10  1  0.58366600  0.92608500  0.58041700  1
  O  O11  1  0.61815300  0.04495500  0.86708200  1
  O  O12  1  0.58658600  0.88781000  0.90145600  1
  O  O13  1  0.30738800  0.08559900  0.74181400  1
  O  O14  1  0.48114600  0.08299600  0.63272500  1
  O  O15  1  0.37004900  0.97461700  0.84959900  1
  O  O16  1  0.52539200  0.20097300  0.79331300  1
