# generated using pymatgen
data_ZnH32C42N7O24
_symmetry_space_group_name_H-M   'P 1'
_cell_length_a   27.67266800
_cell_length_b   27.18701400
_cell_length_c   18.13066800
_cell_angle_alpha   90.00000000
_cell_angle_beta   90.00000000
_cell_angle_gamma   90.00000000
_symmetry_Int_Tables_number   1
_chemical_formula_structural   ZnH32C42N7O24
_chemical_formula_sum   'Zn4 H128 C168 N28 O96'
_cell_volume   13640.37622086
_cell_formula_units_Z   4
loop_
 _symmetry_equiv_pos_site_id
 _symmetry_equiv_pos_as_xyz
  1  'x, y, z'
loop_
 _atom_site_type_symbol
 _atom_site_label
 _atom_site_symmetry_multiplicity
 _atom_site_fract_x
 _atom_site_fract_y
 _atom_site_fract_z
 _atom_site_occupancy
  Zn  Zn1  1  0.00000000  0.50000000  0.58361000  1
  Zn  Zn2  1  0.00000000  0.50000000  0.41639000  1
  Zn  Zn3  1  0.50000000  0.00000000  0.58361000  1
  Zn  Zn4  1  0.50000000  0.00000000  0.41639000  1
  H  H1  1  0.99705700  0.42226200  0.16336200  1
  H  H2  1  0.99329200  0.29832300  0.31848900  1
  H  H3  1  0.92561600  0.76479800  0.28452300  1
  H  H4  1  0.90664600  0.81253300  0.34787900  1
  H  H5  1  0.27744800  0.37514900  0.70669400  1
  H  H6  1  0.27240000  0.44149900  0.70249800  1
  H  H7  1  0.31588700  0.40985300  0.64477700  1
  H  H8  1  0.36187800  0.72367500  0.70078200  1
  H  H9  1  0.42561500  0.73520300  0.71547700  1
  H  H10  1  0.40664600  0.68746700  0.65212200  1
  H  H11  1  0.77744900  0.12485100  0.29330600  1
  H  H12  1  0.77240000  0.05850100  0.29750300  1
  H  H13  1  0.93677900  0.31889300  0.35841800  1
  H  H14  1  0.81588700  0.09014600  0.35522300  1
  H  H15  1  0.63812200  0.27632600  0.70078100  1
  H  H16  1  0.57438500  0.26479800  0.71547700  1
  H  H17  1  0.59335400  0.31253300  0.65212100  1
  H  H18  1  0.22255200  0.87514900  0.29330600  1
  H  H19  1  0.22760000  0.94149900  0.29750200  1
  H  H20  1  0.18411400  0.90985300  0.35522300  1
  H  H21  1  0.63812200  0.72367500  0.29921800  1
  H  H22  1  0.57438500  0.73520300  0.28452300  1
  H  H23  1  0.59335400  0.68746700  0.34787800  1
  H  H24  1  0.99342100  0.65831500  0.60550700  1
  H  H25  1  0.22255200  0.12485100  0.70669400  1
  H  H26  1  0.22760000  0.05850000  0.70249700  1
  H  H27  1  0.18411300  0.09014600  0.64477700  1
  H  H28  1  0.36187800  0.27632600  0.29921900  1
  H  H29  1  0.42561600  0.26479800  0.28452300  1
  H  H30  1  0.40664600  0.31253300  0.34787900  1
  H  H31  1  0.77744800  0.87514900  0.70669400  1
  H  H32  1  0.77240000  0.94149900  0.70249800  1
  H  H33  1  0.81588700  0.90985400  0.64477700  1
  H  H34  1  0.99329100  0.70167700  0.68151100  1
  H  H35  1  0.93677900  0.68110700  0.64158200  1
  H  H36  1  0.00657900  0.65831500  0.39449300  1
  H  H37  1  0.00670900  0.70167700  0.31848900  1
  H  H38  1  0.06322100  0.68110700  0.35841800  1
  H  H39  1  0.00657900  0.34168500  0.60550700  1
  H  H40  1  0.00670800  0.29832300  0.68151100  1
  H  H41  1  0.99705700  0.57773800  0.83663800  1
  H  H42  1  0.06322100  0.31889300  0.64158200  1
  H  H43  1  0.49342100  0.84168500  0.39449300  1
  H  H44  1  0.49329200  0.79832300  0.31848900  1
  H  H45  1  0.43677900  0.81889300  0.35841800  1
  H  H46  1  0.49342100  0.15831500  0.60550700  1
  H  H47  1  0.49329100  0.20167700  0.68151100  1
  H  H48  1  0.43677900  0.18110700  0.64158200  1
  H  H49  1  0.50657900  0.15831500  0.39449300  1
  H  H50  1  0.50670900  0.20167700  0.31848900  1
  H  H51  1  0.56322100  0.18110700  0.35841800  1
  H  H52  1  0.00294300  0.57773800  0.16336200  1
  H  H53  1  0.50657900  0.84168500  0.60550700  1
  H  H54  1  0.50670800  0.79832300  0.68151100  1
  H  H55  1  0.56322100  0.81889300  0.64158200  1
  H  H56  1  0.92849300  0.39315700  0.77201700  1
  H  H57  1  0.92875500  0.32743400  0.75485100  1
  H  H58  1  0.87788200  0.35630300  0.80016100  1
  H  H59  1  0.13693800  0.50148200  0.29490000  1
  H  H60  1  0.17732800  0.53426500  0.23348900  1
  H  H61  1  0.11254200  0.53962900  0.22202300  1
  H  H62  1  0.07150700  0.60684300  0.77201700  1
  H  H63  1  0.00294300  0.42226200  0.83663800  1
  H  H64  1  0.07124400  0.67256600  0.75485100  1
  H  H65  1  0.12211700  0.64369800  0.80016100  1
  H  H66  1  0.86306300  0.49851800  0.29489900  1
  H  H67  1  0.82267200  0.46573400  0.23348900  1
  H  H68  1  0.88745900  0.46037100  0.22202300  1
  H  H69  1  0.07150700  0.39315700  0.22798300  1
  H  H70  1  0.07124500  0.32743400  0.24514900  1
  H  H71  1  0.12211800  0.35630300  0.19983900  1
  H  H72  1  0.86306200  0.50148200  0.70510000  1
  H  H73  1  0.82267200  0.53426500  0.76651100  1
  H  H74  1  0.49705700  0.92226200  0.16336200  1
  H  H75  1  0.88745800  0.53962900  0.77797700  1
  H  H76  1  0.92849300  0.60684300  0.22798300  1
  H  H77  1  0.92875600  0.67256700  0.24514900  1
  H  H78  1  0.87788300  0.64369800  0.19983900  1
  H  H79  1  0.13693700  0.49851800  0.70510100  1
  H  H80  1  0.17732800  0.46573400  0.76651100  1
  H  H81  1  0.11254200  0.46037100  0.77797700  1
  H  H82  1  0.42849300  0.89315700  0.77201700  1
  H  H83  1  0.42875500  0.82743400  0.75485100  1
  H  H84  1  0.37788200  0.85630300  0.80016100  1
  H  H85  1  0.49705700  0.07773800  0.83663800  1
  H  H86  1  0.63693800  0.00148200  0.29490000  1
  H  H87  1  0.67732800  0.03426500  0.23348900  1
  H  H88  1  0.61254200  0.03962900  0.22202300  1
  H  H89  1  0.57150700  0.10684300  0.77201700  1
  H  H90  1  0.57124400  0.17256600  0.75485100  1
  H  H91  1  0.62211700  0.14369800  0.80016100  1
  H  H92  1  0.36306300  0.99851800  0.29489900  1
  H  H93  1  0.32267200  0.96573400  0.23348900  1
  H  H94  1  0.38745900  0.96037100  0.22202300  1
  H  H95  1  0.57150700  0.89315700  0.22798300  1
  H  H96  1  0.50294300  0.07773800  0.16336200  1
  H  H97  1  0.57124500  0.82743400  0.24514900  1
  H  H98  1  0.62211800  0.85630300  0.19983900  1
  H  H99  1  0.36306200  0.00148200  0.70510000  1
  H  H100  1  0.32267200  0.03426500  0.76651100  1
  H  H101  1  0.38745800  0.03962900  0.77797700  1
  H  H102  1  0.42849300  0.10684300  0.22798300  1
  H  H103  1  0.42875600  0.17256600  0.24514900  1
  H  H104  1  0.37788300  0.14369800  0.19983900  1
  H  H105  1  0.63693700  0.99851800  0.70510100  1
  H  H106  1  0.67732800  0.96573400  0.76651100  1
  H  H107  1  0.50294300  0.92226200  0.83663800  1
  H  H108  1  0.61254200  0.96037100  0.77797700  1
  H  H109  1  0.86187800  0.22367500  0.70078200  1
  H  H110  1  0.92561500  0.23520300  0.71547700  1
  H  H111  1  0.90664600  0.18746700  0.65212200  1
  H  H112  1  0.27744900  0.62485100  0.29330600  1
  H  H113  1  0.27240000  0.55850000  0.29750300  1
  H  H114  1  0.31588700  0.59014600  0.35522300  1
  H  H115  1  0.13812200  0.77632600  0.70078100  1
  H  H116  1  0.07438400  0.76479800  0.71547700  1
  H  H117  1  0.09335400  0.81253300  0.65212100  1
  H  H118  1  0.99342100  0.34168500  0.39449300  1
  H  H119  1  0.72255200  0.37514900  0.29330600  1
  H  H120  1  0.72760000  0.44149900  0.29750200  1
  H  H121  1  0.68411400  0.40985400  0.35522300  1
  H  H122  1  0.13812200  0.22367500  0.29921800  1
  H  H123  1  0.07438500  0.23520200  0.28452300  1
  H  H124  1  0.09335400  0.18746700  0.34787800  1
  H  H125  1  0.72255100  0.62485100  0.70669400  1
  H  H126  1  0.72760000  0.55850100  0.70249700  1
  H  H127  1  0.68411300  0.59014600  0.64477700  1
  H  H128  1  0.86187900  0.77632600  0.29921900  1
  C  C1  1  0.06771400  0.43220900  0.50002600  1
  C  C2  1  0.99703500  0.54361400  0.80653600  1
  C  C3  1  0.47416500  0.17008600  0.65615500  1
  C  C4  1  0.52742200  0.12845500  0.29060400  1
  C  C5  1  0.52583600  0.17008600  0.34384500  1
  C  C6  1  0.52742200  0.87154500  0.70939600  1
  C  C7  1  0.52583500  0.82991400  0.65615500  1
  C  C8  1  0.88267200  0.36958500  0.68481700  1
  C  C9  1  0.90615500  0.36103600  0.75742300  1
  C  C10  1  0.14179700  0.57871600  0.31370000  1
  C  C11  1  0.14217700  0.53578700  0.26275700  1
  C  C12  1  0.11732800  0.63041500  0.68481700  1
  C  C13  1  0.00296500  0.54361400  0.19346400  1
  C  C14  1  0.09384500  0.63896400  0.75742300  1
  C  C15  1  0.85820300  0.42128400  0.31370000  1
  C  C16  1  0.85782400  0.46421200  0.26275700  1
  C  C17  1  0.11732800  0.36958500  0.31518300  1
  C  C18  1  0.09384600  0.36103600  0.24257700  1
  C  C19  1  0.85820300  0.57871600  0.68630000  1
  C  C20  1  0.85782300  0.53578700  0.73724300  1
  C  C21  1  0.88267200  0.63041500  0.31518300  1
  C  C22  1  0.90615500  0.63896400  0.24257700  1
  C  C23  1  0.14179700  0.42128400  0.68630000  1
  C  C24  1  0.00296500  0.45638600  0.80653600  1
  C  C25  1  0.14217600  0.46421200  0.73724300  1
  C  C26  1  0.38267200  0.86958500  0.68481700  1
  C  C27  1  0.40615400  0.86103600  0.75742300  1
  C  C28  1  0.64179700  0.07871600  0.31370000  1
  C  C29  1  0.64217700  0.03578700  0.26275700  1
  C  C30  1  0.61732800  0.13041500  0.68481700  1
  C  C31  1  0.59384500  0.13896400  0.75742300  1
  C  C32  1  0.35820300  0.92128400  0.31370000  1
  C  C33  1  0.35782400  0.96421200  0.26275700  1
  C  C34  1  0.61732900  0.86958500  0.31518300  1
  C  C35  1  0.49703500  0.95638600  0.19346400  1
  C  C36  1  0.59384600  0.86103600  0.24257700  1
  C  C37  1  0.35820300  0.07871600  0.68630000  1
  C  C38  1  0.35782300  0.03578700  0.73724300  1
  C  C39  1  0.38267200  0.13041500  0.31518300  1
  C  C40  1  0.40615500  0.13896400  0.24257700  1
  C  C41  1  0.64179700  0.92128400  0.68630000  1
  C  C42  1  0.64217600  0.96421200  0.73724300  1
  C  C43  1  0.89765300  0.26080300  0.61289500  1
  C  C44  1  0.89797300  0.22445400  0.67424200  1
  C  C45  1  0.24243500  0.59689300  0.38917400  1
  C  C46  1  0.49703500  0.04361400  0.80653600  1
  C  C47  1  0.27943400  0.59229500  0.33003200  1
  C  C48  1  0.10234700  0.73919700  0.61289500  1
  C  C49  1  0.10202700  0.77554700  0.67424200  1
  C  C50  1  0.75756500  0.40310700  0.38917400  1
  C  C51  1  0.72056600  0.40770500  0.33003200  1
  C  C52  1  0.10234700  0.26080300  0.38710500  1
  C  C53  1  0.10202700  0.22445400  0.32575800  1
  C  C54  1  0.75756500  0.59689300  0.61082600  1
  C  C55  1  0.72056600  0.59229500  0.66996800  1
  C  C56  1  0.89765300  0.73919700  0.38710500  1
  C  C57  1  0.50296500  0.04361400  0.19346400  1
  C  C58  1  0.89797300  0.77554700  0.32575900  1
  C  C59  1  0.24243500  0.40310700  0.61082600  1
  C  C60  1  0.27943400  0.40770400  0.66996900  1
  C  C61  1  0.39765300  0.76080300  0.61289500  1
  C  C62  1  0.39797300  0.72445400  0.67424200  1
  C  C63  1  0.74243500  0.09689300  0.38917400  1
  C  C64  1  0.77943400  0.09229500  0.33003200  1
  C  C65  1  0.60234700  0.23919700  0.61289500  1
  C  C66  1  0.60202700  0.27554700  0.67424200  1
  C  C67  1  0.25756500  0.90310600  0.38917400  1
  C  C68  1  0.50296500  0.95638600  0.80653600  1
  C  C69  1  0.22056600  0.90770400  0.33003100  1
  C  C70  1  0.60234800  0.76080300  0.38710500  1
  C  C71  1  0.60202700  0.72445400  0.32575800  1
  C  C72  1  0.25756500  0.09689300  0.61082600  1
  C  C73  1  0.22056600  0.09229500  0.66996800  1
  C  C74  1  0.39765300  0.23919700  0.38710500  1
  C  C75  1  0.39797300  0.27554700  0.32575800  1
  C  C76  1  0.74243500  0.90310700  0.61082700  1
  C  C77  1  0.77943400  0.90770400  0.66996900  1
  C  C78  1  0.99558500  0.45689800  0.26993300  1
  C  C79  1  0.99558500  0.54310200  0.73006700  1
  C  C80  1  0.00441500  0.54310200  0.26993300  1
  C  C81  1  0.93228700  0.56779100  0.50002500  1
  C  C82  1  0.00441500  0.45689800  0.73006700  1
  C  C83  1  0.49558500  0.95689800  0.26993300  1
  C  C84  1  0.49558500  0.04310200  0.73006700  1
  C  C85  1  0.50441500  0.04310200  0.26993300  1
  C  C86  1  0.50441500  0.95689800  0.73006700  1
  C  C87  1  0.88660300  0.36248600  0.55660800  1
  C  C88  1  0.13895700  0.60622000  0.43942500  1
  C  C89  1  0.11339700  0.63751400  0.55660800  1
  C  C90  1  0.86104300  0.39378000  0.43942500  1
  C  C91  1  0.11339700  0.36248600  0.44339200  1
  C  C92  1  0.93228700  0.43220900  0.49997400  1
  C  C93  1  0.86104300  0.60622000  0.56057500  1
  C  C94  1  0.88660300  0.63751400  0.44339200  1
  C  C95  1  0.13895700  0.39378000  0.56057500  1
  C  C96  1  0.38660300  0.86248600  0.55660800  1
  C  C97  1  0.63895700  0.10622000  0.43942500  1
  C  C98  1  0.61339700  0.13751400  0.55660800  1
  C  C99  1  0.36104300  0.89378000  0.43942500  1
  C  C100  1  0.61339700  0.86248600  0.44339200  1
  C  C101  1  0.36104300  0.10622000  0.56057500  1
  C  C102  1  0.38660300  0.13751400  0.44339200  1
  C  C103  1  0.06771400  0.56779100  0.49997500  1
  C  C104  1  0.63895700  0.89378000  0.56057500  1
  C  C105  1  0.85558100  0.32284100  0.54819900  1
  C  C106  1  0.17656100  0.64050100  0.43924500  1
  C  C107  1  0.14441900  0.67715900  0.54819900  1
  C  C108  1  0.82343900  0.35949900  0.43924500  1
  C  C109  1  0.14442000  0.32284100  0.45180100  1
  C  C110  1  0.82343900  0.64050100  0.56075500  1
  C  C111  1  0.85558100  0.67715900  0.45180100  1
  C  C112  1  0.17656100  0.35949900  0.56075500  1
  C  C113  1  0.35558100  0.82284100  0.54819900  1
  C  C114  1  0.56771400  0.93220900  0.50002600  1
  C  C115  1  0.67656100  0.14050100  0.43924500  1
  C  C116  1  0.64441900  0.17715900  0.54819900  1
  C  C117  1  0.32343900  0.85949900  0.43924500  1
  C  C118  1  0.64442000  0.82284100  0.45180100  1
  C  C119  1  0.32343900  0.14050100  0.56075500  1
  C  C120  1  0.35558100  0.17715900  0.45180100  1
  C  C121  1  0.67656100  0.85949900  0.56075500  1
  C  C122  1  0.82268600  0.32223800  0.49103500  1
  C  C123  1  0.17731400  0.67776200  0.49103500  1
  C  C124  1  0.17731400  0.32223800  0.50896500  1
  C  C125  1  0.43228700  0.06779100  0.50002600  1
  C  C126  1  0.82268600  0.67776200  0.50896500  1
  C  C127  1  0.32268600  0.82223800  0.49103500  1
  C  C128  1  0.67731400  0.17776200  0.49103500  1
  C  C129  1  0.67731400  0.82223800  0.50896500  1
  C  C130  1  0.32268600  0.17776200  0.50896500  1
  C  C131  1  0.00000000  0.50000000  0.92614100  1
  C  C132  1  0.00000000  0.50000000  0.07385900  1
  C  C133  1  0.50000000  0.00000000  0.92614100  1
  C  C134  1  0.50000000  0.00000000  0.07385900  1
  C  C135  1  0.89301900  0.39524900  0.49873300  1
  C  C136  1  0.43228700  0.93220900  0.49997400  1
  C  C137  1  0.10698100  0.60475100  0.49873300  1
  C  C138  1  0.10698100  0.39524900  0.50126700  1
  C  C139  1  0.89301900  0.60475100  0.50126700  1
  C  C140  1  0.39301900  0.89524900  0.49873300  1
  C  C141  1  0.60698100  0.10475100  0.49873300  1
  C  C142  1  0.60698100  0.89524900  0.50126700  1
  C  C143  1  0.39301900  0.10475100  0.50126700  1
  C  C144  1  0.21540500  0.71551900  0.48980500  1
  C  C145  1  0.78459500  0.28448100  0.48980500  1
  C  C146  1  0.78459500  0.71551900  0.51019500  1
  C  C147  1  0.56771400  0.06779100  0.49997500  1
  C  C148  1  0.21540500  0.28448100  0.51019500  1
  C  C149  1  0.71540500  0.21551900  0.48980500  1
  C  C150  1  0.28459500  0.78448100  0.48980500  1
  C  C151  1  0.28459500  0.21551900  0.51019500  1
  C  C152  1  0.71540500  0.78448100  0.51019500  1
  C  C153  1  0.00000000  0.50000000  0.15491300  1
  C  C154  1  0.00000000  0.50000000  0.84508700  1
  C  C155  1  0.50000000  0.00000000  0.15491300  1
  C  C156  1  0.50000000  0.00000000  0.84508700  1
  C  C157  1  0.97257800  0.37154500  0.29060400  1
  C  C158  1  0.99703500  0.45638600  0.19346400  1
  C  C159  1  0.97416500  0.32991400  0.34384500  1
  C  C160  1  0.97257800  0.62845500  0.70939600  1
  C  C161  1  0.97416500  0.67008600  0.65615500  1
  C  C162  1  0.02742200  0.62845500  0.29060400  1
  C  C163  1  0.02583600  0.67008600  0.34384500  1
  C  C164  1  0.02742200  0.37154500  0.70939600  1
  C  C165  1  0.02583500  0.32991400  0.65615500  1
  C  C166  1  0.47257800  0.87154500  0.29060400  1
  C  C167  1  0.47416500  0.82991400  0.34384500  1
  C  C168  1  0.47257800  0.12845500  0.70939600  1
  N  N1  1  0.00000000  0.50000000  0.30600400  1
  N  N2  1  0.50003000  0.95726400  0.96355000  1
  N  N3  1  0.49997000  0.95726400  0.03645000  1
  N  N4  1  0.49997000  0.04273600  0.96355000  1
  N  N5  1  0.76707000  0.26706100  0.42558400  1
  N  N6  1  0.23300000  0.73299400  0.55374100  1
  N  N7  1  0.23293000  0.73293900  0.42558400  1
  N  N8  1  0.76700000  0.26700600  0.55374100  1
  N  N9  1  0.23293000  0.26706100  0.57441600  1
  N  N10  1  0.76700000  0.73299400  0.44625900  1
  N  N11  1  0.76707000  0.73293900  0.57441600  1
  N  N12  1  0.00000000  0.50000000  0.69399600  1
  N  N13  1  0.23300000  0.26700600  0.44625900  1
  N  N14  1  0.26707000  0.76706100  0.42558400  1
  N  N15  1  0.73300000  0.23299400  0.55374100  1
  N  N16  1  0.73293000  0.23293900  0.42558400  1
  N  N17  1  0.26700000  0.76700600  0.55374100  1
  N  N18  1  0.73293000  0.76706100  0.57441600  1
  N  N19  1  0.26700000  0.23299400  0.44625900  1
  N  N20  1  0.26707000  0.23293900  0.57441600  1
  N  N21  1  0.73300000  0.76700600  0.44625900  1
  N  N22  1  0.50000000  0.00000000  0.30600400  1
  N  N23  1  0.50000000  0.00000000  0.69399600  1
  N  N24  1  0.00003000  0.54273600  0.03645000  1
  N  N25  1  0.00003000  0.45726400  0.96355000  1
  N  N26  1  0.99997000  0.45726400  0.03645000  1
  N  N27  1  0.99997000  0.54273600  0.96355000  1
  N  N28  1  0.50003000  0.04273600  0.03645000  1
  O  O1  1  0.05109900  0.44841600  0.56324700  1
  O  O2  1  0.44908500  0.05192700  0.43657800  1
  O  O3  1  0.44890100  0.05158400  0.56324700  1
  O  O4  1  0.55091500  0.94807300  0.43657800  1
  O  O5  1  0.44890100  0.94841600  0.43675300  1
  O  O6  1  0.55091500  0.05192700  0.56342200  1
  O  O7  1  0.55109900  0.05158400  0.43675300  1
  O  O8  1  0.44908500  0.94807300  0.56342200  1
  O  O9  1  0.99210200  0.41524600  0.31046400  1
  O  O10  1  0.95051800  0.36660800  0.23291900  1
  O  O11  1  0.99210200  0.58475400  0.68953600  1
  O  O12  1  0.94908500  0.55192700  0.43657800  1
  O  O13  1  0.95051800  0.63339200  0.76708100  1
  O  O14  1  0.00789800  0.58475400  0.31046400  1
  O  O15  1  0.04948200  0.63339200  0.23291900  1
  O  O16  1  0.00789800  0.41524600  0.68953600  1
  O  O17  1  0.04948200  0.36660800  0.76708100  1
  O  O18  1  0.49210200  0.91524600  0.31046400  1
  O  O19  1  0.45051800  0.86660800  0.23291900  1
  O  O20  1  0.49210200  0.08475400  0.68953600  1
  O  O21  1  0.45051800  0.13339200  0.76708100  1
  O  O22  1  0.50789800  0.08475400  0.31046400  1
  O  O23  1  0.94890100  0.55158400  0.56324700  1
  O  O24  1  0.54948200  0.13339200  0.23291900  1
  O  O25  1  0.50789800  0.91524600  0.68953600  1
  O  O26  1  0.54948200  0.86660800  0.76708100  1
  O  O27  1  0.90894500  0.36950600  0.62184200  1
  O  O28  1  0.83908800  0.37609100  0.68246800  1
  O  O29  1  0.13551900  0.57117500  0.38675600  1
  O  O30  1  0.14498100  0.62023200  0.28873600  1
  O  O31  1  0.09105500  0.63049400  0.62184200  1
  O  O32  1  0.16091200  0.62391000  0.68246800  1
  O  O33  1  0.86448100  0.42882500  0.38675500  1
  O  O34  1  0.05091500  0.44807300  0.43657800  1
  O  O35  1  0.85502000  0.37976700  0.28873600  1
  O  O36  1  0.09105500  0.36950600  0.37815800  1
  O  O37  1  0.16091200  0.37609100  0.31753200  1
  O  O38  1  0.86448100  0.57117500  0.61324400  1
  O  O39  1  0.85502000  0.62023300  0.71126400  1
  O  O40  1  0.90894500  0.63049400  0.37815800  1
  O  O41  1  0.83908800  0.62391000  0.31753200  1
  O  O42  1  0.13551900  0.42882500  0.61324500  1
  O  O43  1  0.14498000  0.37976700  0.71126400  1
  O  O44  1  0.40894500  0.86950600  0.62184200  1
  O  O45  1  0.94890100  0.44841600  0.43675300  1
  O  O46  1  0.33908800  0.87609100  0.68246800  1
  O  O47  1  0.63551900  0.07117500  0.38675600  1
  O  O48  1  0.64498000  0.12023300  0.28873600  1
  O  O49  1  0.59105500  0.13049400  0.62184200  1
  O  O50  1  0.66091200  0.12391000  0.68246800  1
  O  O51  1  0.36448100  0.92882500  0.38675500  1
  O  O52  1  0.35502000  0.87976700  0.28873600  1
  O  O53  1  0.59105600  0.86950600  0.37815800  1
  O  O54  1  0.66091200  0.87609100  0.31753200  1
  O  O55  1  0.36448100  0.07117500  0.61324400  1
  O  O56  1  0.05091500  0.55192700  0.56342200  1
  O  O57  1  0.35502000  0.12023300  0.71126400  1
  O  O58  1  0.40894500  0.13049400  0.37815800  1
  O  O59  1  0.33908800  0.12390900  0.31753200  1
  O  O60  1  0.63551900  0.92882500  0.61324500  1
  O  O61  1  0.64498000  0.87976700  0.71126400  1
  O  O62  1  0.85651600  0.28510800  0.59645200  1
  O  O63  1  0.93393900  0.26688400  0.57584900  1
  O  O64  1  0.21367900  0.63695500  0.39143600  1
  O  O65  1  0.23892800  0.56497400  0.43612200  1
  O  O66  1  0.14348400  0.71489200  0.59645200  1
  O  O67  1  0.05109900  0.55158400  0.43675300  1
  O  O68  1  0.06606000  0.73311600  0.57584900  1
  O  O69  1  0.78632100  0.36304500  0.39143500  1
  O  O70  1  0.76107200  0.43502600  0.43612100  1
  O  O71  1  0.14348400  0.28510800  0.40354800  1
  O  O72  1  0.06606100  0.26688400  0.42415100  1
  O  O73  1  0.78632100  0.63695500  0.60856400  1
  O  O74  1  0.76107200  0.56497400  0.56387800  1
  O  O75  1  0.85651600  0.71489200  0.40354800  1
  O  O76  1  0.93394000  0.73311600  0.42415100  1
  O  O77  1  0.21367900  0.36304500  0.60856500  1
  O  O78  1  0.94908500  0.44807300  0.56342200  1
  O  O79  1  0.23892800  0.43502600  0.56387900  1
  O  O80  1  0.35651600  0.78510800  0.59645300  1
  O  O81  1  0.43393900  0.76688400  0.57585000  1
  O  O82  1  0.71367900  0.13695500  0.39143600  1
  O  O83  1  0.73892800  0.06497400  0.43612200  1
  O  O84  1  0.64348400  0.21489200  0.59645200  1
  O  O85  1  0.56606000  0.23311600  0.57584900  1
  O  O86  1  0.28632100  0.86304500  0.39143500  1
  O  O87  1  0.26107200  0.93502600  0.43612100  1
  O  O88  1  0.64348400  0.78510800  0.40354700  1
  O  O89  1  0.55109900  0.94841600  0.56324700  1
  O  O90  1  0.56606100  0.76688400  0.42415000  1
  O  O91  1  0.28632100  0.13695500  0.60856400  1
  O  O92  1  0.26107200  0.06497400  0.56387800  1
  O  O93  1  0.35651600  0.21489200  0.40354800  1
  O  O94  1  0.43394000  0.23311600  0.42415100  1
  O  O95  1  0.71367900  0.86304500  0.60856500  1
  O  O96  1  0.73892800  0.93502600  0.56387900  1
