# Generated by REPEAT Assigner based on pymatgen
data_DB0-m3_o160_o450_f0_fsc.sym.101
_audit_creation_date              2022-05-24
_audit_creation_method            REPEAT_Assigner
_cell_length_a                    8.537466
_cell_length_b                    12.773765
_cell_length_c                    13.412259
_cell_angle_alpha                 90.877556
_cell_angle_beta                  90.065119
_cell_angle_gamma                 95.438964
_cell_volume                      1455.920588
_symmetry_space_group_name_H-M    P1
_symmetry_Int_Tables_number       1
loop_
    _symmetry_equiv_pos_site_id
    _symmetry_equiv_pos_as_xyz
    1  x,y,z
loop_
    _atom_site_type_symbol
    _atom_site_label
    _atom_site_fract_x
    _atom_site_fract_y
    _atom_site_fract_z
    _atom_type_partial_charge
    C   C1   0.173613  0.706518  0.010680  0.135296
    C   C2   0.185952  0.814346  0.999500  -0.477900
    H   H1   0.300502  0.857688  0.993441  0.142717
    C   C3   0.051077  0.867326  0.000135  0.554110
    C   C4   0.903882  0.810484  0.001131  -0.272002
    H   H2   0.795496  0.847297  0.994639  0.079411
    C   C5   0.893915  0.703079  0.011491  -0.061192
    C   C6   0.028050  0.653499  0.022877  -0.232824
    N   N1   0.066092  0.978527  0.998744  -0.224615
    N   N2   0.939002  0.016222  0.014762  -0.252249
    C   C7   0.819037  0.180277  0.011215  -0.463271
    H   H3   0.704521  0.137205  0.018654  0.150887
    C   C8   0.831288  0.287497  0.996107  0.109499
    C   C9   0.976776  0.339864  0.981363  -0.240072
    C   C10  0.110992  0.290951  0.995461  0.063723
    C   C11  0.100976  0.184218  0.010388  -0.249467
    H   H4   0.209263  0.147749  0.019190  0.075375
    C   C12  0.953893  0.127371  0.012251  0.521344
    H   H5   0.019075  0.570755  0.036742  0.142865
    H   H6   0.985666  0.421948  0.964435  0.142256
    O   O1   0.688589  0.599119  0.091913  -0.769658
    O   O2   0.684462  0.609932  0.920344  -0.741398
    C   C13  0.743973  0.638404  0.008053  0.977680
    O   O3   0.654234  0.391416  0.915095  -0.709734
    O   O4   0.646890  0.380699  0.086611  -0.697229
    C   C14  0.696728  0.350551  0.998962  0.813582
    O   O5   0.316181  0.395144  0.914688  -0.584278
    O   O6   0.320515  0.384177  0.086316  -0.700203
    C   C15  0.260849  0.355821  0.998617  0.750130
    O   O7   0.350771  0.602716  0.091463  -0.756615
    O   O8   0.358149  0.613466  0.920037  -0.730236
    C   C16  0.308339  0.643646  0.007660  0.864695
    Zn  Zn1  0.503006  0.500685  0.892238  0.984114
    Zn  Zn2  0.501956  0.493446  0.114328  1.061789
    C   C17  0.493225  0.403271  0.297811  -0.421641
    N   N3   0.501627  0.492147  0.245030  0.229096
    C   C18  0.511720  0.586309  0.291951  -0.182755
    C   C19  0.513249  0.593863  0.394438  -0.064623
    C   C20  0.504930  0.503564  0.451062  -0.308043
    C   C21  0.495023  0.407728  0.400799  0.776816
    C   C22  0.516377  0.598112  0.611790  -0.280451
    C   C23  0.505743  0.505506  0.555391  0.398566
    C   C24  0.495578  0.411179  0.605372  -0.280927
    C   C25  0.488150  0.317402  0.551463  0.380582
    N   N4   0.487703  0.317574  0.451398  -0.688211
    C   C26  0.515893  0.594780  0.714406  -0.121322
    N   N5   0.503434  0.502330  0.761455  0.090235
    C   C27  0.492754  0.410991  0.708956  0.282117
    H   H7   0.519225  0.657447  0.248944  0.170433
    H   H8   0.483676  0.242437  0.587738  0.037149
    H   H9   0.521056  0.671909  0.426124  0.125276
    H   H10  0.526036  0.674925  0.579640  0.170220
    H   H11  0.485567  0.327847  0.259572  0.221654
    H   H12  0.525047  0.667462  0.757252  0.199782
    N   N6   0.476884  0.315040  0.760211  -0.535141
    C   C28  0.331894  0.263712  0.751502  0.837387
    O   O9   0.220917  0.311826  0.728507  -0.600072
    C   C29  0.306423  0.148123  0.768187  -0.591288
    H   H13  0.568036  0.268252  0.752916  0.298696
    H   H14  0.417289  0.116955  0.791809  0.125600
    H   H15  0.263855  0.107858  0.698074  0.159876
    H   H16  0.216603  0.132407  0.827023  0.164455
