# Generated by REPEAT Assigner based on pymatgen
data_DB0-m3_o23_uob
_audit_creation_date              2022-05-24
_audit_creation_method            REPEAT_Assigner
_cell_length_a                    24.974485
_cell_length_b                    65.153590
_cell_length_c                    38.717760
_cell_angle_alpha                 45.458764
_cell_angle_beta                  73.715421
_cell_angle_gamma                 89.925360
_cell_volume                      41306.941414
_symmetry_space_group_name_H-M    P1
_symmetry_Int_Tables_number       1
loop_
    _symmetry_equiv_pos_site_id
    _symmetry_equiv_pos_as_xyz
    1  x,y,z
loop_
    _atom_site_type_symbol
    _atom_site_label
    _atom_site_fract_x
    _atom_site_fract_y
    _atom_site_fract_z
    _atom_type_partial_charge
    O   O1    0.046843  0.080495  0.390033  -0.770201
    O   O2    0.120523  0.021464  0.447254  -0.681303
    O   O3    0.130666  0.059419  0.361900  -0.678631
    O   O4    0.037168  0.042721  0.475013  -0.803272
    C   C1    0.043820  0.071477  0.433636  0.863925
    C   C2    0.153815  0.042959  0.396962  0.856155
    O   O5    0.947296  0.002569  0.495154  -0.638935
    O   O6    0.046461  0.022482  0.379153  -0.813089
    O   O7    0.036902  0.984395  0.464164  -0.811373
    O   O8    0.956296  0.040455  0.410248  -0.656821
    Zn  Zn1   0.045287  0.056521  0.373192  1.448496
    Zn  Zn2   0.033007  0.007420  0.483233  1.405277
    C   C3    0.923195  0.017821  0.460680  0.745469
    C   C4    0.043126  0.994150  0.419327  0.903850
    O   O9    0.328140  0.877482  0.680581  -0.727308
    O   O10   0.474654  0.876725  0.622942  -0.723442
    O   O11   0.452101  0.913771  0.613700  -0.737811
    O   O12   0.350512  0.840523  0.689514  -0.690446
    C   C5    0.321244  0.848759  0.710016  0.820068
    C   C6    0.487427  0.897363  0.620566  0.805519
    O   O13   0.334621  0.868759  0.597413  -0.760869
    O   O14   0.429112  0.939256  0.525985  -0.692298
    O   O15   0.451169  0.901974  0.535577  -0.745836
    O   O16   0.312697  0.905864  0.588380  -0.693090
    Zn  Zn3   0.377359  0.914316  0.602009  1.309105
    Zn  Zn4   0.406303  0.866018  0.614028  1.341592
    C   C7    0.301617  0.886574  0.587580  0.858655
    C   C8    0.455632  0.930525  0.505538  0.910695
    O   O17   0.206022  0.837302  0.308978  -0.682913
    O   O18   0.087603  0.775768  0.367344  -0.748390
    O   O19   0.148515  0.815010  0.281656  -0.794316
    O   O20   0.145307  0.797827  0.395025  -0.664990
    C   C9    0.197819  0.815664  0.358798  0.840673
    C   C10   0.121850  0.785913  0.322550  0.825944
    O   O21   0.069361  0.831935  0.382075  -0.830324
    O   O22   0.070613  0.851828  0.266558  -0.657515
    O   O23   0.009177  0.812399  0.352253  -0.651335
    O   O24   0.130386  0.871503  0.296387  -0.800795
    Zn  Zn5   0.147457  0.849533  0.275442  1.423448
    Zn  Zn6   0.068348  0.798430  0.386588  1.443714
    C   C11   0.097471  0.860781  0.342047  0.915334
    C   C12   0.017602  0.835025  0.302359  0.751927
    O   O25   0.178926  0.264177  0.471583  -0.623511
    O   O26   0.181203  0.341384  0.356494  -0.820837
    O   O27   0.120675  0.309572  0.442270  -0.860054
    O   O28   0.239623  0.296049  0.385686  -0.635368
    C   C13   0.231556  0.276731  0.435526  0.710514
    C   C14   0.153785  0.336869  0.396703  0.940122
    O   O29   0.159657  0.272840  0.371230  -0.789182
    O   O30   0.043917  0.286218  0.429295  -0.689699
    O   O31   0.104003  0.318568  0.343115  -0.672022
    O   O32   0.099640  0.240847  0.457135  -0.820402
    Zn  Zn7   0.102218  0.270238  0.463006  1.422177
    Zn  Zn8   0.180584  0.311654  0.351605  1.438058
    C   C15   0.125425  0.245696  0.416295  0.911684
    C   C16   0.051718  0.306159  0.379569  0.862443
    O   O33   0.818340  0.575556  0.215496  -0.693955
    O   O34   0.936337  0.598288  0.106092  -0.744873
    O   O35   0.937560  0.604679  0.156593  -0.690418
    O   O36   0.816758  0.569568  0.164463  -0.737642
    C   C17   0.802142  0.558512  0.211145  0.800163
    C   C18   0.960091  0.596820  0.133766  0.911655
    O   O37   0.791244  0.624760  0.096369  -0.704700
    O   O38   0.918735  0.660749  0.085744  -0.771408
    O   O39   0.917222  0.654549  0.035054  -0.689286
    O   O40   0.793155  0.630779  0.147240  -0.726688
    Zn  Zn9   0.866835  0.619362  0.158383  1.324845
    Zn  Zn10  0.864682  0.611436  0.092124  1.353174
    C   C19   0.767725  0.631418  0.121223  0.858332
    C   C20   0.935846  0.671298  0.039254  0.803553
    O   O41   0.712650  0.978718  0.145344  -0.704595
    O   O42   0.628501  0.982123  0.077090  -0.731140
    O   O43   0.654582  0.017278  0.073314  -0.689510
    O   O44   0.686009  0.943432  0.149536  -0.715891
    C   C21   0.725077  0.958768  0.146251  0.811752
    C   C22   0.647948  0.010402  0.049715  0.821278
    O   O45   0.581262  0.917473  0.233895  -0.690071
    O   O46   0.552000  0.988916  0.161463  -0.740860
    O   O47   0.526180  0.953676  0.165262  -0.704017
    O   O48   0.607867  0.952934  0.229419  -0.769266
    Zn  Zn11  0.636861  0.990141  0.150795  1.314634
    Zn  Zn12  0.602561  0.944124  0.156125  1.307855
    C   C23   0.586008  0.924829  0.257206  0.914140
    C   C24   0.512626  0.972446  0.167020  0.856637
    O   O49   0.194129  0.523812  0.378061  -0.838198
    O   O50   0.292004  0.601372  0.262604  -0.613636
    O   O51   0.281791  0.568601  0.347827  -0.646044
    O   O52   0.204579  0.556539  0.292870  -0.864982
    C   C25   0.198544  0.528942  0.337677  0.976419
    C   C26   0.315380  0.588376  0.297478  0.688007
    O   O53   0.119336  0.579447  0.309908  -0.710917
    O   O54   0.190188  0.591048  0.367133  -0.780737
    O   O55   0.201311  0.623981  0.281783  -0.821257
    O   O56   0.108003  0.546108  0.395501  -0.659849
    Zn  Zn13  0.193034  0.552874  0.384446  1.447105
    Zn  Zn14  0.206729  0.595429  0.273950  1.426891
    C   C27   0.085493  0.559046  0.360046  0.889511
    C   C28   0.193727  0.618381  0.323137  0.897290
    O   O57   0.686123  0.276169  0.624549  -0.780957
    O   O58   0.667028  0.300961  0.512209  -0.705196
    O   O59   0.624073  0.309233  0.560226  -0.733389
    O   O60   0.728157  0.267413  0.577192  -0.683318
    C   C29   0.732468  0.275215  0.599824  0.939651
    C   C30   0.650897  0.319332  0.514445  0.808840
    O   O61   0.639258  0.214305  0.645962  -0.774771
    O   O62   0.532111  0.256602  0.627101  -0.703517
    O   O63   0.575142  0.248299  0.579190  -0.751166
    O   O64   0.596873  0.222833  0.693618  -0.704292
    Zn  Zn15  0.602422  0.267140  0.634088  1.366306
    Zn  Zn16  0.658204  0.256178  0.571694  1.326957
    C   C31   0.614605  0.204566  0.691662  0.843916
    C   C32   0.528607  0.249654  0.602957  0.874543
    C   C33   0.755704  0.948013  0.531075  -0.079255
    C   C34   0.716297  0.991233  0.495137  -0.176494
    C   C35   0.656872  0.970591  0.520516  -0.073134
    H   H1    0.685766  0.923679  0.539243  -0.003548
    H   H2    0.773418  0.957724  0.491164  0.019318
    H   H3    0.710850  0.008443  0.494328  0.014805
    H   H4    0.738403  0.002635  0.454170  0.052363
    H   H5    0.652438  0.969686  0.493868  0.037172
    H   H6    0.622469  0.979502  0.527277  0.062485
    C   C36   0.542241  0.903573  0.621631  -0.127371
    C   C37   0.752785  0.973092  0.526427  0.725569
    C   C38   0.695148  0.926627  0.562097  -0.174478
    C   C39   0.650341  0.939241  0.572565  0.555126
    C   C40   0.661456  0.941146  0.606934  -0.195482
    C   C41   0.723902  0.959388  0.581196  -0.181581
    C   C42   0.591057  0.919655  0.599281  -0.315209
    C   C43   0.812059  0.992681  0.499749  -0.430640
    C   C44   0.860587  0.008758  0.478224  -0.080824
    H   H7    0.748228  0.944553  0.605431  0.048044
    H   H8    0.724153  0.977455  0.578600  0.026371
    H   H9    0.653908  0.918232  0.646134  0.078324
    H   H10   0.784669  0.935495  0.551538  0.027061
    H   H11   0.693169  0.904490  0.600089  0.043691
    H   H12   0.631277  0.952094  0.612063  0.059867
    C   C45   0.201313  0.941617  0.480808  -0.111835
    C   C46   0.300890  0.963950  0.458876  -0.150421
    C   C47   0.290649  0.994410  0.419676  -0.158541
    H   H13   0.194319  0.981699  0.409192  0.067355
    H   H14   0.221325  0.938796  0.455388  -0.023728
    H   H15   0.330208  0.964877  0.474869  0.078827
    H   H16   0.321554  0.957866  0.438864  0.038197
    H   H17   0.299441  0.001522  0.382408  0.066500
    H   H18   0.320447  0.011129  0.411552  0.074835
    C   C48   0.215658  0.047628  0.380417  -0.387716
    C   C49   0.243152  0.940637  0.503464  0.582673
    C   C50   0.187913  0.971595  0.448452  -0.145121
    C   C51   0.227977  0.992325  0.442290  0.432533
    C   C52   0.214543  0.979641  0.495812  -0.343076
    C   C53   0.218138  0.947627  0.533625  -0.186688
    C   C54   0.219203  0.022306  0.406890  -0.018162
    C   C55   0.251879  0.910680  0.539028  -0.198735
    C   C56   0.253852  0.885532  0.574637  -0.279552
    H   H19   0.173996  0.931977  0.563812  0.068022
    H   H20   0.246350  0.945000  0.553366  0.106716
    H   H21   0.170151  0.979851  0.511315  0.134470
    H   H22   0.160367  0.923235  0.513170  0.022135
    H   H23   0.142036  0.968119  0.468781  0.108475
    H   H24   0.246492  0.993487  0.492150  0.083279
    C   C57   0.006917  0.920882  0.416071  -0.348331
    C   C58   0.106537  0.924179  0.413370  -0.194353
    C   C59   0.111514  0.904705  0.404429  -0.238310
    H   H25   0.996663  0.880229  0.436233  0.037209
    H   H26   0.990325  0.904005  0.459578  0.134303
    H   H27   0.150025  0.939642  0.393320  0.070192
    H   H28   0.090831  0.909546  0.456181  0.081862
    H   H29   0.092882  0.880680  0.442989  0.106650
    H   H30   0.158079  0.908717  0.384545  0.075980
    C   C60   0.092608  0.880435  0.348645  -0.259018
    C   C61   0.064482  0.942407  0.391644  0.685778
    C   C62   0.014805  0.904825  0.400314  -0.083388
    C   C63   0.078906  0.912178  0.370658  0.636333
    C   C64   0.101548  0.945759  0.320208  -0.145689
    C   C65   0.089014  0.963434  0.332494  -0.281842
    C   C66   0.087085  0.894720  0.358540  -0.416275
    C   C67   0.056003  0.959860  0.403743  -0.381163
    C   C68   0.047859  0.974127  0.413560  -0.267745
    H   H31   0.057094  0.975458  0.316404  0.083718
    H   H32   0.129893  0.980173  0.313515  0.106198
    H   H33   0.080178  0.951600  0.293875  0.094752
    H   H34   0.974706  0.933526  0.402534  0.108250
    H   H35   0.990905  0.912091  0.374807  0.069052
    H   H36   0.149182  0.951917  0.299805  0.048998
    C   C69   0.132301  0.141216  0.429588  -0.262007
    C   C70   0.027750  0.128129  0.477474  -0.253249
    C   C71   0.042896  0.151265  0.476666  -0.264328
    H   H37   0.160283  0.159187  0.454093  0.041968
    H   H38   0.133881  0.120258  0.467208  0.072955
    H   H39   0.983938  0.126948  0.476576  0.098742
    H   H40   0.027026  0.105745  0.514324  0.097358
    H   H41   0.055201  0.140637  0.510314  0.094361
    H   H42   0.004175  0.158865  0.480818  0.091173
    C   C72   0.115304  0.221504  0.420563  -0.234630
    C   C73   0.072124  0.136735  0.430225  0.749685
    C   C74   0.146256  0.167064  0.422662  -0.059927
    C   C75   0.093223  0.178152  0.425475  0.634639
    C   C76   0.077348  0.190276  0.380058  -0.192608
    C   C77   0.069495  0.166714  0.380642  -0.235546
    C   C78   0.105390  0.202040  0.422744  -0.407281
    C   C79   0.059945  0.112840  0.432974  -0.445684
    C   C80   0.049957  0.093332  0.435271  -0.202232
    H   H43   0.104460  0.174582  0.345557  0.075790
    H   H44   0.026847  0.163863  0.378963  0.052575
    H   H45   0.112289  0.210664  0.342167  0.069860
    H   H46   0.165428  0.146342  0.396720  0.103178
    H   H47   0.182340  0.185824  0.383895  0.021963
    H   H48   0.036228  0.196413  0.383540  0.109699
    C   C81   0.081705  0.770294  0.905141  -0.151855
    C   C82   0.086845  0.752724  0.865162  -0.162293
    C   C83   0.142297  0.778370  0.820365  -0.061801
    H   H49   0.135244  0.815450  0.832104  0.039289
    H   H50   0.047519  0.780487  0.890635  0.042518
    H   H51   0.089204  0.733441  0.871250  -0.010975
    H   H52   0.048980  0.760237  0.854856  0.039248
    H   H53   0.130957  0.799125  0.790745  0.019098
    H   H54   0.168965  0.772694  0.801336  0.018202
    C   C84   0.278638  0.826179  0.763860  -0.137001
    C   C85   0.079773  0.743100  0.915387  0.675393
    C   C86   0.141024  0.793305  0.864098  -0.210052
    C   C87   0.176632  0.783527  0.841546  0.696002
    C   C88   0.187471  0.754238  0.885225  -0.213684
    C   C89   0.129877  0.730944  0.930803  0.026723
    C   C90   0.232668  0.806922  0.798826  -0.359276
    C   C91   0.023728  0.719713  0.958112  -0.398221
    C   C92   0.977615  0.700632  0.993185  -0.097323
    H   H55   0.127167  0.725618  0.965559  -0.010681
    H   H56   0.127317  0.710156  0.941019  -0.004599
    H   H57   0.215061  0.758002  0.899288  0.052700
    H   H58   0.073656  0.763334  0.942188  0.036783
    H   H59   0.164107  0.795303  0.882660  0.018518
    H   H60   0.210266  0.745906  0.869945  0.027712
    C   C93   0.451077  0.930822  0.394090  -0.271485
    C   C94   0.517973  0.905181  0.438506  0.114836
    C   C95   0.538161  0.897789  0.408468  -0.338015
    H   H61   0.437244  0.896645  0.397540  0.064998
    H   H62   0.412176  0.914296  0.431590  0.083429
    H   H63   0.553257  0.907157  0.448947  0.013602
    H   H64   0.479199  0.886960  0.475148  0.026406
    H   H65   0.513078  0.874656  0.432875  0.066503
    H   H66   0.585071  0.899168  0.399548  0.103461
    C   C96   0.566194  0.902129  0.313548  -0.341674
    C   C97   0.502455  0.934564  0.404528  0.508596
    C   C98   0.465404  0.919816  0.369647  -0.143739
    C   C99   0.528742  0.920001  0.357491  0.522149
    C   C100  0.566738  0.951222  0.322705  0.138111
    C   C101  0.554117  0.958868  0.352634  -0.447191
    C   C102  0.544086  0.911548  0.330262  -0.199219
    C   C103  0.487350  0.943021  0.431759  -0.128039
    C   C104  0.489001  0.952220  0.449841  -0.373056
    H   H67   0.544341  0.980808  0.328764  0.116508
    H   H68   0.592749  0.960411  0.360258  0.097804
    H   H69   0.557340  0.967795  0.286808  0.023288
    H   H70   0.441690  0.952709  0.366757  0.098240
    H   H71   0.457431  0.934735  0.332851  0.045532
    H   H72   0.613281  0.952058  0.311006  0.031412
    C   C105  0.872163  0.884944  0.271391  -0.098685
    C   C106  0.861082  0.866163  0.235510  -0.235459
    C   C107  0.822139  0.886262  0.212256  -0.268820
    H   H73   0.793295  0.898532  0.269042  0.053014
    H   H74   0.840711  0.863482  0.310458  0.027589
    H   H75   0.884595  0.863978  0.209761  0.034024
    H   H76   0.834014  0.843584  0.275128  0.055875
    H   H77   0.777016  0.874471  0.242422  0.101234
    H   H78   0.822324  0.891449  0.178139  0.091258
    C   C108  0.780572  0.952522  0.146383  -0.142191
    C   C109  0.904689  0.879725  0.239759  0.719658
    C   C110  0.839667  0.907846  0.242292  -0.157397
    C   C111  0.844166  0.915161  0.194583  0.649425
    C   C112  0.907450  0.929840  0.156666  -0.139800
    C   C113  0.944056  0.909607  0.184928  -0.019324
    C   C114  0.809135  0.935673  0.168411  -0.342488
    C   C115  0.939734  0.859210  0.265894  -0.420995
    C   C116  0.968670  0.842313  0.286904  -0.089115
    H   H79   0.973739  0.920523  0.187855  -0.005582
    H   H80   0.970354  0.905922  0.162287  0.008180
    H   H81   0.923191  0.951776  0.141322  0.013722
    H   H82   0.903381  0.893400  0.277112  0.020465
    H   H83   0.858920  0.928617  0.229366  -0.010168
    H   H84   0.911565  0.933593  0.123206  0.042836
    C   C117  0.384968  0.910621  0.220443  -0.122906
    C   C118  0.321458  0.918486  0.269909  -0.044842
    C   C119  0.279791  0.888267  0.303763  -0.310052
    H   H85   0.316999  0.878181  0.243844  0.148498
    H   H86   0.368189  0.926127  0.189173  0.068345
    H   H87   0.318924  0.922407  0.293873  0.002674
    H   H88   0.309211  0.936476  0.236619  0.018935
    H   H89   0.251485  0.891106  0.283913  0.122203
    H   H90   0.252186  0.878968  0.342375  0.115654
    C   C120  0.246434  0.812172  0.373619  -0.386437
    C   C121  0.383005  0.918773  0.248978  0.583456
    C   C122  0.347725  0.878646  0.259264  -0.508498
    C   C123  0.314269  0.867007  0.311820  0.641069
    C   C124  0.356819  0.865426  0.334428  -0.463257
    C   C125  0.401071  0.895913  0.294624  0.026272
    C   C126  0.274495  0.836993  0.348170  -0.032494
    C   C127  0.422836  0.948785  0.212453  -0.248677
    C   C128  0.453900  0.974324  0.176466  -0.269889
    H   H91   0.444508  0.894600  0.279923  0.064996
    H   H92   0.403431  0.902732  0.313688  -0.024068
    H   H93   0.379605  0.848489  0.343609  0.142370
    H   H94   0.430383  0.912522  0.202226  0.094568
    H   H95   0.375939  0.864270  0.264372  0.127285
    H   H96   0.332877  0.858871  0.371098  0.124165
    C   C129  0.177690  0.738174  0.263721  -0.325236
    C   C130  0.093467  0.699911  0.348229  -0.171250
    C   C131  0.103720  0.678061  0.344927  -0.150384
    H   H97   0.173510  0.716529  0.240153  0.068629
    H   H98   0.146854  0.748306  0.244090  0.120722
    H   H99   0.074791  0.687187  0.390173  0.025724
    H   H100  0.062032  0.711268  0.330293  0.065047
    H   H101  0.081973  0.681186  0.320757  0.075931
    H   H102  0.084546  0.654686  0.385116  0.077317
    C   C132  0.187678  0.641892  0.320750  -0.230334
    C   C133  0.150237  0.723302  0.319559  0.662555
    C   C134  0.192457  0.715186  0.264181  -0.181324
    C   C135  0.168480  0.683528  0.320164  0.668459
    C   C136  0.197873  0.682155  0.351008  -0.161331
    C   C137  0.190934  0.707002  0.347106  -0.104186
    C   C138  0.179014  0.660586  0.320506  -0.431751
    C   C139  0.139721  0.746250  0.319204  -0.437309
    C   C140  0.131180  0.764985  0.318878  -0.195444
    H   H103  0.234157  0.723305  0.324587  0.059344
    H   H104  0.173140  0.696935  0.387287  0.068344
    H   H105  0.244855  0.684862  0.335145  0.055356
    H   H106  0.218054  0.756206  0.241183  0.108824
    H   H107  0.240401  0.720531  0.246616  0.073264
    H   H108  0.177963  0.659974  0.392950  0.028168
    C   C141  0.177891  0.427605  0.414078  -0.195655
    C   C142  0.234255  0.461143  0.319476  -0.223573
    C   C143  0.229481  0.433230  0.331192  -0.292623
    H   H109  0.199092  0.388034  0.438340  0.110444
    H   H110  0.219116  0.430107  0.417934  0.089799
    H   H111  0.235819  0.480510  0.279227  0.103569
    H   H112  0.274999  0.466275  0.321365  0.114609
    H   H113  0.264678  0.423249  0.343890  0.099451
    H   H114  0.234703  0.439833  0.294856  0.112496
    C   C144  0.159516  0.361921  0.390546  -0.281420
    C   C145  0.182370  0.456053  0.359067  0.595058
    C   C146  0.166594  0.400330  0.424379  -0.262529
    C   C147  0.170800  0.410088  0.374462  0.635582
    C   C148  0.123478  0.425317  0.358245  -0.215657
    C   C149  0.127717  0.450806  0.353220  -0.214508
    C   C150  0.164218  0.383564  0.383343  -0.352294
    C   C151  0.189137  0.482569  0.350193  -0.363086
    C   C152  0.195299  0.504169  0.343029  -0.293096
    H   H115  0.088914  0.444866  0.384282  0.092604
    H   H116  0.128711  0.471654  0.314167  0.077484
    H   H117  0.080119  0.408613  0.388139  0.062764
    H   H118  0.141784  0.424023  0.443727  0.089415
    H   H119  0.122480  0.385122  0.455418  0.108284
    H   H120  0.128364  0.434579  0.319842  0.110004
    C   C153  0.846059  0.319173  0.464239  -0.092296
    C   C154  0.865242  0.270516  0.530242  -0.169537
    C   C155  0.904593  0.276813  0.484403  -0.399423
    H   H121  0.875433  0.323163  0.401373  0.089514
    H   H122  0.805172  0.306241  0.474143  0.062561
    H   H123  0.882628  0.257694  0.561554  0.070556
    H   H124  0.821230  0.256943  0.546214  0.088793
    H   H125  0.878080  0.270566  0.472805  0.077979
    H   H126  0.935591  0.263166  0.496571  0.124697
    C   C156  0.002857  0.314847  0.365119  -0.409517
    C   C157  0.862675  0.300035  0.511524  0.759137
    C   C158  0.894312  0.327918  0.418595  -0.248063
    C   C159  0.937174  0.309994  0.438309  0.544143
    C   C160  0.967423  0.319289  0.456206  -0.267920
    C   C161  0.922031  0.316536  0.495654  -0.088152
    C   C162  0.980325  0.315666  0.395939  -0.006007
    C   C163  0.819395  0.294150  0.554106  -0.287380
    C   C164  0.788511  0.283229  0.596607  -0.322728
    H   H127  0.921871  0.339254  0.477605  -0.005325
    H   H128  0.932597  0.303959  0.530801  0.002763
    H   H129  0.995292  0.342859  0.421910  0.082153
    H   H130  0.839404  0.339722  0.452930  0.002766
    H   H131  0.917025  0.352256  0.387988  0.065395
    H   H132  0.994950  0.304452  0.475009  0.148478
    C   C165  0.444103  0.278376  0.490781  -0.000541
    C   C166  0.356351  0.262132  0.562557  -0.204165
    C   C167  0.321761  0.269253  0.530436  -0.109731
    H   H133  0.408047  0.305400  0.431662  0.061906
    H   H134  0.456657  0.299797  0.477850  -0.002151
    H   H135  0.328362  0.243251  0.605112  0.058664
    H   H136  0.371172  0.282154  0.553132  0.016893
    H   H137  0.324483  0.293493  0.501711  0.027359
    H   H138  0.275533  0.255896  0.557055  0.037185
    C   C168  0.280547  0.269740  0.450690  -0.050586
    C   C169  0.408553  0.253438  0.549673  0.534807
    C   C170  0.408222  0.281639  0.462180  -0.226293
    C   C171  0.346419  0.261638  0.501242  0.762668
    C   C172  0.346877  0.229065  0.540423  -0.125888
    C   C173  0.387612  0.224779  0.566354  -0.219517
    C   C174  0.310422  0.266376  0.473201  -0.464209
    C   C175  0.444540  0.248677  0.577737  -0.247112
    C   C176  0.473920  0.244227  0.601330  -0.219270
    H   H139  0.425481  0.219286  0.554204  0.062221
    H   H140  0.364258  0.206006  0.609768  0.084821
    H   H141  0.361853  0.222802  0.519850  -0.001203
    H   H142  0.484057  0.272977  0.481275  0.030553
    H   H143  0.427668  0.274987  0.442919  0.039924
    H   H144  0.302278  0.214444  0.570924  0.033788
    C   C177  0.520663  0.589884  0.265375  -0.159457
    C   C178  0.520307  0.642147  0.192077  -0.154118
    C   C179  0.585266  0.649580  0.164904  -0.154742
    H   H145  0.612309  0.601644  0.246852  0.025631
    H   H146  0.518720  0.594668  0.288042  0.005116
    H   H147  0.501525  0.656660  0.162021  0.018665
    H   H148  0.512727  0.646349  0.216043  0.004417
    H   H149  0.609053  0.654536  0.179612  0.015741
    H   H150  0.599079  0.669628  0.121822  0.060031
    C   C180  0.712506  0.638052  0.122123  -0.222997
    C   C181  0.491386  0.609431  0.227257  0.944486
    C   C182  0.583780  0.596495  0.235017  -0.028749
    C   C183  0.598967  0.623094  0.176392  0.508813
    C   C184  0.562565  0.614900  0.160146  -0.240193
    C   C185  0.498489  0.604549  0.193447  -0.111221
    C   C186  0.661257  0.631021  0.146924  -0.212095
    C   C187  0.429094  0.601535  0.256692  -0.578244
    C   C188  0.377939  0.595469  0.280387  0.007472
    H   H151  0.480548  0.580338  0.219116  -0.003721
    H   H152  0.474627  0.617510  0.167330  0.032218
    H   H153  0.574436  0.596587  0.165775  0.031665
    H   H154  0.497903  0.565844  0.293141  0.026881
    H   H155  0.590365  0.576533  0.244168  0.008218
    H   H156  0.570864  0.634810  0.118007  0.070038
    C   C189  0.029117  0.590774  0.254289  -0.448802
    C   C190  0.958734  0.540653  0.318911  -0.191391
    C   C191  0.950694  0.550373  0.272314  -0.201423
    H   H157  0.002633  0.612371  0.190194  0.126100
    H   H158  0.993176  0.597660  0.264986  0.095319
    H   H159  0.953201  0.516119  0.349418  0.072112
    H   H160  0.925715  0.545831  0.335835  0.071790
    H   H161  0.920254  0.564411  0.261366  0.090225
    H   H162  0.932251  0.530256  0.283113  0.041537
    C   C192  0.010443  0.586083  0.140015  -0.333609
    C   C193  0.019344  0.557319  0.300635  0.634340
    C   C194  0.030650  0.597586  0.207759  -0.204984
    C   C195  0.009169  0.568393  0.226178  0.667759
    C   C196  0.052452  0.550389  0.243742  -0.067914
    C   C197  0.063767  0.547177  0.283586  -0.300296
    C   C198  0.003318  0.574944  0.182864  -0.228309
    C   C199  0.025323  0.551009  0.343716  -0.042476
    C   C200  0.023729  0.550352  0.375941  -0.429793
    H   H163  0.108177  0.561325  0.265306  0.161852
    H   H164  0.060471  0.523381  0.318179  0.075052
    H   H165  0.093884  0.562054  0.209389  0.012790
    H   H166  0.070930  0.603655  0.243239  0.140736
    H   H167  0.075888  0.609336  0.177795  0.083117
    H   H168  0.034459  0.527826  0.261961  -0.004398
    C   C201  0.783594  0.456524  0.316298  -0.231588
    C   C202  0.681908  0.458280  0.326976  -0.182556
    C   C203  0.664366  0.424568  0.364224  -0.142963
    H   H169  0.769150  0.414872  0.340106  0.020104
    H   H170  0.791546  0.465548  0.277575  0.109798
    H   H171  0.645971  0.464632  0.339030  0.063141
    H   H172  0.690690  0.469921  0.286368  0.072224
    H   H173  0.670002  0.419791  0.341206  0.028934
    H   H174  0.618003  0.414882  0.391232  0.062673
    C   C204  0.663770  0.350804  0.466599  -0.115109
    C   C205  0.736088  0.467430  0.328693  0.703362
    C   C206  0.764910  0.422445  0.358714  -0.138342
    C   C207  0.702182  0.410637  0.395799  0.553166
    C   C208  0.697847  0.419301  0.423809  -0.111204
    C   C209  0.722256  0.453078  0.383468  -0.291453
    C   C210  0.682485  0.377749  0.434664  -0.389238
    C   C211  0.755666  0.500324  0.289823  -0.436098
    C   C212  0.769313  0.527411  0.257703  -0.100173
    H   H175  0.762521  0.458237  0.385863  0.065356
    H   H176  0.689789  0.462115  0.391868  0.042558
    H   H177  0.722891  0.407936  0.449222  0.075542
    H   H178  0.824364  0.464470  0.314698  0.076957
    H   H179  0.793259  0.413714  0.381144  0.063997
    H   H180  0.651603  0.412270  0.448672  0.078337
    C   C213  0.569446  0.101546  0.867676  -0.228050
    C   C214  0.647244  0.135606  0.848126  -0.160853
    C   C215  0.652509  0.108174  0.899157  -0.214319
    H   H181  0.549228  0.066176  0.951189  0.019106
    H   H182  0.537269  0.108939  0.880383  0.041094
    H   H183  0.690357  0.152666  0.819172  0.032545
    H   H184  0.616046  0.145313  0.855841  0.019255
    H   H185  0.619785  0.102793  0.932469  0.039062
    H   H186  0.696648  0.113016  0.896869  0.049629
    C   C216  0.659469  0.034072  0.994140  -0.118174
    C   C217  0.626012  0.126676  0.826068  0.712669
    C   C218  0.580225  0.073946  0.914797  0.032548
    C   C219  0.642176  0.081612  0.907973  0.701230
    C   C220  0.683954  0.090120  0.860167  -0.169339
    C   C221  0.671179  0.115474  0.812210  -0.102146
    C   C222  0.651537  0.055526  0.955380  -0.400792
    C   C223  0.616658  0.152759  0.778651  -0.366679
    C   C224  0.608921  0.174102  0.739649  -0.131298
    H   H187  0.654458  0.107174  0.799091  -0.009308
    H   H188  0.711830  0.134092  0.779869  0.042207
    H   H189  0.678936  0.070399  0.867233  0.017936
    H   H190  0.551871  0.095872  0.851136  0.046730
    H   H191  0.573383  0.055755  0.918034  -0.040219
    H   H192  0.729303  0.097533  0.852982  0.046465
