# Generated by REPEAT Assigner based on pymatgen
data_DB0-m2_o11_o26_f0_pcu.sym.5
_audit_creation_date              2022-05-24
_audit_creation_method            REPEAT_Assigner
_cell_length_a                    9.549348
_cell_length_b                    11.016549
_cell_length_c                    17.333871
_cell_angle_alpha                 90.006749
_cell_angle_beta                  86.236813
_cell_angle_gamma                 90.019916
_cell_volume                      1819.606181
_symmetry_space_group_name_H-M    P1
_symmetry_Int_Tables_number       1
loop_
    _symmetry_equiv_pos_site_id
    _symmetry_equiv_pos_as_xyz
    1  x,y,z
loop_
    _atom_site_type_symbol
    _atom_site_label
    _atom_site_fract_x
    _atom_site_fract_y
    _atom_site_fract_z
    _atom_type_partial_charge
    O   O1   0.378144  0.667561  0.482292  -0.556058
    O   O2   0.619250  0.667942  0.481594  -0.637447
    C   C1   0.498635  0.724492  0.481366  0.691311
    O   O3   0.368195  0.502336  0.605989  -0.588558
    O   O4   0.609276  0.498287  0.602898  -0.592648
    C   C2   0.485996  0.506894  0.640527  0.614926
    Cu  Cu1  0.356810  0.492137  0.494130  0.884737
    Cu  Cu2  0.637535  0.491965  0.490328  1.010469
    O   O5   0.375696  0.316136  0.500606  -0.569625
    O   O6   0.616489  0.315582  0.494788  -0.628902
    O   O7   0.385063  0.474006  0.382113  -0.599585
    O   O8   0.626186  0.477428  0.378634  -0.591992
    C   C3   0.495363  0.259157  0.502170  0.737241
    C   C4   0.508278  0.475056  0.344088  0.651371
    C   C5   0.478441  0.511298  0.725282  -0.023508
    C   C6   0.597962  0.497886  0.765109  -0.087785
    C   C7   0.589254  0.498021  0.844815  -0.256193
    C   C8   0.460852  0.511097  0.886036  0.265594
    C   C9   0.340896  0.526391  0.845910  -0.150109
    C   C10  0.350485  0.526671  0.766073  -0.094905
    C   C11  0.400631  0.478544  0.140649  -0.212973
    C   C12  0.394209  0.481581  0.220332  -0.085469
    C   C13  0.641176  0.447615  0.218059  -0.096067
    C   C14  0.647039  0.442576  0.138434  -0.259267
    C   C15  0.527762  0.460602  0.099121  0.247209
    C   C16  0.452282  0.517926  0.971227  -0.229735
    C   C17  0.538859  0.455459  0.014103  -0.146591
    C   C18  0.514629  0.467529  0.259481  -0.020627
    H   H1   0.699565  0.486967  0.734642  0.105466
    H   H2   0.293782  0.496329  0.251359  0.105294
    H   H3   0.736735  0.435101  0.247199  0.114427
    H   H4   0.620968  0.399481  0.986720  0.088999
    H   H5   0.304167  0.487550  0.111967  0.135478
    H   H6   0.255669  0.536710  0.735926  0.103149
    H   H7   0.373371  0.576168  0.999431  0.116750
    H   H8   0.685333  0.491135  0.874001  0.161486
    H   H9   0.746580  0.426626  0.106739  0.155471
    C   C19  0.603935  0.059119  0.488368  -0.040516
    C   C20  0.491524  0.126387  0.511223  -0.247918
    H   H10  0.698977  0.103986  0.465821  0.109799
    C   C21  0.606475  0.925072  0.492138  -0.064515
    C   C22  0.496710  0.857023  0.474937  -0.239568
    H   H11  0.703632  0.881519  0.505609  0.126333
    H   H12  0.402177  0.898374  0.456012  0.136115
    C   C23  0.070343  0.588517  0.506859  0.065466
    N   N1   0.146884  0.492958  0.497397  -0.269253
    H   H13  0.118820  0.676926  0.510672  0.094355
    H   H14  0.096490  0.411536  0.507518  0.227577
    C   C24  0.915112  0.580615  0.515933  0.100328
    N   N2   0.847340  0.491502  0.488043  -0.374445
    H   H15  0.857896  0.653931  0.545276  0.113909
    H   H16  0.903382  0.434068  0.450919  0.269932
    C   C25  0.368342  0.072327  0.553751  0.263443
    C   C26  0.385433  0.007531  0.620756  -0.175565
    C   C27  0.270831  0.957049  0.661375  -0.116495
    C   C28  0.138596  0.970828  0.635205  -0.075254
    C   C29  0.120974  0.035052  0.568321  -0.173989
    C   C30  0.235406  0.085825  0.527670  -0.104825
    H   H17  0.488495  0.997490  0.642295  0.115492
    H   H18  0.284704  0.906854  0.713909  0.098641
    H   H19  0.048824  0.931090  0.667030  0.092137
    H   H20  0.017353  0.045277  0.547539  0.113086
    H   H21  0.220464  0.133789  0.474457  0.101803
    C   C31  0.202014  0.539674  0.886354  0.242845
    C   C32  0.152219  0.453341  0.939173  -0.155851
    C   C33  0.021326  0.466494  0.976747  -0.085838
    C   C34  0.939336  0.565416  0.961390  -0.132181
    C   C35  0.987517  0.650461  0.907720  -0.065292
    C   C36  0.118232  0.637301  0.869933  -0.222755
    H   H22  0.214889  0.374553  0.950812  0.097567
    H   H23  0.982966  0.399007  0.018173  0.090979
    H   H24  0.836975  0.576001  0.991074  0.097905
    H   H25  0.922918  0.727720  0.895365  0.091011
    H   H26  0.155710  0.705020  0.828413  0.134205
