# Generated by REPEAT Assigner based on pymatgen
data_DB0-m3_o2_o12_f0_pcu.sym.2
_audit_creation_date              2022-05-24
_audit_creation_method            REPEAT_Assigner
_cell_length_a                    11.235328
_cell_length_b                    15.247049
_cell_length_c                    14.026575
_cell_angle_alpha                 90.004949
_cell_angle_beta                  102.076778
_cell_angle_gamma                 89.993573
_cell_volume                      2349.651540
_symmetry_space_group_name_H-M    P1
_symmetry_Int_Tables_number       1
loop_
    _symmetry_equiv_pos_site_id
    _symmetry_equiv_pos_as_xyz
    1  x,y,z
loop_
    _atom_site_type_symbol
    _atom_site_label
    _atom_site_fract_x
    _atom_site_fract_y
    _atom_site_fract_z
    _atom_type_partial_charge
    O   O1   0.492884  0.371626  0.583704  -0.637400
    O   O2   0.488170  0.627822  0.414057  -0.631316
    O   O3   0.489521  0.366547  0.419108  -0.691797
    O   O4   0.491137  0.632941  0.578408  -0.652398
    C   C1   0.492511  0.327671  0.503234  0.821802
    C   C2   0.490273  0.671940  0.494628  0.770036
    O   O5   0.310717  0.501672  0.551326  -0.733159
    O   O6   0.670396  0.497703  0.446416  -0.726191
    O   O7   0.307710  0.496813  0.386625  -0.716248
    O   O8   0.673419  0.502874  0.611250  -0.739384
    C   C3   0.252386  0.499051  0.460157  0.883530
    C   C4   0.728704  0.500429  0.537647  0.903162
    Zn  Zn1  0.492120  0.502669  0.607402  1.050987
    Zn  Zn2  0.488977  0.496821  0.390318  1.039009
    H   H1   0.876649  0.497239  0.411577  0.116338
    H   H2   0.104464  0.502109  0.586239  0.112645
    C   C5   0.119002  0.498436  0.438988  -0.412036
    C   C6   0.862091  0.501040  0.558816  -0.390807
    C   C7   0.057278  0.500134  0.510540  0.024397
    C   C8   0.923827  0.499267  0.487273  -0.015591
    H   H3   0.910858  0.503139  0.634126  0.159438
    H   H4   0.070228  0.496408  0.363677  0.162971
    C   C9   0.535839  0.091634  0.585928  -0.363551
    C   C10  0.519216  0.908384  0.419833  -0.356841
    H   H5   0.574389  0.054104  0.650312  0.146660
    H   H6   0.546063  0.946003  0.362565  0.148969
    C   C11  0.539328  0.182331  0.589693  0.409078
    C   C12  0.521594  0.817688  0.416360  0.367858
    C   C13  0.492474  0.230875  0.505710  -0.331687
    C   C14  0.490062  0.768933  0.491967  -0.298264
    C   C15  0.445601  0.186600  0.419952  -0.017662
    C   C16  0.458820  0.813376  0.569321  -0.002430
    H   H7   0.408150  0.222256  0.353914  0.104488
    H   H8   0.433266  0.778017  0.628707  0.091773
    C   C17  0.443186  0.096308  0.417100  -0.241757
    C   C18  0.457584  0.903685  0.571998  -0.251840
    H   H9   0.403605  0.063919  0.349345  0.117523
    H   H10  0.430619  0.936100  0.632667  0.119118
    C   C19  0.487870  0.048195  0.500169  0.163573
    C   C20  0.487371  0.951805  0.497096  0.167605
    C   C21  0.389222  0.468010  0.084023  -0.159774
    C   C22  0.548595  0.568287  0.906958  -0.168570
    H   H11  0.308065  0.446676  0.033665  0.121834
    H   H12  0.592808  0.621383  0.951782  0.127967
    C   C23  0.390709  0.465829  0.182631  -0.024237
    C   C24  0.549513  0.568514  0.808673  0.004830
    H   H13  0.312058  0.441559  0.207392  0.145759
    H   H14  0.596114  0.620406  0.778772  0.131085
    N   N1   0.488451  0.494787  0.247586  -0.015925
    N   N2   0.492387  0.504791  0.750056  -0.058625
    C   C25  0.586254  0.525967  0.217061  -0.036142
    C   C26  0.433227  0.440242  0.786361  0.053378
    H   H15  0.664112  0.549769  0.269323  0.160659
    H   H16  0.387192  0.389570  0.738678  0.123320
    C   C27  0.588309  0.528356  0.119199  -0.154575
    C   C28  0.431380  0.437510  0.884200  -0.192942
    H   H17  0.669453  0.551690  0.097497  0.116075
    H   H18  0.386304  0.383238  0.911311  0.128864
    C   C29  0.488852  0.499558  0.051064  0.134039
    C   C30  0.489454  0.501987  0.946055  0.113149
    C   C31  0.599610  0.224263  0.683854  -0.449788
    H   H19  0.672055  0.269736  0.671688  0.129848
    H   H20  0.531321  0.259415  0.716240  0.106373
    H   H21  0.642605  0.173824  0.736894  0.094247
    C   C32  0.563181  0.776406  0.332155  -0.372103
    H   H22  0.641493  0.732265  0.359078  0.099355
    H   H23  0.487107  0.740083  0.285635  0.097445
    H   H24  0.593599  0.827268  0.286117  0.073851
