# Generated by REPEAT Assigner based on pymatgen
data_DB0-m3_o8_o21_f0_pcu.sym.3_sqe
_audit_creation_date              2022-05-24
_audit_creation_method            REPEAT_Assigner
_cell_length_a                    14.000616
_cell_length_b                    15.908814
_cell_length_c                    17.163912
_cell_angle_alpha                 89.123091
_cell_angle_beta                  90.300784
_cell_angle_gamma                 91.910299
_cell_volume                      3820.357734
_symmetry_space_group_name_H-M    P1
_symmetry_Int_Tables_number       1
loop_
    _symmetry_equiv_pos_site_id
    _symmetry_equiv_pos_as_xyz
    1  x,y,z
loop_
    _atom_site_type_symbol
    _atom_site_label
    _atom_site_fract_x
    _atom_site_fract_y
    _atom_site_fract_z
    _atom_type_partial_charge
    O   O1   0.497189  0.581576  0.386594  -0.668200
    O   O2   0.502874  0.418660  0.613466  -0.669357
    O   O3   0.510188  0.437507  0.381824  -0.664605
    O   O4   0.489875  0.562729  0.618237  -0.663133
    C   C1   0.505007  0.511600  0.347725  0.740826
    C   C2   0.495055  0.488636  0.652336  0.740079
    O   O5   0.634669  0.589826  0.506445  -0.663626
    O   O6   0.365394  0.410409  0.493616  -0.663101
    O   O7   0.648332  0.445744  0.502339  -0.629072
    O   O8   0.351732  0.554492  0.497722  -0.627199
    C   C3   0.685720  0.522115  0.505667  0.853266
    C   C4   0.314343  0.478121  0.494394  0.851232
    Zn  Zn1  0.490227  0.595062  0.503639  1.038312
    Zn  Zn2  0.509836  0.405174  0.496422  1.042172
    C   C5   0.212070  0.469402  0.493017  -0.328863
    C   C6   0.787993  0.530834  0.507042  -0.328902
    C   C7   0.023161  0.465057  0.492558  0.073581
    C   C8   0.976902  0.535179  0.507500  0.074426
    C   C9   0.874092  0.534102  0.507477  0.050683
    C   C10  0.125971  0.466135  0.492581  0.051315
    C   C11  0.509135  0.515779  0.262280  -0.020563
    C   C12  0.490920  0.484454  0.737781  -0.019185
    C   C13  0.522163  0.443603  0.220584  -0.246640
    C   C14  0.477870  0.556625  0.779478  -0.247418
    C   C15  0.527159  0.445862  0.140141  0.162225
    C   C16  0.472868  0.554362  0.859921  0.161387
    C   C17  0.516398  0.522187  0.099982  -0.029367
    C   C18  0.483649  0.478039  0.900077  -0.028270
    C   C19  0.506976  0.594855  0.142627  0.258332
    C   C20  0.493090  0.405374  0.857431  0.258443
    C   C21  0.502726  0.591540  0.223004  -0.302722
    C   C22  0.497343  0.408693  0.777055  -0.303185
    N   N1   0.520603  0.529766  0.017344  -0.091676
    N   N2   0.479442  0.470458  0.982715  -0.092425
    H   H1   0.470106  0.615907  0.749027  0.160046
    H   H2   0.529914  0.384321  0.251036  0.159935
    H   H3   0.494150  0.648718  0.255003  0.151245
    H   H4   0.505937  0.351518  0.745055  0.151463
    N   N3   0.525457  0.280806  0.490012  -0.204450
    N   N4   0.474607  0.719430  0.510049  -0.204377
    C   C23  0.458604  0.233591  0.528429  -0.019847
    C   C24  0.541461  0.766645  0.471633  -0.019037
    C   C25  0.458468  0.146860  0.527172  -0.201117
    C   C26  0.541598  0.853376  0.472891  -0.202110
    C   C27  0.528136  0.107402  0.485718  0.504174
    C   C28  0.471930  0.892834  0.514345  0.505365
    C   C29  0.596116  0.156138  0.447361  -0.450843
    C   C30  0.403949  0.844098  0.552701  -0.452564
    C   C31  0.594846  0.242798  0.449928  0.391687
    C   C32  0.405217  0.757438  0.550134  0.392318
    N   N5   0.532569  0.018869  0.481599  -0.210177
    N   N6   0.467497  0.981367  0.518464  -0.209738
    H   H5   0.596266  0.736390  0.439236  0.175379
    H   H6   0.403799  0.263845  0.560826  0.175462
    H   H7   0.597140  0.887697  0.441051  0.083308
    H   H8   0.402927  0.112539  0.559013  0.083055
    H   H9   0.651234  0.125389  0.415690  0.155599
    H   H10  0.348831  0.874847  0.584372  0.155849
    C   C33  0.030665  0.615446  0.524470  -0.229636
    H   H11  0.979013  0.665298  0.535160  0.075201
    H   H12  0.075815  0.607554  0.577224  0.080588
    H   H13  0.075895  0.634710  0.473970  0.083841
    C   C34  0.969399  0.384791  0.475587  -0.230029
    H   H14  0.021050  0.334939  0.464897  0.075225
    H   H15  0.924168  0.365526  0.526087  0.084029
    H   H16  0.924248  0.392682  0.422833  0.080841
    C   C35  0.447853  0.633864  0.899181  -0.322968
    H   H17  0.388096  0.621034  0.940267  0.140000
    H   H18  0.511391  0.661090  0.929532  0.086138
    H   H19  0.424035  0.681058  0.855746  0.068415
    C   C36  0.552152  0.366352  0.100884  -0.323619
    H   H20  0.488609  0.339141  0.070529  0.086386
    H   H21  0.611918  0.379167  0.059803  0.140033
    H   H22  0.575950  0.319152  0.144322  0.068515
    C   C37  0.500516  0.677834  0.101817  -0.284725
    H   H23  0.496679  0.729051  0.144615  0.078188
    H   H24  0.564747  0.689779  0.065249  0.065777
    H   H25  0.435067  0.678231  0.065324  0.082034
    C   C38  0.499567  0.322396  0.898239  -0.286331
    H   H26  0.503420  0.271181  0.855440  0.078724
    H   H27  0.565013  0.322009  0.934735  0.082428
    H   H28  0.435335  0.310437  0.934803  0.066146
    C   C39  0.672452  0.291952  0.408767  -0.314492
    H   H29  0.713806  0.249849  0.371856  0.094627
    H   H30  0.642359  0.340817  0.370402  0.113075
    H   H31  0.722568  0.320211  0.451867  0.114397
    C   C40  0.327610  0.708284  0.591292  -0.312538
    H   H32  0.286256  0.750388  0.628203  0.094274
    H   H33  0.277495  0.680028  0.548190  0.113615
    H   H34  0.357702  0.659418  0.629656  0.112446
