# generated using pymatgen
data_Zn6H66C77O24
_symmetry_space_group_name_H-M   'P 1'
_cell_length_a   21.90246400
_cell_length_b   21.90118400
_cell_length_c   22.22124300
_cell_angle_alpha   119.51662800
_cell_angle_beta   119.51232300
_cell_angle_gamma   90.00730500
_symmetry_Int_Tables_number   1
_chemical_formula_structural   Zn6H66C77O24
_chemical_formula_sum   'Zn6 H66 C77 O24'
_cell_volume   7646.09605105
_cell_formula_units_Z   1
loop_
 _symmetry_equiv_pos_site_id
 _symmetry_equiv_pos_as_xyz
  1  'x, y, z'
loop_
 _atom_site_type_symbol
 _atom_site_label
 _atom_site_symmetry_multiplicity
 _atom_site_fract_x
 _atom_site_fract_y
 _atom_site_fract_z
 _atom_site_occupancy
  Zn  Zn1  1  0.44026400  0.01377800  0.51380000  1
  Zn  Zn2  1  0.58534100  0.02121700  0.52825500  1
  Zn  Zn3  1  0.00698100  0.58172000  0.51643600  1
  Zn  Zn4  1  0.01197400  0.44869600  0.52651700  1
  Zn  Zn5  1  0.55892300  0.56439200  0.61766900  1
  Zn  Zn6  1  0.46135200  0.47253300  0.42803800  1
  H  H1  1  0.73084300  0.37505500  0.09067400  1
  H  H2  1  0.64654100  0.29944400  0.95317500  1
  H  H3  1  0.79953400  0.24739500  0.93700900  1
  H  H4  1  0.75608700  0.31808400  0.95792600  1
  H  H5  1  0.87536100  0.28725200  0.07305100  1
  H  H6  1  0.68749900  0.12479200  0.94290700  1
  H  H7  1  0.77240900  0.14938800  0.95417000  1
  H  H8  1  0.74167700  0.20392400  0.08490600  1
  H  H9  1  0.69818100  0.31186800  0.10519700  1
  H  H10  1  0.82798100  0.20500600  0.09369100  1
  H  H11  1  0.62856000  0.25877300  0.61463500  1
  H  H12  1  0.62726400  0.37178000  0.61639400  1
  H  H13  1  0.33817500  0.27759800  0.42962400  1
  H  H14  1  0.35538800  0.23330600  0.34443500  1
  H  H15  1  0.33795200  0.16769200  0.43190400  1
  H  H16  1  0.35603100  0.12366400  0.34742100  1
  H  H17  1  0.17176900  0.65958000  0.94877700  1
  H  H18  1  0.25556800  0.72159700  0.08858000  1
  H  H19  1  0.40168300  0.79936000  0.08236400  1
  H  H20  1  0.36970200  0.72921600  0.09023200  1
  H  H21  1  0.28592500  0.65476800  0.94990100  1
  H  H22  1  0.32642900  0.71950100  0.94136900  1
  H  H23  1  0.26234400  0.89343800  0.09258100  1
  H  H24  1  0.34604500  0.90046300  0.09544700  1
  H  H25  1  0.19719700  0.82978500  0.95139500  1
  H  H26  1  0.21584500  0.79568300  0.10061500  1
  H  H27  1  0.14081500  0.73875700  0.96042100  1
  H  H28  1  0.28084900  0.82650500  0.95398600  1
  H  H29  1  0.62802100  0.87720400  0.62872500  1
  H  H30  1  0.62583100  0.76658900  0.63206700  1
  H  H31  1  0.37140900  0.62129800  0.33769100  1
  H  H32  1  0.33864400  0.65740400  0.40930400  1
  H  H33  1  0.37281400  0.73283000  0.33865000  1
  H  H34  1  0.33929700  0.76847500  0.40959200  1
  H  H35  1  0.85400000  0.47531300  0.59992200  1
  H  H36  1  0.74239300  0.47729800  0.60099300  1
  H  H37  1  0.62514800  0.52440900  0.36298800  1
  H  H38  1  0.67232300  0.62159100  0.46072100  1
  H  H39  1  0.78535100  0.62490600  0.46309400  1
  H  H40  1  0.25454000  0.50109800  0.62363800  1
  H  H41  1  0.36868400  0.50646400  0.62736700  1
  H  H42  1  0.26235700  0.58591700  0.41801400  1
  H  H43  1  0.22433000  0.48197100  0.34120500  1
  H  H44  1  0.15132800  0.58549200  0.41773800  1
  H  H45  1  0.11350100  0.48145100  0.34171300  1
  H  H46  1  0.46982600  0.12664700  0.89320600  1
  H  H47  1  0.44931500  0.20518500  0.88890300  1
  H  H48  1  0.41725200  0.11595200  0.79341000  1
  H  H49  1  0.52799700  0.20444900  0.83976300  1
  H  H50  1  0.54294000  0.12045800  0.83381500  1
  H  H51  1  0.61359100  0.18285700  0.98269800  1
  H  H52  1  0.57835200  0.25855600  0.99511000  1
  H  H53  1  0.75534000  0.48673000  0.22244700  1
  H  H54  1  0.66205200  0.43419800  0.17479100  1
  H  H55  1  0.67733200  0.51127200  0.16825200  1
  H  H56  1  0.65089900  0.54678100  0.27489700  1
  H  H57  1  0.74483000  0.59755300  0.32304200  1
  H  H58  1  0.78882300  0.50437600  0.35403000  1
  H  H59  1  0.69556800  0.45891900  0.31255100  1
  H  H60  1  0.91883100  0.51997800  0.12467300  1
  H  H61  1  0.99730500  0.50578800  0.19396900  1
  H  H62  1  0.98707600  0.49308300  0.10236200  1
  H  H63  1  0.95150800  0.37300600  0.08175600  1
  H  H64  1  0.87546400  0.38647600  0.00950200  1
  H  H65  1  0.82599500  0.42472900  0.09623500  1
  H  H66  1  0.90726500  0.42416200  0.17630100  1
  C  C1  1  0.51131700  0.13689600  0.52104800  1
  C  C2  1  0.58733200  0.09898500  0.68474100  1
  C  C3  1  0.51439300  0.89823400  0.52118300  1
  C  C4  1  0.43824800  0.93587900  0.35731200  1
  C  C5  1  0.66589700  0.26509000  0.97801500  1
  C  C6  1  0.77447700  0.27662100  0.97151300  1
  C  C7  1  0.83146600  0.31386400  0.06470900  1
  C  C8  1  0.87997400  0.38076700  0.26766000  1
  C  C9  1  0.70745500  0.22144700  0.94164900  1
  C  C10  1  0.72093300  0.31729800  0.07259300  1
  C  C11  1  0.79311300  0.29930300  0.10029400  1
  C  C12  1  0.77585100  0.21771000  0.06682400  1
  C  C13  1  0.73437700  0.17200900  0.97206700  1
  C  C14  1  0.84082700  0.34297500  0.19207100  1
  C  C15  1  0.66257500  0.17760700  0.84990800  1
  C  C16  1  0.62741800  0.14189500  0.77444100  1
  C  C17  1  0.44868900  0.21197200  0.47089600  1
  C  C18  1  0.51192000  0.20370900  0.52142500  1
  C  C19  1  0.57705200  0.26199900  0.57308400  1
  C  C20  1  0.57624100  0.32628000  0.57434500  1
  C  C21  1  0.51106600  0.33142500  0.52071900  1
  C  C22  1  0.44865800  0.27151200  0.46885700  1
  C  C23  1  0.36794600  0.24429900  0.40435200  1
  C  C24  1  0.36807000  0.17391300  0.40615900  1
  C  C25  1  0.24244500  0.76149900  0.07083800  1
  C  C26  1  0.35215400  0.76336500  0.06478200  1
  C  C27  1  0.29958200  0.71318900  0.97010500  1
  C  C28  1  0.14006400  0.64991000  0.77518400  1
  C  C29  1  0.31310000  0.81087200  0.10032900  1
  C  C30  1  0.18997300  0.71968300  0.97655000  1
  C  C31  1  0.22921600  0.73387600  0.94228300  1
  C  C32  1  0.24858700  0.81518800  0.97528200  1
  C  C33  1  0.29437200  0.86142500  0.07027300  1
  C  C34  1  0.18035400  0.68863900  0.85065900  1
  C  C35  1  0.36079300  0.85538600  0.19199700  1
  C  C36  1  0.39771200  0.89202800  0.26753900  1
  C  C37  1  0.45360300  0.77141900  0.46752800  1
  C  C38  1  0.51510500  0.83282400  0.52344300  1
  C  C39  1  0.57799800  0.83002900  0.58268700  1
  C  C40  1  0.57654100  0.76747500  0.58496100  1
  C  C41  1  0.51325200  0.70577900  0.52539200  1
  C  C42  1  0.45331000  0.71061700  0.46691800  1
  C  C43  1  0.37557200  0.66878500  0.39296800  1
  C  C44  1  0.37615600  0.74027400  0.39341800  1
  C  C45  1  0.89071900  0.51719100  0.52278400  1
  C  C46  1  0.92637800  0.42865800  0.35755800  1
  C  C47  1  0.12829300  0.51330000  0.52042100  1
  C  C48  1  0.09266800  0.60177200  0.68537100  1
  C  C49  1  0.62924400  0.51801600  0.52234300  1
  C  C50  1  0.50969400  0.39868700  0.52211100  1
  C  C51  1  0.39098600  0.51870000  0.52340000  1
  C  C52  1  0.51099400  0.63828800  0.52364900  1
  C  C53  1  0.76937200  0.53852600  0.48056000  1
  C  C54  1  0.82400200  0.51650700  0.52269300  1
  C  C55  1  0.81269600  0.49284500  0.56508500  1
  C  C56  1  0.74947400  0.49417400  0.56597400  1
  C  C57  1  0.69501200  0.51536400  0.52085900  1
  C  C58  1  0.70750200  0.53610000  0.47796200  1
  C  C59  1  0.67591700  0.56574700  0.42576800  1
  C  C60  1  0.74854300  0.56821900  0.42837300  1
  C  C61  1  0.20285100  0.52367800  0.46930100  1
  C  C62  1  0.19598600  0.51479500  0.52270300  1
  C  C63  1  0.25674000  0.50773100  0.57958300  1
  C  C64  1  0.32170200  0.51138200  0.58214200  1
  C  C65  1  0.32518700  0.51843100  0.52505000  1
  C  C66  1  0.26312400  0.52331600  0.46882900  1
  C  C67  1  0.23284000  0.53164100  0.39811500  1
  C  C68  1  0.16166400  0.53149000  0.39829800  1
  C  C69  1  0.59858400  0.21908800  0.95995600  1
  C  C70  1  0.53402400  0.17306300  0.86806200  1
  C  C71  1  0.46304200  0.15410300  0.86064600  1
  C  C72  1  0.73556100  0.51274000  0.34401400  1
  C  C73  1  0.70621300  0.54216300  0.28944200  1
  C  C74  1  0.69981900  0.49005900  0.20838900  1
  C  C75  1  0.86799200  0.39623500  0.10777200  1
  C  C76  1  0.91261800  0.40545700  0.07598500  1
  C  C77  1  0.95680100  0.48643100  0.12777100  1
  O  O1  1  0.45468300  0.10457400  0.51280500  1
  O  O2  1  0.56779000  0.11247500  0.52933500  1
  O  O3  1  0.51465000  0.07819800  0.64000800  1
  O  O4  1  0.62563100  0.08128900  0.65179000  1
  O  O5  1  0.45777700  0.92248300  0.51268300  1
  O  O6  1  0.57100500  0.93051200  0.52939100  1
  O  O7  1  0.40001000  0.95372400  0.39029700  1
  O  O8  1  0.51094800  0.95667200  0.40202700  1
  O  O9  1  0.91554100  0.56652000  0.51610700  1
  O  O10  1  0.92246500  0.46784900  0.52894500  1
  O  O11  1  0.94253500  0.50019400  0.39231200  1
  O  O12  1  0.94984900  0.39913500  0.40066300  1
  O  O13  1  0.09640600  0.56246700  0.51378500  1
  O  O14  1  0.10358900  0.46407600  0.52725300  1
  O  O15  1  0.06936800  0.63128400  0.64227200  1
  O  O16  1  0.07629700  0.53021400  0.65066500  1
  O  O17  1  0.63886400  0.55141400  0.59554900  1
  O  O18  1  0.56380800  0.48551700  0.45085800  1
  O  O19  1  0.54943200  0.46225000  0.59532600  1
  O  O20  1  0.47081700  0.39276000  0.45066700  1
  O  O21  1  0.45646200  0.55130200  0.59478400  1
  O  O22  1  0.38141900  0.48545900  0.45021600  1
  O  O23  1  0.54954100  0.64410400  0.59499900  1
  O  O24  1  0.47096500  0.57472400  0.45042000  1
