# generated using pymatgen
data_V4H22C45N4O21
_symmetry_space_group_name_H-M   'P 1'
_cell_length_a   6.70875900
_cell_length_b   19.75377500
_cell_length_c   23.17546000
_cell_angle_alpha   100.92789600
_cell_angle_beta   90.59367400
_cell_angle_gamma   90.68466800
_symmetry_Int_Tables_number   1
_chemical_formula_structural   V4H22C45N4O21
_chemical_formula_sum   'V4 H22 C45 N4 O21'
_cell_volume   3015.13099522
_cell_formula_units_Z   1
loop_
 _symmetry_equiv_pos_site_id
 _symmetry_equiv_pos_as_xyz
  1  'x, y, z'
loop_
 _atom_site_type_symbol
 _atom_site_label
 _atom_site_symmetry_multiplicity
 _atom_site_fract_x
 _atom_site_fract_y
 _atom_site_fract_z
 _atom_site_occupancy
  V  V1  1  0.08478000  0.48572200  0.49951500  1
  V  V2  1  0.58544300  0.50321400  0.50082500  1
  V  V3  1  0.54944900  0.00076800  0.00004800  1
  V  V4  1  0.04881000  0.98529000  0.99905700  1
  H  H1  1  0.05358400  0.84851100  0.10282200  1
  H  H2  1  0.04757600  0.77660800  0.17875300  1
  H  H3  1  0.20750300  0.66666667  0.28950800  1
  H  H4  1  0.18890000  0.59298300  0.36389900  1
  H  H5  1  0.47218700  0.92031100  0.15243600  1
  H  H6  1  0.59069000  0.71167500  0.31259200  1
  H  H7  1  0.46495600  0.84775100  0.22761100  1
  H  H8  1  0.57128400  0.63711100  0.38617700  1
  H  H9  1  0.62485700  0.71154600  0.76513700  1
  H  H10  1  0.51054600  0.20578900  0.26934200  1
  H  H11  1  0.13738600  0.27301100  0.23021400  1
  H  H12  1  0.58155300  0.09343300  0.85706600  1
  H  H13  1  0.56161900  0.17197500  0.78665600  1
  H  H14  1  0.71709300  0.29982500  0.69295400  1
  H  H15  1  0.69724200  0.37557300  0.62025000  1
  H  H16  1  0.97833800  0.13659800  0.90501100  1
  H  H17  1  0.08342400  0.29734300  0.70347700  1
  H  H18  1  0.95682800  0.21383400  0.83348500  1
  H  H19  1  0.06337600  0.37170100  0.62969400  1
  H  H20  1  0.85919400  0.85157800  0.72740300  1
  H  H21  1  0.03416900  0.82044700  0.66952300  1
  H  H22  1  0.11553300  0.88148000  0.73420400  1
  C  C1  1  0.36103300  0.40224800  0.41103900  1
  C  C2  1  0.36711100  0.42210400  0.57675500  1
  C  C3  1  0.87300200  0.58649700  0.58944100  1
  C  C4  1  0.86714900  0.56673000  0.42351100  1
  C  C5  1  0.87887000  0.61052300  0.37952900  1
  C  C6  1  0.71114900  0.64365200  0.36500500  1
  C  C7  1  0.72209700  0.68551700  0.32379400  1
  C  C8  1  0.90020700  0.69368800  0.29656600  1
  C  C9  1  0.06779400  0.66023800  0.31080900  1
  C  C10  1  0.05737200  0.61897100  0.35254700  1
  C  C11  1  0.92135300  0.80831400  0.17304700  1
  C  C12  1  0.92472300  0.84862200  0.13045800  1
  C  C13  1  0.75576100  0.80782900  0.20781100  1
  C  C14  1  0.76328900  0.88892300  0.12311700  1
  C  C15  1  0.59889600  0.88889200  0.15830800  1
  C  C16  1  0.59472500  0.84814900  0.20040600  1
  C  C17  1  0.88679200  0.64005100  0.64073000  1
  C  C18  1  0.90340800  0.73850400  0.73545600  1
  C  C19  1  0.75332700  0.74600100  0.77307400  1
  C  C20  1  0.76118200  0.80046400  0.82396900  1
  C  C21  1  0.89522900  0.68490900  0.68392900  1
  C  C22  1  0.77086700  0.84665400  0.86616200  1
  C  C23  1  0.26952800  0.13196000  0.13790500  1
  C  C24  1  0.25613900  0.23593300  0.22820200  1
  C  C25  1  0.39185200  0.24285800  0.27113200  1
  C  C26  1  0.38010600  0.29936700  0.32019200  1
  C  C27  1  0.26523900  0.17918400  0.17926300  1
  C  C28  1  0.37055500  0.34652900  0.36147000  1
  C  C29  1  0.37911200  0.37820000  0.62057800  1
  C  C30  1  0.20703400  0.35612800  0.64377400  1
  C  C31  1  0.21827300  0.31451600  0.68517600  1
  C  C32  1  0.40147200  0.29407600  0.70265400  1
  C  C33  1  0.57349900  0.31584600  0.67922200  1
  C  C34  1  0.56239000  0.35837000  0.63852800  1
  C  C35  1  0.43335800  0.16411100  0.81258600  1
  C  C36  1  0.44443400  0.12001700  0.85198400  1
  C  C37  1  0.25804700  0.19762200  0.80579800  1
  C  C38  1  0.28123000  0.11029800  0.88530500  1
  C  C39  1  0.10634400  0.14427500  0.87891800  1
  C  C40  1  0.09423800  0.18751200  0.83878700  1
  C  C41  1  0.29431200  0.06407800  0.92727100  1
  C  C42  1  0.26918300  0.07636600  0.08806800  1
  C  C43  1  0.76292500  0.93086500  0.07765200  1
  C  C44  1  0.78795500  0.90246900  0.91564800  1
  C  C45  1  0.01587300  0.83665700  0.71764800  1
  N  N1  1  0.91022300  0.73613900  0.25420200  1
  N  N2  1  0.74932200  0.76578400  0.25053200  1
  N  N3  1  0.41290300  0.25062500  0.74416800  1
  N  N4  1  0.24646200  0.24200000  0.76502900  1
  O  O1  1  0.53377400  0.44484900  0.55926500  1
  O  O2  1  0.18798300  0.41552600  0.43495200  1
  O  O3  1  0.03348200  0.54342500  0.44053600  1
  O  O4  1  0.19197800  0.43045400  0.55503800  1
  O  O5  1  0.03800100  0.55928500  0.56801900  1
  O  O6  1  0.52917600  0.43012200  0.43195800  1
  O  O7  1  0.36070500  0.53750500  0.50345100  1
  O  O8  1  0.69738900  0.57297700  0.56580900  1
  O  O9  1  0.69334300  0.55903300  0.44581600  1
  O  O10  1  0.85761400  0.45143100  0.49691100  1
  O  O11  1  0.09619200  0.04219800  0.07752100  1
  O  O12  1  0.45850900  0.02775500  0.92643300  1
  O  O13  1  0.63520800  0.91266100  0.95215500  1
  O  O14  1  0.41095300  0.07921400  0.04844300  1
  O  O15  1  0.59265700  0.96306400  0.07187800  1
  O  O16  1  0.14099000  0.06288500  0.96286400  1
  O  O17  1  0.27267500  0.94752800  0.99707000  1
  O  O18  1  0.90486700  0.91781000  0.03711700  1
  O  O19  1  0.95478800  0.93918400  0.92021700  1
  O  O20  1  0.77604800  0.03884500  0.00371000  1
  O  O21  1  0.06497700  0.78232100  0.74548200  1
