# generated using pymatgen
data_FeH8C19O10
_symmetry_space_group_name_H-M   'P 1'
_cell_length_a   15.85540300
_cell_length_b   11.62667500
_cell_length_c   13.92460900
_cell_angle_alpha   88.89515800
_cell_angle_beta   97.41890100
_cell_angle_gamma   96.77206500
_symmetry_Int_Tables_number   1
_chemical_formula_structural   FeH8C19O10
_chemical_formula_sum   'Fe2 H16 C38 O20'
_cell_volume   2527.67105807
_cell_formula_units_Z   2
loop_
 _symmetry_equiv_pos_site_id
 _symmetry_equiv_pos_as_xyz
  1  'x, y, z'
loop_
 _atom_site_type_symbol
 _atom_site_label
 _atom_site_symmetry_multiplicity
 _atom_site_fract_x
 _atom_site_fract_y
 _atom_site_fract_z
 _atom_site_occupancy
  Fe  Fe1  1  0.49950200  0.01871600  0.77824500  1
  Fe  Fe2  1  0.49347000  0.99277500  0.20577200  1
  H  H1  1  0.22719600  0.98247000  0.76940200  1
  H  H2  1  0.17036700  0.01829700  0.10469800  1
  H  H3  1  0.82052100  0.99068000  0.87999600  1
  H  H4  1  0.76872700  0.05380100  0.21404000  1
  H  H5  1  0.91510600  0.05744100  0.17495600  1
  H  H6  1  0.50467400  0.41145500  0.64368100  1
  H  H7  1  0.46593600  0.42729800  0.33128100  1
  H  H8  1  0.46066600  0.58006600  0.63247000  1
  H  H9  1  0.44128000  0.10687300  0.47903400  1
  H  H10  1  0.51562700  0.90183900  0.49482100  1
  H  H11  1  0.04675900  0.98353000  0.54376700  1
  H  H12  1  0.97131000  0.03417800  0.61515700  1
  H  H13  1  0.98328400  0.88082900  0.61200600  1
  H  H14  1  0.72886600  0.40711500  0.35334800  1
  H  H15  1  0.72978700  0.53975000  0.28358600  1
  H  H16  1  0.64513900  0.42157200  0.25434500  1
  C  C1  1  0.21406600  0.98846600  0.84321700  1
  C  C2  1  0.13065500  0.98615900  0.86280700  1
  C  C3  1  0.11608800  0.00018700  0.95800000  1
  C  C4  1  0.18402200  0.01046900  0.03123900  1
  C  C5  1  0.26751300  0.01095400  0.01174900  1
  C  C6  1  0.28233000  0.00367100  0.91582300  1
  C  C7  1  0.03184900  0.00826100  0.98328600  1
  C  C8  1  0.96085300  0.01511300  0.00329900  1
  C  C9  1  0.80740500  0.00421000  0.95289300  1
  C  C10  1  0.72414300  0.00403500  0.97325500  1
  C  C11  1  0.71015600  0.01972300  0.06877200  1
  C  C12  1  0.77921800  0.04267700  0.13978000  1
  C  C13  1  0.86162500  0.04339800  0.11825600  1
  C  C14  1  0.87553400  0.02156500  0.02524300  1
  C  C15  1  0.45402100  0.18136300  0.65213800  1
  C  C16  1  0.36814800  0.02196500  0.88616600  1
  C  C17  1  0.65412300  0.99424500  0.89192600  1
  C  C18  1  0.48686200  0.81147700  0.66359100  1
  C  C19  1  0.46648600  0.19633900  0.30818800  1
  C  C20  1  0.33678700  0.01424500  0.09381100  1
  C  C21  1  0.62493400  0.99804900  0.09980500  1
  C  C22  1  0.54614600  0.83105200  0.33289000  1
  C  C23  1  0.46539900  0.25499600  0.56759800  1
  C  C24  1  0.48923600  0.37312300  0.57277200  1
  C  C25  1  0.48980000  0.43947600  0.48794600  1
  C  C26  1  0.47147900  0.38127400  0.39920900  1
  C  C27  1  0.46192700  0.26174800  0.39619100  1
  C  C28  1  0.45366600  0.20018100  0.48007100  1
  C  C29  1  0.53553700  0.63656100  0.41600700  1
  C  C30  1  0.53081800  0.75508300  0.41510900  1
  C  C31  1  0.51438000  0.80874300  0.49611700  1
  C  C32  1  0.49559500  0.74633100  0.57664500  1
  C  C33  1  0.48466400  0.62670500  0.57217800  1
  C  C34  1  0.50515100  0.56913800  0.49225800  1
  C  C35  1  0.06097700  0.97214000  0.78088100  1
  C  C36  1  0.01725800  0.96987300  0.61170200  1
  C  C37  1  0.58509400  0.58941400  0.34618300  1
  C  C38  1  0.68811700  0.46840400  0.31381400  1
  O  O1  1  0.51750500  0.17574300  0.72170400  1
  O  O2  1  0.41929300  0.11582200  0.91380700  1
  O  O3  1  0.39225000  0.09513500  0.64294800  1
  O  O4  1  0.38860500  0.95507800  0.81997700  1
  O  O5  1  0.57744100  0.01892200  0.90380500  1
  O  O6  1  0.67072400  0.97333700  0.80446600  1
  O  O7  1  0.51874900  0.92133700  0.66738900  1
  O  O8  1  0.45039400  0.76195000  0.73563400  1
  O  O9  1  0.47121600  0.08462600  0.31859600  1
  O  O10  1  0.47739900  0.24858700  0.22557200  1
  O  O11  1  0.41321500  0.98848700  0.08161200  1
  O  O12  1  0.32000700  0.03346000  0.18149600  1
  O  O13  1  0.60340200  0.92210900  0.34803800  1
  O  O14  1  0.60100200  0.06692200  0.16226900  1
  O  O15  1  0.48389100  0.83433300  0.26096600  1
  O  O16  1  0.57754000  0.89974600  0.07672800  1
  O  O17  1  0.98660100  0.94667400  0.79437000  1
  O  O18  1  0.08017700  0.98388300  0.68937500  1
  O  O19  1  0.57779600  0.62079300  0.26172600  1
  O  O20  1  0.64030000  0.51246600  0.37659400  1
