# Generated by REPEAT Assigner based on pymatgen
data_DB0-m3_o146_o159_f0_fsc.sym.42_sqe
_audit_creation_date              2022-05-24
_audit_creation_method            REPEAT_Assigner
_cell_length_a                    15.460912
_cell_length_b                    11.605449
_cell_length_c                    13.441528
_cell_angle_alpha                 90.145184
_cell_angle_beta                  89.993375
_cell_angle_gamma                 90.000000
_cell_volume                      2411.816668
_symmetry_space_group_name_H-M    P1
_symmetry_Int_Tables_number       1
loop_
    _symmetry_equiv_pos_site_id
    _symmetry_equiv_pos_as_xyz
    1  x,y,z
loop_
    _atom_site_type_symbol
    _atom_site_label
    _atom_site_fract_x
    _atom_site_fract_y
    _atom_site_fract_z
    _atom_type_partial_charge
    C   C1   0.317779  0.745554  0.001735  -0.151372
    C   C2   0.086941  0.942136  0.004362  -0.055397
    C   C3   0.213498  0.859727  0.089731  -0.269947
    H   H1   0.188998  0.893803  0.159141  0.125935
    C   C4   0.274241  0.767674  0.913846  -0.032912
    H   H2   0.295834  0.730428  0.844397  0.089960
    C   C5   0.287281  0.792913  0.089582  -0.012828
    H   H3   0.319528  0.776493  0.159439  0.083813
    C   C6   0.169155  0.879509  0.002418  0.268455
    C   C7   0.199781  0.833444  0.914502  -0.224564
    H   H4   0.164744  0.847513  0.846006  0.107390
    C   C8   0.309024  0.268292  0.008236  -0.233889
    C   C9   0.085042  0.060795  0.013350  0.084550
    C   C10  0.197966  0.165159  0.921963  -0.240534
    H   H5   0.165650  0.142875  0.853241  0.109841
    C   C11  0.278008  0.226242  0.097600  -0.027125
    H   H6   0.307768  0.250028  0.167419  0.069010
    C   C12  0.269548  0.235808  0.920207  0.058988
    H   H7   0.292464  0.267495  0.849428  0.061176
    C   C13  0.165811  0.125996  0.011351  0.165395
    C   C14  0.206710  0.155131  0.098997  -0.102648
    H   H8   0.181143  0.125288  0.169211  0.081380
    C   C15  0.707293  0.729264  0.005004  -0.128520
    C   C16  0.932054  0.937629  0.002520  -0.023654
    C   C17  0.805577  0.855684  0.089277  -0.213703
    H   H9   0.826298  0.898228  0.156828  0.110790
    C   C18  0.753816  0.744403  0.918051  -0.031979
    H   H10  0.735364  0.700492  0.850322  0.086253
    C   C19  0.733628  0.785241  0.090750  -0.064634
    H   H11  0.698500  0.774520  0.159622  0.111436
    C   C20  0.852488  0.869264  0.002684  0.186212
    C   C21  0.826775  0.812716  0.917409  -0.133390
    H   H12  0.863815  0.821975  0.849680  0.088427
    C   C22  0.010544  0.881313  0.997998  -0.136082
    C   C23  0.693683  0.246650  0.014744  -0.016291
    C   C24  0.929712  0.056690  0.009918  0.008299
    C   C25  0.795794  0.123270  0.929537  -0.226393
    H   H13  0.816542  0.077802  0.863486  0.093385
    C   C26  0.743923  0.233021  0.101379  -0.133242
    C   C27  0.719500  0.185499  0.929277  -0.015340
    C   C28  0.846714  0.117584  0.012846  0.305104
    C   C29  0.820026  0.171217  0.098412  -0.183695
    H   H14  0.859031  0.163866  0.164839  0.098640
    C   C30  0.006421  0.118583  0.014416  -0.310889
    H   H15  0.012187  0.788385  0.992498  0.089085
    O   O1   0.603138  0.614806  0.092358  -0.670600
    O   O2   0.601832  0.614601  0.921381  -0.670322
    C   C31  0.633043  0.650506  0.006503  0.737414
    O   O3   0.597516  0.375474  0.924035  -0.586759
    O   O4   0.591881  0.375814  0.094369  -0.547956
    C   C32  0.622972  0.334690  0.010681  0.567735
    O   O5   0.410749  0.385897  0.921411  -0.701352
    O   O6   0.411738  0.386436  0.092670  -0.694039
    C   C33  0.381073  0.350123  0.007313  0.861858
    O   O7   0.416440  0.625576  0.090369  -0.673040
    O   O8   0.421288  0.624823  0.918935  -0.670760
    C   C34  0.390402  0.663899  0.003644  0.767863
    Zn  Zn1  0.507985  0.497683  0.896173  1.034281
    Zn  Zn2  0.505704  0.503220  0.117685  0.996593
    C   C35  0.482765  0.409830  0.299729  -0.008024
    N   N1   0.504642  0.504780  0.248250  -0.013566
    C   C36  0.526344  0.601713  0.297186  0.015970
    C   C37  0.528272  0.604747  0.399651  -0.228740
    C   C38  0.505952  0.507806  0.454852  0.138331
    C   C39  0.481503  0.410816  0.402557  0.029646
    C   C40  0.530656  0.599367  0.616311  -0.198300
    C   C41  0.506883  0.504470  0.559335  -0.008234
    C   C42  0.482204  0.404419  0.609144  0.328570
    C   C43  0.454337  0.308722  0.554179  -0.393208
    C   C44  0.454791  0.313640  0.451895  -0.076097
    C   C45  0.530560  0.594018  0.718211  -0.028356
    N   N2   0.509201  0.496337  0.765546  0.023869
    C   C46  0.483215  0.403528  0.713056  -0.231077
    H   H16  0.542447  0.678921  0.256556  0.128346
    H   H17  0.462793  0.329234  0.754067  0.267783
    H   H18  0.434769  0.239057  0.409467  0.130121
    H   H19  0.547116  0.685618  0.432087  0.140115
    H   H20  0.549330  0.680881  0.585417  0.148285
    H   H21  0.465793  0.331705  0.260624  0.169797
    H   H22  0.546976  0.670764  0.759494  0.134976
    C   C47  0.722118  0.282507  0.198801  0.766133
    O   O9   0.655770  0.253515  0.241036  -0.575445
    O   O10  0.780886  0.347927  0.246918  -0.401987
    C   C48  0.764649  0.389939  0.340526  0.351985
    C   C49  0.841195  0.460790  0.375203  -0.328641
    H   H23  0.754604  0.317381  0.392796  -0.003614
    H   H24  0.706214  0.445362  0.339028  -0.016999
    H   H25  0.899848  0.405820  0.376825  0.099653
    H   H26  0.828231  0.494840  0.450914  0.065459
    H   H27  0.851573  0.533597  0.323274  0.092262
    C   C50  0.669004  0.179441  0.836746  0.588568
    O   O11  0.590393  0.171164  0.839275  -0.481904
    O   O12  0.711340  0.168279  0.749455  -0.378468
    C   C51  0.668328  0.152893  0.661321  0.345432
    C   C52  0.733490  0.140224  0.577947  -0.474842
    H   H28  0.626997  0.228860  0.646416  0.028485
    H   H29  0.628370  0.073645  0.665002  0.044331
    H   H30  0.774230  0.218741  0.574246  0.123633
    H   H31  0.698938  0.128431  0.506345  0.115122
    H   H32  0.775064  0.064182  0.592262  0.123957
    C   C53  0.004381  0.245507  0.015705  0.821896
    O   O13  0.044454  0.298980  0.078893  -0.553998
    O   O14  0.958197  0.303045  0.946689  -0.495115
    C   C54  0.956307  0.421185  0.945573  0.504170
    C   C55  0.900516  0.461382  0.859862  -0.279280
    H   H33  0.022807  0.455191  0.935658  -0.046215
    H   H34  0.928666  0.453870  0.016396  -0.065900
    H   H35  0.927261  0.427741  0.788954  0.059052
    H   H36  0.899880  0.556883  0.857904  0.051522
    H   H37  0.833611  0.428976  0.869897  0.074534
    C   C56  0.421503  0.200904  0.598262  0.813517
    O   O15  0.458885  0.154684  0.667295  -0.563696
    O   O16  0.354079  0.146867  0.554859  -0.463575
    C   C57  0.324069  0.043709  0.590541  0.491696
    C   C58  0.248035  0.004423  0.528116  -0.370283
    H   H38  0.302715  0.054304  0.668836  -0.040201
    H   H39  0.375985  0.977888  0.586251  -0.045502
    H   H40  0.195838  0.069818  0.532087  0.097703
    H   H41  0.223621  0.921026  0.556815  0.086881
    H   H42  0.268954  0.993654  0.449721  0.104055
