# Generated by REPEAT Assigner based on pymatgen
data_DB0-m9_o2_o23_f0_sra.sym.53_sqe
_audit_creation_date              2022-05-24
_audit_creation_method            REPEAT_Assigner
_cell_length_a                    6.324155
_cell_length_b                    16.839358
_cell_length_c                    19.927519
_cell_angle_alpha                 67.505541
_cell_angle_beta                  90.858177
_cell_angle_gamma                 90.997359
_cell_volume                      1960.336366
_symmetry_space_group_name_H-M    P1
_symmetry_Int_Tables_number       1
loop_
    _symmetry_equiv_pos_site_id
    _symmetry_equiv_pos_as_xyz
    1  x,y,z
loop_
    _atom_site_type_symbol
    _atom_site_label
    _atom_site_fract_x
    _atom_site_fract_y
    _atom_site_fract_z
    _atom_type_partial_charge
    O  O1   0.540017  0.422212  0.967735  -0.478660
    O  O2   0.743598  0.395812  0.052739  -0.570772
    O  O3   0.966789  0.519516  0.083732  -0.632954
    C  C1   0.626682  0.397216  0.107195  0.961427
    O  O4   0.831063  0.485556  0.903719  -0.661623
    O  O5   0.046946  0.608356  0.935169  -0.493993
    C  C2   0.655041  0.442565  0.909379  0.836970
    O  O6   0.464258  0.448995  0.096093  -0.564718
    O  O7   0.651707  0.570707  0.983276  -0.557855
    V  V1   0.922997  0.495575  0.995293  1.417969
    O  O8   0.333950  0.569773  0.888933  -0.598065
    C  C3   0.162610  0.614425  0.879586  0.971626
    O  O9   0.251210  0.597079  0.017373  -0.584718
    C  C4   0.136492  0.568603  0.077551  0.861808
    V  V2   0.423845  0.516085  0.991640  1.284457
    O  O10  0.146592  0.440407  0.006215  -0.582907
    C  C5   0.932215  0.686607  0.250978  -0.080755
    C  C6   0.322104  0.690908  0.255927  -0.277337
    C  C7   0.292041  0.732252  0.310509  -0.044521
    H  H1   0.863937  0.713367  0.345853  0.029208
    H  H2   0.945526  0.620326  0.292365  0.006529
    H  H3   0.465816  0.718075  0.223497  0.074552
    H  H4   0.339029  0.620491  0.284964  0.095064
    H  H5   0.249295  0.682261  0.363928  0.024858
    H  H6   0.440848  0.765180  0.315972  0.009231
    C  C8   0.105025  0.889650  0.366631  -0.163305
    C  C9   0.131220  0.709650  0.205807  0.579985
    C  C10  0.907544  0.749139  0.288285  -0.097306
    C  C11  0.115150  0.796719  0.284272  0.539608
    C  C12  0.155483  0.855586  0.206218  -0.112990
    C  C13  0.129593  0.804524  0.158402  -0.099458
    C  C14  0.107252  0.847478  0.329564  -0.343544
    C  C15  0.139220  0.659296  0.160193  -0.307484
    C  C16  0.141355  0.617919  0.122474  -0.190867
    H  H7   0.976782  0.820446  0.128527  0.017196
    H  H8   0.261452  0.820427  0.119170  0.016152
    H  H9   0.040913  0.908962  0.188954  0.050292
    H  H10  0.792658  0.690464  0.215548  0.010078
    H  H11  0.782489  0.795986  0.260380  0.022087
    H  H12  0.319004  0.881877  0.201664  0.032241
    H  H13  0.324973  0.519692  0.690722  0.118701
    C  C17  0.038955  0.781703  0.870044  -0.399780
    C  C18  0.979772  0.861694  0.866190  -0.056877
    C  C19  0.960156  0.928409  0.799808  -0.112349
    C  C20  0.000964  0.915240  0.737235  -0.204467
    C  C21  0.057756  0.834910  0.740613  0.265516
    C  C22  0.075419  0.767398  0.807234  0.363306
    C  C23  0.104049  0.823639  0.677272  -0.612231
    C  C24  0.166254  0.743757  0.680354  0.395433
    C  C25  0.183985  0.676267  0.746961  0.252877
    C  C26  0.137975  0.687546  0.810312  -0.598346
    C  C27  0.202410  0.729427  0.617535  -0.438913
    C  C28  0.261438  0.649427  0.621375  -0.010723
    C  C29  0.281275  0.582732  0.687757  -0.163960
    C  C30  0.240750  0.595933  0.750335  -0.185720
    H  H14  0.060434  0.731885  0.922951  0.258679
    H  H15  0.951654  0.872324  0.915461  0.084416
    H  H16  0.916357  0.991438  0.796842  0.103550
    H  H17  0.991957  0.968871  0.685704  0.116685
    H  H18  0.180581  0.779213  0.564630  0.267242
    H  H19  0.289244  0.638770  0.572097  0.075984
    H  H20  0.249818  0.542307  0.801866  0.104037
    H  H21  0.505159  0.501299  0.292717  0.073031
    C  C31  0.690963  0.223562  0.118571  -0.415803
    C  C32  0.721637  0.140693  0.123509  0.081684
    C  C33  0.720481  0.073760  0.190207  -0.124054
    C  C34  0.686933  0.089655  0.251981  -0.245181
    C  C35  0.658299  0.172678  0.247527  0.229491
    C  C36  0.662429  0.240343  0.180657  0.358081
    C  C37  0.618178  0.186722  0.310069  -0.585509
    C  C38  0.584966  0.269613  0.306029  0.392620
    C  C39  0.589010  0.337265  0.239167  0.231985
    C  C40  0.628844  0.323219  0.176606  -0.564802
    C  C41  0.556670  0.286399  0.368130  -0.391800
    C  C42  0.525957  0.369263  0.363200  -0.086470
    C  C43  0.526879  0.436185  0.296498  -0.052559
    C  C44  0.560319  0.420288  0.234719  -0.249114
    H  H22  0.685020  0.273867  0.065342  0.226118
    H  H23  0.743840  0.128143  0.074801  0.088295
    H  H24  0.742160  0.008644  0.193987  0.089416
    H  H25  0.679423  0.036325  0.303771  0.126896
    H  H26  0.562989  0.236113  0.421366  0.253589
    H  H27  0.503925  0.381816  0.411915  0.093976
    H  H28  0.567772  0.473631  0.182936  0.128350
    O  O11  0.780487  0.060603  0.391052  -0.565910
    O  O12  0.412949  0.026587  0.582710  -0.667842
    O  O13  0.198130  0.902576  0.552735  -0.476908
    C  C45  0.588378  0.070012  0.576569  0.912201
    O  O14  0.500724  0.114571  0.433526  -0.561496
    O  O15  0.278478  0.989594  0.403930  -0.632060
    C  C46  0.618656  0.112730  0.379487  0.969878
    O  O16  0.703810  0.089482  0.518411  -0.567068
    O  O17  0.593155  0.939865  0.504575  -0.570624
    V  V3   0.321630  0.015069  0.491669  1.396492
    O  O18  0.994729  0.912393  0.470799  -0.600771
    C  C47  0.109274  0.940096  0.410626  0.845297
    O  O19  0.910550  0.942014  0.598107  -0.604406
    C  C48  0.081031  0.896795  0.607931  0.962413
    V  V4   0.821252  0.994155  0.495249  1.339563
    O  O20  0.097884  0.070251  0.480078  -0.574812
    C  C49  0.811981  0.271672  0.687396  -0.238848
    C  C50  0.423176  0.268225  0.687716  -0.276540
    C  C51  0.403972  0.304489  0.746141  0.118372
    H  H29  0.731916  0.397447  0.683357  -0.014586
    H  H30  0.828577  0.307241  0.627998  0.045633
    H  H31  0.280852  0.228655  0.688072  0.049639
    H  H32  0.438081  0.321547  0.633849  0.042891
    H  H33  0.351699  0.372176  0.721338  -0.003839
    H  H34  0.286337  0.265386  0.786405  -0.007268
    C  C52  0.633677  0.392700  0.865105  -0.167356
    C  C53  0.619078  0.213398  0.702948  0.782977
    C  C54  0.784576  0.334795  0.723979  0.031201
    C  C55  0.618380  0.299882  0.782446  0.376079
    C  C56  0.668090  0.206776  0.827791  0.226196
    C  C57  0.622361  0.153949  0.782340  -0.296930
    C  C58  0.623827  0.350912  0.827700  -0.316992
    C  C59  0.617106  0.162951  0.657233  -0.351518
    C  C60  0.608882  0.120848  0.620066  -0.203084
    H  H35  0.746977  0.105110  0.792287  0.072095
    H  H36  0.465890  0.121565  0.797010  0.023250
    H  H37  0.838602  0.202379  0.842394  -0.047495
    H  H38  0.954546  0.232446  0.709561  0.020192
    H  H39  0.937281  0.343583  0.748515  -0.024746
    C  C61  0.541561  0.171723  0.895822  -0.145318
    C  C62  0.577292  0.088488  0.943533  -0.042051
    C  C63  0.464998  0.053837  0.007192  -0.369801
    C  C64  0.315919  0.102323  0.023400  0.361306
    C  C65  0.195162  0.065170  0.092068  -0.389109
    C  C66  0.278980  0.185347  0.975877  -0.337410
    C  C67  0.391260  0.220178  0.912189  0.047054
    H  H40  0.694446  0.050335  0.931021  0.095282
    H  H41  0.494072  0.988662  0.044414  0.159798
    H  H42  0.247401  0.998423  0.122926  0.084087
    H  H43  0.023869  0.064927  0.079383  0.083269
    H  H44  0.224384  0.104426  0.125111  0.111004
    H  H45  0.161779  0.223333  0.988575  0.148219
    H  H46  0.358645  0.285237  0.876045  0.071595
