# Generated by REPEAT Assigner based on pymatgen
data_DB0-m2_o18_o21_f0_pcu.sym.55_sqe
_audit_creation_date              2022-05-24
_audit_creation_method            REPEAT_Assigner
_cell_length_a                    14.013856
_cell_length_b                    14.524864
_cell_length_c                    15.038914
_cell_angle_alpha                 115.103807
_cell_angle_beta                  105.798882
_cell_angle_gamma                 71.997723
_cell_volume                      2600.654385
_symmetry_space_group_name_H-M    P1
_symmetry_Int_Tables_number       1
loop_
    _symmetry_equiv_pos_site_id
    _symmetry_equiv_pos_as_xyz
    1  x,y,z
loop_
    _atom_site_type_symbol
    _atom_site_label
    _atom_site_fract_x
    _atom_site_fract_y
    _atom_site_fract_z
    _atom_type_partial_charge
    O   O1   0.531569  0.013928  0.659971  -0.494118
    O   O2   0.464222  0.985578  0.338969  -0.534942
    O   O3   0.485039  0.159833  0.620495  -0.578195
    O   O4   0.510718  0.839933  0.378363  -0.571334
    C   C1   0.509094  0.115688  0.686220  0.675061
    C   C2   0.481995  0.884261  0.312594  0.708568
    O   O5   0.660406  0.921905  0.527633  -0.636451
    O   O6   0.329188  0.077940  0.471162  -0.627439
    O   O7   0.613216  0.064043  0.481372  -0.637328
    O   O8   0.376259  0.936117  0.517265  -0.632610
    C   C3   0.682292  0.990856  0.506339  0.947630
    C   C4   0.307167  0.009424  0.492679  0.876643
    Cu  Cu1  0.521628  0.915073  0.522253  0.791605
    Cu  Cu2  0.468200  0.085031  0.476518  0.818349
    C   C5   0.202314  0.014544  0.488507  -0.319362
    C   C6   0.787107  0.985657  0.510272  -0.371745
    C   C7   0.008339  0.026201  0.479739  -0.072011
    C   C8   0.981149  0.973318  0.518812  -0.079584
    C   C9   0.875398  0.980595  0.513916  0.079215
    C   C10  0.114048  0.019290  0.484695  0.053753
    H   H1   0.038454  0.924265  0.554333  0.148151
    H   H2   0.950822  0.075198  0.444307  0.145185
    C   C11  0.518319  0.183499  0.793130  -0.247451
    C   C12  0.477515  0.816264  0.205991  -0.262126
    C   C13  0.547411  0.210756  0.965325  -0.489709
    C   C14  0.465172  0.787550  0.035343  -0.437949
    C   C15  0.543689  0.142929  0.867195  0.493009
    C   C16  0.466035  0.855501  0.133283  0.460286
    C   C17  0.501852  0.290585  0.819750  -0.093900
    C   C18  0.485974  0.710361  0.178658  -0.089896
    C   C19  0.511158  0.358852  0.919279  -0.077454
    C   C20  0.487512  0.640936  0.080012  -0.035122
    C   C21  0.531837  0.316642  0.990911  0.316422
    C   C22  0.475543  0.682242  0.009262  0.267471
    C   C23  0.499074  0.467562  0.949276  0.112989
    C   C24  0.501657  0.532017  0.050189  0.070003
    C   C25  0.521042  0.485453  0.119181  -0.192339
    C   C26  0.487107  0.513231  0.881046  -0.207498
    C   C27  0.537012  0.379681  0.089661  -0.230261
    C   C28  0.475882  0.618634  0.911113  -0.217903
    H   H3   0.553632  0.346553  0.145854  0.120427
    H   H4   0.467472  0.651396  0.856194  0.124224
    H   H5   0.489798  0.685038  0.237047  0.106807
    H   H6   0.479460  0.318651  0.760150  0.119528
    H   H7   0.560248  0.181876  0.023837  0.238380
    H   H8   0.460930  0.815212  0.977806  0.206543
    H   H9   0.527228  0.527276  0.198111  0.145116
    H   H10  0.488939  0.469945  0.803079  0.145478
    N   N1   0.426695  0.212249  0.442119  -0.020457
    N   N2   0.562618  0.787222  0.555863  -0.031453
    C   C29  0.311370  0.312398  0.353673  -0.268307
    C   C30  0.673542  0.690100  0.649196  -0.284532
    C   C31  0.342147  0.224510  0.376299  0.004228
    C   C32  0.644290  0.777213  0.625404  0.029613
    C   C33  0.481050  0.286954  0.489651  -0.091584
    C   C34  0.506302  0.714273  0.510671  -0.077729
    C   C35  0.453651  0.377422  0.468273  -0.025861
    C   C36  0.532757  0.624114  0.532786  -0.039392
    C   C37  0.367178  0.388414  0.399117  0.294488
    C   C38  0.618572  0.613439  0.602565  0.300034
    C   C39  0.509270  0.456661  0.513713  0.045882
    C   C40  0.476765  0.545098  0.488091  0.060822
    C   C41  0.388523  0.552689  0.418770  -0.112243
    C   C42  0.596951  0.449567  0.583928  -0.108276
    C   C43  0.334982  0.475472  0.375305  -0.289534
    C   C44  0.650149  0.526870  0.627163  -0.281003
    H   H11  0.266948  0.483634  0.321418  0.148467
    H   H12  0.718118  0.518421  0.680910  0.143990
    H   H13  0.442303  0.728616  0.456183  0.149112
    H   H14  0.545789  0.272533  0.543447  0.148580
    H   H15  0.687679  0.837128  0.662157  0.125332
    H   H16  0.298314  0.165028  0.340475  0.129325
    H   H17  0.243023  0.321296  0.300358  0.139766
    H   H18  0.738937  0.683134  0.705914  0.135710
    H   H19  0.357385  0.617802  0.395570  0.125441
    H   H20  0.628253  0.385492  0.608819  0.125359
    O   O9   0.462511  0.957394  0.158717  -0.413610
    C   C45  0.410827  0.012782  0.100660  0.850533
    O   O10  0.337786  0.986901  0.038070  -0.562566
    C   C46  0.439233  0.110403  0.118076  -0.516936
    H   H21  0.518891  0.091358  0.106368  0.107472
    H   H22  0.433066  0.165376  0.195609  0.156000
    H   H23  0.387856  0.146675  0.065464  0.132133
    O   O11  0.558163  0.039431  0.843761  -0.464648
    C   C47  0.623799  0.987495  0.900371  0.906142
    O   O12  0.696524  0.021307  0.957113  -0.577842
    C   C48  0.611386  0.884421  0.888416  -0.582960
    H   H24  0.544819  0.863712  0.830390  0.142921
    H   H25  0.599288  0.888556  0.960019  0.137203
    H   H26  0.680896  0.824066  0.866368  0.176266
