# generated using pymatgen
data_Zn3H28C61(BrO3)4
_symmetry_space_group_name_H-M   'P 1'
_cell_length_a   27.83622200
_cell_length_b   27.86680600
_cell_length_c   27.91177900
_cell_angle_alpha   109.41388300
_cell_angle_beta   109.65085300
_cell_angle_gamma   109.25047400
_symmetry_Int_Tables_number   1
_chemical_formula_structural   Zn3H28C61(BrO3)4
_chemical_formula_sum   'Zn6 H56 C122 Br8 O24'
_cell_volume   16687.28368744
_cell_formula_units_Z   2
loop_
 _symmetry_equiv_pos_site_id
 _symmetry_equiv_pos_as_xyz
  1  'x, y, z'
loop_
 _atom_site_type_symbol
 _atom_site_label
 _atom_site_symmetry_multiplicity
 _atom_site_fract_x
 _atom_site_fract_y
 _atom_site_fract_z
 _atom_site_occupancy
  Zn  Zn1  1  0.50071500  0.45648500  0.45456500  1
  Zn  Zn2  1  0.50017700  0.54936700  0.54929700  1
  Zn  Zn3  1  0.95073800  0.45765500  0.00219000  1
  Zn  Zn4  1  0.04336800  0.55017600  0.99929500  1
  Zn  Zn5  1  0.04395500  0.00536700  0.54730600  1
  Zn  Zn6  1  0.94897200  0.00361300  0.45168200  1
  H  H1  1  0.66090100  0.40773700  0.66533100  1
  H  H2  1  0.69613100  0.54686900  0.77762000  1
  H  H3  1  0.65181600  0.46901000  0.74208000  1
  H  H4  1  0.72284700  0.47169900  0.81607700  1
  H  H5  1  0.76705400  0.54635100  0.84624400  1
  H  H6  1  0.77613200  0.55460200  0.69914400  1
  H  H7  1  0.76715300  0.59151500  0.75733700  1
  H  H8  1  0.83556500  0.53203800  0.74946900  1
  H  H9  1  0.16150100  0.26110300  0.49638300  1
  H  H10  1  0.25439000  0.16670100  0.49755600  1
  H  H11  1  0.33091500  0.24178200  0.49676300  1
  H  H12  1  0.33115500  0.59735600  0.33933100  1
  H  H13  1  0.25545900  0.59745900  0.26207000  1
  H  H14  1  0.24537700  0.41133800  0.24012900  1
  H  H15  1  0.75828400  0.76443200  0.59611500  1
  H  H16  1  0.83338200  0.84068900  0.59488700  1
  H  H17  1  0.73831400  0.74587900  0.40794600  1
  H  H18  1  0.66322600  0.66963300  0.40917400  1
  H  H19  1  0.08802000  0.26049100  0.75746000  1
  H  H20  1  0.90107000  0.17050500  0.66248400  1
  H  H21  1  0.90130700  0.24550800  0.74024200  1
  H  H22  1  0.99331500  0.76100900  0.16410800  1
  H  H23  1  0.99174300  0.83634300  0.23971000  1
  H  H24  1  0.00959800  0.75207000  0.34153600  1
  H  H25  1  0.79964300  0.38185500  0.78120300  1
  H  H26  1  0.75816300  0.30766700  0.80276300  1
  H  H27  1  0.59392300  0.30121300  0.73296800  1
  H  H28  1  0.63197900  0.37555200  0.71163800  1
  H  H29  1  0.79597600  0.48570000  0.65571500  1
  H  H30  1  0.78776400  0.45943000  0.56109500  1
  H  H31  1  0.60754800  0.33298800  0.47773100  1
  H  H32  1  0.61339900  0.35850600  0.57182600  1
  H  H33  1  0.70417200  0.32816400  0.63424500  1
  H  H34  1  0.75201700  0.28369800  0.59213500  1
  H  H35  1  0.91844300  0.43431600  0.72269600  1
  H  H36  1  0.87373600  0.47964000  0.76632400  1
  H  H37  1  0.80926600  0.63303300  0.85434200  1
  H  H38  1  0.89110600  0.72125000  0.94316900  1
  H  H39  1  0.01148500  0.67513900  0.90783700  1
  H  H40  1  0.93034700  0.58568700  0.81848300  1
  H  H41  1  0.23851300  0.33348700  0.41495400  1
  H  H42  1  0.22868800  0.41755000  0.41451000  1
  H  H43  1  0.21674800  0.45737200  0.56975200  1
  H  H44  1  0.22777100  0.37407000  0.57127100  1
  H  H45  1  0.13052000  0.35864500  0.19636400  1
  H  H46  1  0.05249800  0.26402700  0.10873200  1
  H  H47  1  0.09817000  0.32529700  0.00106400  1
  H  H48  1  0.17685100  0.41969700  0.08843000  1
  H  H49  1  0.08443200  0.32946800  0.91150600  1
  H  H50  1  0.17918900  0.41074500  0.99692700  1
  H  H51  1  0.23217300  0.45543300  0.88429100  1
  H  H52  1  0.13710600  0.37488100  0.79869100  1
  H  H53  1  0.93966900  0.63786400  0.28123100  1
  H  H54  1  0.94972900  0.55922200  0.29656100  1
  H  H55  1  0.10074300  0.60343900  0.27647100  1
  H  H56  1  0.09179800  0.68291700  0.26232600  1
  C  C1  1  0.41935700  0.42013200  0.50007000  1
  C  C2  1  0.58179000  0.50277400  0.58328100  1
  C  C3  1  0.58150700  0.58571200  0.50373400  1
  C  C4  1  0.41906000  0.50304700  0.42057900  1
  C  C5  1  0.70559700  0.43948700  0.68058200  1
  C  C6  1  0.69576100  0.50489400  0.75821600  1
  C  C7  1  0.74309400  0.50450500  0.80486600  1
  C  C8  1  0.86854700  0.50009500  0.87352000  1
  C  C9  1  0.70818400  0.49875500  0.70836200  1
  C  C10  1  0.74955100  0.43272100  0.72733900  1
  C  C11  1  0.78549100  0.49423400  0.78484200  1
  C  C12  1  0.81423700  0.54430900  0.77402500  1
  C  C13  1  0.76755700  0.55108500  0.73404000  1
  C  C14  1  0.83082600  0.49743300  0.83370100  1
  C  C15  1  0.66332300  0.50070100  0.66408900  1
  C  C16  1  0.62619300  0.50184900  0.62732700  1
  C  C17  1  0.19894400  0.25724100  0.49659000  1
  C  C18  1  0.20358900  0.20971900  0.49725600  1
  C  C19  1  0.25073400  0.20393000  0.49688700  1
  C  C20  1  0.29347000  0.24588300  0.49618000  1
  C  C21  1  0.28891200  0.29338900  0.49527100  1
  C  C22  1  0.24115400  0.29897100  0.49491600  1
  C  C23  1  0.15919400  0.16608000  0.49812900  1
  C  C24  1  0.33545600  0.33789000  0.49741600  1
  C  C25  1  0.37406200  0.37538400  0.49887900  1
  C  C26  1  0.12201100  0.12926300  0.49881400  1
  C  C27  1  0.25331800  0.55649300  0.25695000  1
  C  C28  1  0.20813100  0.50444800  0.20701000  1
  C  C29  1  0.20515000  0.45188600  0.20065000  1
  C  C30  1  0.24714400  0.45207100  0.24480200  1
  C  C31  1  0.29251000  0.50421300  0.29436500  1
  C  C32  1  0.29562500  0.55644500  0.30043000  1
  C  C33  1  0.16335200  0.50550500  0.16333100  1
  C  C34  1  0.33696600  0.50404100  0.33916000  1
  C  C35  1  0.37439500  0.50368100  0.37645300  1
  C  C36  1  0.12564200  0.50586000  0.12631100  1
  C  C37  1  0.79597500  0.80310900  0.55409400  1
  C  C38  1  0.79034000  0.79786800  0.50134100  1
  C  C39  1  0.74267400  0.74995300  0.44927900  1
  C  C40  1  0.70061100  0.70723200  0.44996900  1
  C  C41  1  0.70624900  0.71245600  0.50271500  1
  C  C42  1  0.75390600  0.76038200  0.55478400  1
  C  C43  1  0.83416700  0.84222600  0.50061200  1
  C  C44  1  0.66248100  0.66796000  0.50336100  1
  C  C45  1  0.62559900  0.63047900  0.50368100  1
  C  C46  1  0.87103500  0.87944900  0.50001900  1
  C  C47  1  0.99490400  0.42083800  0.91961100  1
  C  C48  1  0.91362800  0.50215800  0.91966800  1
  C  C49  1  0.99902700  0.58700600  0.08166700  1
  C  C50  1  0.08049700  0.50567500  0.08186400  1
  C  C51  1  0.99606600  0.08571400  0.58003600  1
  C  C52  1  0.07790400  0.08525200  0.49961300  1
  C  C53  1  0.99686900  0.92327900  0.41897400  1
  C  C54  1  0.91503700  0.92373800  0.49939600  1
  C  C55  1  0.04716600  0.25767500  0.75384400  1
  C  C56  1  0.99464800  0.21136000  0.70544900  1
  C  C57  1  0.94223700  0.20683200  0.70056100  1
  C  C58  1  0.94239200  0.24869000  0.74428000  1
  C  C59  1  0.99485100  0.29470900  0.79316600  1
  C  C60  1  0.04760300  0.29924200  0.79822200  1
  C  C61  1  0.99471800  0.16723200  0.66075600  1
  C  C62  1  0.99398400  0.33877100  0.83722100  1
  C  C63  1  0.99405600  0.37604900  0.87470300  1
  C  C64  1  0.99517200  0.13005900  0.62369200  1
  C  C65  1  0.99626000  0.80129900  0.24551400  1
  C  C66  1  0.00033000  0.79835600  0.29489100  1
  C  C67  1  0.00592800  0.75365100  0.30235400  1
  C  C68  1  0.00809800  0.71189100  0.26065400  1
  C  C69  1  0.00322200  0.71455900  0.21066400  1
  C  C70  1  0.99741800  0.75924700  0.20331400  1
  C  C71  1  0.99900100  0.84210600  0.33869900  1
  C  C72  1  0.00129400  0.66970200  0.16469800  1
  C  C73  1  0.00000900  0.63194400  0.12653000  1
  C  C74  1  0.99797400  0.87906700  0.37539500  1
  C  C75  1  0.72011200  0.38581100  0.74164000  1
  C  C76  1  0.75391300  0.36519900  0.76884700  1
  C  C77  1  0.73073400  0.32257800  0.78180800  1
  C  C78  1  0.67321600  0.29907900  0.76844300  1
  C  C79  1  0.63902200  0.31886200  0.74260700  1
  C  C80  1  0.66168800  0.36152200  0.72940900  1
  C  C81  1  0.70524800  0.42516500  0.62277800  1
  C  C82  1  0.75365400  0.45300900  0.61796500  1
  C  C83  1  0.74951200  0.43770200  0.56387100  1
  C  C84  1  0.69715100  0.39476000  0.51349800  1
  C  C85  1  0.64881900  0.36682300  0.51727000  1
  C  C86  1  0.65269900  0.38169900  0.57122700  1
  C  C87  1  0.78355300  0.40965300  0.70212500  1
  C  C88  1  0.75136900  0.35307100  0.65401800  1
  C  C89  1  0.77819100  0.32735200  0.62987800  1
  C  C90  1  0.83810500  0.35672100  0.65403000  1
  C  C91  1  0.87112800  0.41165400  0.70273600  1
  C  C92  1  0.84459800  0.43776400  0.72707300  1
  C  C93  1  0.86298100  0.60101000  0.82958000  1
  C  C94  1  0.85301600  0.64047700  0.86512600  1
  C  C95  1  0.89944100  0.69109700  0.91568500  1
  C  C96  1  0.95630400  0.70343000  0.93130000  1
  C  C97  1  0.96683200  0.66540000  0.89585400  1
  C  C98  1  0.92060400  0.61480900  0.84517700  1
  C  C99  1  0.23518800  0.34901800  0.49397900  1
  C  C100  1  0.23468000  0.36106600  0.44963800  1
  C  C101  1  0.22871700  0.40807200  0.44905400  1
  C  C102  1  0.22254000  0.44282200  0.49233100  1
  C  C103  1  0.22186700  0.43027900  0.53595200  1
  C  C104  1  0.22787300  0.38330700  0.53662300  1
  C  C105  1  0.15792700  0.39588700  0.14805800  1
  C  C106  1  0.12361300  0.35158300  0.15354300  1
  C  C107  1  0.07963400  0.29842600  0.10432100  1
  C  C108  1  0.07024800  0.28912600  0.04951000  1
  C  C109  1  0.10510600  0.33284300  0.04395800  1
  C  C110  1  0.14903500  0.38601200  0.09309400  1
  C  C111  1  0.10399500  0.34772400  0.84959400  1
  C  C112  1  0.11638200  0.35758300  0.90536000  1
  C  C113  1  0.16976100  0.40297600  0.95337600  1
  C  C114  1  0.21124400  0.43830400  0.94585900  1
  C  C115  1  0.19951800  0.42791200  0.89023100  1
  C  C116  1  0.14612500  0.38250800  0.84215200  1
  C  C117  1  0.01426900  0.66479100  0.26947500  1
  C  C118  1  0.97526800  0.63064400  0.28031000  1
  C  C119  1  0.98073500  0.58627400  0.28873400  1
  C  C120  1  0.02554300  0.57622900  0.28696100  1
  C  C121  1  0.06526200  0.61093900  0.27732400  1
  C  C122  1  0.05988900  0.65535000  0.26895000  1
  Br  Br1  1  0.64139100  0.24029600  0.78671200  1
  Br  Br2  1  0.69168900  0.37381900  0.43880300  1
  Br  Br3  1  0.87546700  0.32065000  0.62156600  1
  Br  Br4  1  0.02028100  0.77322300  0.00153800  1
  Br  Br5  1  0.21442400  0.50788300  0.49156700  1
  Br  Br6  1  0.00954400  0.21566300  0.98142400  1
  Br  Br7  1  0.28497000  0.50114500  0.01234700  1
  Br  Br8  1  0.03284600  0.51465300  0.29825200  1
  O  O1  1  0.43763900  0.40398500  0.46314500  1
  O  O2  1  0.43948600  0.47505400  0.53728100  1
  O  O3  1  0.56154900  0.46668800  0.52795000  1
  O  O4  1  0.56338900  0.53944400  0.60043600  1
  O  O5  1  0.56134900  0.53079000  0.46652300  1
  O  O6  1  0.56321400  0.60185700  0.54066100  1
  O  O7  1  0.43748300  0.46638900  0.40342800  1
  O  O8  1  0.43932800  0.53915700  0.47591400  1
  O  O9  1  0.95891600  0.40483300  0.93888900  1
  O  O10  1  0.03149500  0.47568700  0.93895000  1
  O  O11  1  0.89769400  0.46603000  0.93883700  1
  O  O12  1  0.96864800  0.53854600  0.93891900  1
  O  O13  1  0.96256400  0.53215100  0.06249000  1
  O  O14  1  0.03513200  0.60298600  0.06252900  1
  O  O15  1  0.02547000  0.46924100  0.06250200  1
  O  O16  1  0.09637000  0.54171900  0.06256700  1
  O  O17  1  0.03358500  0.06825300  0.59772600  1
  O  O18  1  0.95925000  0.06470300  0.52463400  1
  O  O19  1  0.09515100  0.06790000  0.53725300  1
  O  O20  1  0.02251300  0.06431800  0.46248400  1
  O  O21  1  0.03367800  0.94431300  0.47438500  1
  O  O22  1  0.95933900  0.94072200  0.40125800  1
  O  O23  1  0.97042100  0.94467300  0.53651400  1
  O  O24  1  0.89777400  0.94107900  0.46174100  1
