# generated using pymatgen
data_Zn6H71C110NO26
_symmetry_space_group_name_H-M   'P 1'
_cell_length_a   19.21404000
_cell_length_b   18.77773200
_cell_length_c   18.82614300
_cell_angle_alpha   108.86343900
_cell_angle_beta   110.24587100
_cell_angle_gamma   109.65574500
_symmetry_Int_Tables_number   1
_chemical_formula_structural   Zn6H71C110NO26
_chemical_formula_sum   'Zn6 H71 C110 N1 O26'
_cell_volume   5205.42111179
_cell_formula_units_Z   1
loop_
 _symmetry_equiv_pos_site_id
 _symmetry_equiv_pos_as_xyz
  1  'x, y, z'
loop_
 _atom_site_type_symbol
 _atom_site_label
 _atom_site_symmetry_multiplicity
 _atom_site_fract_x
 _atom_site_fract_y
 _atom_site_fract_z
 _atom_site_occupancy
  Zn  Zn1  1  0.50569100  0.43232800  0.42887500  1
  Zn  Zn2  1  0.50562300  0.56996000  0.56779600  1
  Zn  Zn3  1  0.92861400  0.43112700  0.00117800  1
  Zn  Zn4  1  0.06323600  0.57465500  0.00315200  1
  Zn  Zn5  1  0.07366100  0.00884300  0.57089600  1
  Zn  Zn6  1  0.93295100  0.01091000  0.43606600  1
  H  H1  1  0.64630600  0.36221700  0.60357500  1
  H  H2  1  0.81130900  0.60363700  0.90449700  1
  H  H3  1  0.79139500  0.60159900  0.69668800  1
  H  H4  1  0.88713600  0.61809600  0.82063600  1
  H  H5  1  0.52778900  0.12336000  0.47412400  1
  H  H6  1  0.42945300  0.11999800  0.34672200  1
  H  H7  1  0.33257600  0.17541600  0.35697600  1
  H  H8  1  0.43606900  0.24299200  0.62430900  1
  H  H9  1  0.53122800  0.18571000  0.61350600  1
  H  H10  1  0.25642500  0.13091600  0.50901400  1
  H  H11  1  0.24095900  0.37291400  0.47259900  1
  H  H12  1  0.60768800  0.37951500  0.67897000  1
  H  H13  1  0.07953300  0.25149500  0.33203000  1
  H  H14  1  0.95176500  0.26678300  0.29336100  1
  H  H15  1  0.89881300  0.29170100  0.39554900  1
  H  H16  1  0.97487600  0.30238900  0.53727500  1
  H  H17  1  0.10313000  0.28852300  0.57652000  1
  H  H18  1  0.22710800  0.11899300  0.16600000  1
  H  H19  1  0.25478800  0.18547200  0.07835800  1
  H  H20  1  0.26514500  0.32766700  0.11143600  1
  H  H21  1  0.21802000  0.33604300  0.31838800  1
  H  H22  1  0.20921300  0.19469400  0.28610300  1
  H  H23  1  0.71258200  0.36286600  0.76035600  1
  H  H24  1  0.37628100  0.63960400  0.38151100  1
  H  H25  1  0.39535900  0.71817900  0.29385200  1
  H  H26  1  0.41923100  0.86490600  0.32856600  1
  H  H27  1  0.30950900  0.90109200  0.33653600  1
  H  H28  1  0.17591300  0.79008600  0.31043200  1
  H  H29  1  0.15156600  0.64298300  0.27543300  1
  H  H30  1  0.42476600  0.44593100  0.10903100  1
  H  H31  1  0.56956200  0.46748400  0.15043600  1
  H  H32  1  0.69109200  0.57995500  0.29789900  1
  H  H33  1  0.52281100  0.64939400  0.36298700  1
  H  H34  1  0.76705000  0.37734200  0.70027700  1
  H  H35  1  0.40184500  0.53746800  0.21479000  1
  H  H36  1  0.74881600  0.75332200  0.37251000  1
  H  H37  1  0.76555200  0.76503900  0.64242900  1
  H  H38  1  0.93402400  0.81676200  0.71500800  1
  H  H39  1  0.04996300  0.93621200  0.86224100  1
  H  H40  1  0.07967200  0.08641100  0.90589200  1
  H  H41  1  0.99238600  0.11673000  0.80247600  1
  H  H42  1  0.87663600  0.99770100  0.65463500  1
  H  H43  1  0.61362800  0.13248500  0.68483700  1
  H  H44  1  0.71567000  0.11937300  0.79462600  1
  H  H45  1  0.76969300  0.49349200  0.63164200  1
  H  H46  1  0.86401700  0.17376000  0.82462900  1
  H  H47  1  0.80861300  0.25575300  0.63605000  1
  H  H48  1  0.66081000  0.20098200  0.60556100  1
  H  H49  1  0.88013600  0.13443900  0.62790200  1
  H  H50  1  0.14223200  0.38750700  0.89298500  1
  H  H51  1  0.19587800  0.28237500  0.92228900  1
  H  H52  1  0.33859800  0.29828900  0.96784900  1
  H  H53  1  0.40073600  0.30435800  0.87415000  1
  H  H54  1  0.31949800  0.29487600  0.73446400  1
  H  H55  1  0.17733700  0.27957300  0.68904100  1
  H  H56  1  0.88386000  0.52326700  0.74989700  1
  H  H57  1  0.95531200  0.41965500  0.32122400  1
  H  H58  1  0.83266100  0.39896900  0.19906600  1
  H  H59  1  0.84499800  0.51898600  0.16869400  1
  H  H60  1  0.10240500  0.68119000  0.38349600  1
  H  H61  1  0.08979300  0.56124000  0.41400700  1
  H  H62  1  0.98689000  0.74527000  0.37460200  1
  H  H63  1  0.99026600  0.75741300  0.11945900  1
  H  H64  1  0.87306800  0.80655700  0.09361800  1
  H  H65  1  0.87408100  0.92449000  0.06353000  1
  H  H66  1  0.99008100  0.07616400  0.17095300  1
  H  H67  1  0.73230500  0.62065200  0.79698900  1
  H  H68  1  0.10558900  0.10898700  0.30749900  1
  H  H69  1  0.10632900  0.99154000  0.33756200  1
  H  H70  1  0.64044100  0.52792000  0.77501100  1
  H  H71  1  0.72396000  0.49703700  0.86349700  1
  C  C1  1  0.38547200  0.37749200  0.49391900  1
  C  C2  1  0.80515300  0.49690100  0.80801300  1
  C  C3  1  0.98971200  0.81812100  0.30830600  1
  C  C4  1  0.98798200  0.82011800  0.23461500  1
  C  C5  1  0.98840900  0.75409000  0.17508200  1
  C  C6  1  0.98601100  0.68377700  0.18500600  1
  C  C7  1  0.98248800  0.67946300  0.25625700  1
  C  C8  1  0.92443100  0.87300200  0.14093200  1
  C  C9  1  0.92477600  0.93920700  0.12396900  1
  C  C10  1  0.98969100  0.02412200  0.18408500  1
  C  C11  1  0.05451600  0.04259200  0.26076800  1
  C  C12  1  0.05440900  0.97651700  0.27784100  1
  C  C13  1  0.84528400  0.54786400  0.77071800  1
  C  C14  1  0.98852400  0.89152100  0.21848500  1
  C  C15  1  0.76201700  0.53906500  0.84545200  1
  C  C16  1  0.43205000  0.14849000  0.40815500  1
  C  C17  1  0.37843100  0.18064200  0.41428900  1
  C  C18  1  0.38135700  0.21691600  0.49257500  1
  C  C19  1  0.43588500  0.21783400  0.56381000  1
  C  C20  1  0.48901500  0.18504600  0.55750000  1
  C  C21  1  0.48719100  0.15040800  0.47971400  1
  C  C22  1  0.25334500  0.18517400  0.50281200  1
  C  C23  1  0.62353600  0.49852700  0.61903700  1
  C  C24  1  0.18302100  0.19408800  0.49421600  1
  C  C25  1  0.17639600  0.25982400  0.47859700  1
  C  C26  1  0.24424800  0.31949300  0.48069500  1
  C  C27  1  0.31443700  0.31012300  0.48920400  1
  C  C28  1  0.31622400  0.23916800  0.49537100  1
  C  C29  1  0.05686000  0.26276700  0.37745600  1
  C  C30  1  0.98489100  0.27113000  0.35550400  1
  C  C31  1  0.95517300  0.28501900  0.41270900  1
  C  C32  1  0.99772200  0.29088600  0.49202800  1
  C  C33  1  0.06970300  0.28253100  0.51396400  1
  C  C34  1  0.62530600  0.62474500  0.50206200  1
  C  C35  1  0.09903200  0.26734500  0.45636200  1
  C  C36  1  0.24690600  0.21864600  0.13122500  1
  C  C37  1  0.25257200  0.29834100  0.14973100  1
  C  C38  1  0.24261800  0.34086900  0.21731700  1
  C  C39  1  0.22652000  0.30321500  0.26595600  1
  C  C40  1  0.22114100  0.22369700  0.24754600  1
  C  C41  1  0.23133300  0.18137600  0.18026600  1
  C  C42  1  0.18246700  0.42777600  0.17724600  1
  C  C43  1  0.18744200  0.50700600  0.19083800  1
  C  C44  1  0.25919000  0.58378700  0.26380800  1
  C  C45  1  0.38641200  0.50255400  0.37788900  1
  C  C46  1  0.32183500  0.57986900  0.32387100  1
  C  C47  1  0.31720400  0.50148900  0.31088600  1
  C  C48  1  0.24775700  0.42499400  0.23613300  1
  C  C49  1  0.34671300  0.73343500  0.29719200  1
  C  C50  1  0.36022000  0.81597200  0.31655600  1
  C  C51  1  0.29873700  0.83625500  0.32097900  1
  C  C52  1  0.22376000  0.77393500  0.30610100  1
  C  C53  1  0.21001600  0.69123600  0.28625600  1
  C  C54  1  0.27110700  0.67032800  0.28102900  1
  C  C55  1  0.55928300  0.50711700  0.19738200  1
  C  C56  1  0.66379000  0.40498500  0.67086900  1
  C  C57  1  0.62747300  0.57031900  0.28022500  1
  C  C58  1  0.61449700  0.62050400  0.34068400  1
  C  C59  1  0.53318500  0.60867500  0.31697200  1
  C  C60  1  0.46523900  0.54609900  0.23373300  1
  C  C61  1  0.47814300  0.49496200  0.17416100  1
  C  C62  1  0.75306600  0.75577400  0.43210700  1
  C  C63  1  0.82322000  0.82443500  0.51152500  1
  C  C64  1  0.82803000  0.82743600  0.58789300  1
  C  C65  1  0.76218800  0.76219100  0.58298200  1
  C  C66  1  0.69229900  0.69330600  0.50341500  1
  C  C67  1  0.73773800  0.40440300  0.73464300  1
  C  C68  1  0.68806300  0.68994700  0.42722000  1
  C  C69  1  0.94700300  0.88268800  0.73365200  1
  C  C70  1  0.01219600  0.94973400  0.81638600  1
  C  C71  1  0.02887900  0.03389300  0.84084800  1
  C  C72  1  0.98013800  0.05092400  0.78262300  1
  C  C73  1  0.91541700  0.98404900  0.69953500  1
  C  C74  1  0.89917100  0.89972200  0.67449600  1
  C  C75  1  0.00149100  0.38729600  0.88402500  1
  C  C76  1  0.87323800  0.49721600  0.87816300  1
  C  C77  1  0.99020100  0.61796500  0.12084000  1
  C  C78  1  0.77506500  0.53705500  0.69193800  1
  C  C79  1  0.11907400  0.50841600  0.12548100  1
  C  C80  1  0.01556600  0.13397600  0.63065400  1
  C  C81  1  0.11659200  0.12916300  0.49678000  1
  C  C82  1  0.99272500  0.88715700  0.37640300  1
  C  C83  1  0.88981500  0.89183000  0.51127100  1
  C  C84  1  0.73633700  0.15030400  0.76055900  1
  C  C85  1  0.81960900  0.18138600  0.77780500  1
  C  C86  1  0.84632500  0.22165400  0.73494700  1
  C  C87  1  0.78863900  0.22707800  0.67191200  1
  C  C88  1  0.70528200  0.19552600  0.65430100  1
  C  C89  1  0.70302100  0.55057000  0.77762900  1
  C  C90  1  0.67912900  0.15755400  0.69885300  1
  C  C91  1  0.93835800  0.19111400  0.68511400  1
  C  C92  1  0.01689900  0.20125400  0.69849900  1
  C  C93  1  0.09114100  0.27015600  0.77636700  1
  C  C94  1  0.08463800  0.33184500  0.83417100  1
  C  C95  1  0.00545400  0.32098300  0.82030700  1
  C  C96  1  0.93191300  0.24665700  0.74756900  1
  C  C97  1  0.22282500  0.28559400  0.88085900  1
  C  C98  1  0.30306100  0.29429600  0.90654200  1
  C  C99  1  0.33782500  0.29752000  0.85398600  1
  C  C100  1  0.69053100  0.49772500  0.68905800  1
  C  C101  1  0.29229100  0.29213300  0.77574400  1
  C  C102  1  0.21198700  0.28323200  0.74998000  1
  C  C103  1  0.17635900  0.27903500  0.80191500  1
  C  C104  1  0.89242300  0.46055400  0.23872500  1
  C  C105  1  0.89965600  0.52773300  0.22125000  1
  C  C106  1  0.97630600  0.60611300  0.27089100  1
  C  C107  1  0.04359500  0.61869600  0.34178400  1
  C  C108  1  0.03644600  0.55150900  0.35922100  1
  C  C109  1  0.96106000  0.47219900  0.30730700  1
  C  C110  1  0.98788700  0.74822500  0.31854200  1
  N  N1  1  0.11159400  0.34871100  0.10040000  1
  O  O1  1  0.41614800  0.35407800  0.44388600  1
  O  O2  1  0.05428200  0.47006200  0.91495100  1
  O  O3  1  0.85039100  0.44550100  0.90905100  1
  O  O4  1  0.95377900  0.55059000  0.90692700  1
  O  O5  1  0.93864700  0.53552900  0.09047100  1
  O  O6  1  0.04316400  0.64441600  0.09355800  1
  O  O7  1  0.03831900  0.45406500  0.09625000  1
  O  O8  1  0.14159800  0.56138800  0.09606200  1
  O  O9  1  0.06523900  0.10210200  0.65316200  1
  O  O10  1  0.96017100  0.10507700  0.54911800  1
  O  O11  1  0.14203200  0.10003200  0.54974700  1
  O  O12  1  0.41231600  0.45937200  0.54530000  1
  O  O13  1  0.03539000  0.09985700  0.44418600  1
  O  O14  1  0.04537600  0.91353000  0.45794800  1
  O  O15  1  0.94267900  0.91879400  0.35394400  1
  O  O16  1  0.97114700  0.92107500  0.56384800  1
  O  O17  1  0.86442900  0.91850400  0.45597300  1
  O  O18  1  0.06458900  0.28515900  0.10662200  1
  O  O19  1  0.09771900  0.33745600  0.02386900  1
  O  O20  1  0.59511400  0.44588900  0.53702700  1
  O  O21  1  0.59601500  0.55218800  0.64243400  1
  O  O22  1  0.59733900  0.54289600  0.44954800  1
  O  O23  1  0.59656000  0.64828800  0.55418900  1
  O  O24  1  0.41379900  0.44865000  0.35430900  1
  O  O25  1  0.41773200  0.55791300  0.45978700  1
  O  O26  1  0.94743300  0.36132000  0.90982000  1
