# generated using pymatgen
data_CuH12C20S2NO4
_symmetry_space_group_name_H-M   'P 1'
_cell_length_a   17.75960600
_cell_length_b   16.22542900
_cell_length_c   14.44019400
_cell_angle_alpha   90.00000000
_cell_angle_beta   90.00173600
_cell_angle_gamma   90.00000000
_symmetry_Int_Tables_number   1
_chemical_formula_structural   CuH12C20S2NO4
_chemical_formula_sum   'Cu2 H24 C40 S4 N2 O8'
_cell_volume   4161.04624722
_cell_formula_units_Z   2
loop_
 _symmetry_equiv_pos_site_id
 _symmetry_equiv_pos_as_xyz
  1  'x, y, z'
loop_
 _atom_site_type_symbol
 _atom_site_label
 _atom_site_symmetry_multiplicity
 _atom_site_fract_x
 _atom_site_fract_y
 _atom_site_fract_z
 _atom_site_occupancy
  Cu  Cu1  1  0.50025900  0.57920900  0.50107700  1
  Cu  Cu2  1  0.50094200  0.41458200  0.49852700  1
  H  H1  1  0.87631200  0.58278300  0.39078700  1
  H  H2  1  0.12243000  0.37682600  0.56380100  1
  H  H3  1  0.12161200  0.61268200  0.43700400  1
  H  H4  1  0.87458200  0.41452800  0.61687900  1
  H  H5  1  0.57546400  0.85990000  0.61919900  1
  H  H6  1  0.42984700  0.13033400  0.38260900  1
  H  H7  1  0.43665900  0.86254900  0.37905900  1
  H  H8  1  0.57606700  0.13467300  0.61618100  1
  H  H9  1  0.57082500  0.70896700  0.61927500  1
  H  H10  1  0.42710200  0.28162200  0.38363000  1
  H  H11  1  0.43499200  0.71145000  0.38051100  1
  H  H12  1  0.57233900  0.28579600  0.61367000  1
  H  H13  1  0.69018800  0.54184100  0.20641500  1
  H  H14  1  0.69036800  0.46809500  0.29984900  1
  H  H15  1  0.77883300  0.50526200  0.25167300  1
  H  H16  1  0.29486200  0.22180900  0.47738300  1
  H  H17  1  0.27781400  0.31632500  0.41501100  1
  H  H18  1  0.20006800  0.26133200  0.46848000  1
  H  H19  1  0.31397900  0.75137400  0.52727700  1
  H  H20  1  0.26724600  0.66509300  0.58066600  1
  H  H21  1  0.21217100  0.74362200  0.52235000  1
  H  H22  1  0.68929300  0.45936300  0.79901200  1
  H  H23  1  0.68779300  0.53227000  0.70469400  1
  H  H24  1  0.77704800  0.49609000  0.75097000  1
  C  C1  1  0.35498100  0.49527100  0.49833200  1
  C  C2  1  0.64528800  0.49846900  0.50109000  1
  C  C3  1  0.50195800  0.49894100  0.32209600  1
  C  C4  1  0.49968400  0.49496300  0.67754000  1
  C  C5  1  0.50269800  0.49997600  0.22274900  1
  C  C6  1  0.50019800  0.49412600  0.77688400  1
  C  C7  1  0.50281000  0.49923400  0.13928900  1
  C  C8  1  0.50090800  0.49480100  0.86031700  1
  C  C9  1  0.50236100  0.49777500  0.04152100  1
  C  C10  1  0.50174500  0.49635300  0.95808900  1
  C  C11  1  0.84548600  0.54618600  0.44052800  1
  C  C12  1  0.15293400  0.42852000  0.53496700  1
  C  C13  1  0.15240800  0.56070000  0.46481500  1
  C  C14  1  0.84455300  0.45160400  0.56678900  1
  C  C15  1  0.76781000  0.54654100  0.43938200  1
  C  C16  1  0.23065600  0.42703200  0.53314600  1
  C  C17  1  0.23009200  0.56171000  0.46380000  1
  C  C18  1  0.76682700  0.45205600  0.56671000  1
  C  C19  1  0.72792500  0.49908600  0.50239700  1
  C  C20  1  0.27112300  0.49454300  0.49827800  1
  C  C21  1  0.88396100  0.49846900  0.50372800  1
  C  C22  1  0.11379300  0.49491500  0.50103200  1
  C  C23  1  0.96489100  0.49678600  0.50323900  1
  C  C24  1  0.03282000  0.49547600  0.50257700  1
  C  C25  1  0.54318800  0.82783500  0.56706700  1
  C  C26  1  0.46180100  0.16406500  0.43374900  1
  C  C27  1  0.46603400  0.82913500  0.43289600  1
  C  C28  1  0.54335200  0.16640200  0.56400800  1
  C  C29  1  0.53997400  0.74291300  0.56729300  1
  C  C30  1  0.46075000  0.24907100  0.43416300  1
  C  C31  1  0.46461900  0.74422600  0.43444000  1
  C  C32  1  0.54137200  0.25129000  0.56230900  1
  C  C33  1  0.50511400  0.87130600  0.49997500  1
  C  C34  1  0.50367500  0.12239100  0.49883700  1
  C  C35  1  0.50570400  0.95970100  0.49973800  1
  C  C36  1  0.50504900  0.03396200  0.49938500  1
  C  C37  1  0.72015600  0.52200500  0.27006000  1
  C  C38  1  0.26019600  0.27863100  0.47531100  1
  C  C39  1  0.26567900  0.70839100  0.52115900  1
  C  C40  1  0.71817400  0.47878500  0.73449100  1
  S  S1  1  0.72042300  0.60629100  0.35287400  1
  S  S2  1  0.27441900  0.33710500  0.58126400  1
  S  S3  1  0.27300400  0.65100700  0.41335500  1
  S  S4  1  0.71790700  0.39363000  0.65298900  1
  N  N1  1  0.49879800  0.70246300  0.50324500  1
  N  N2  1  0.50196300  0.29131600  0.49650800  1
  O  O1  1  0.39058100  0.56605900  0.50400200  1
  O  O2  1  0.61045100  0.42727300  0.49690800  1
  O  O3  1  0.60944900  0.56895900  0.50479000  1
  O  O4  1  0.39162900  0.42511600  0.49360100  1
  O  O5  1  0.50314900  0.56917600  0.36647900  1
  O  O6  1  0.49713800  0.42468500  0.63320800  1
  O  O7  1  0.50236200  0.56627900  0.63555500  1
  O  O8  1  0.49973200  0.42759800  0.36406700  1
