# generated using pymatgen
data_Cu3H36C52(NO4)4
_symmetry_space_group_name_H-M   'P 1'
_cell_length_a   30.05036300
_cell_length_b   30.05036300
_cell_length_c   21.55797500
_cell_angle_alpha   90.00000000
_cell_angle_beta   90.00000000
_cell_angle_gamma   90.00000000
_symmetry_Int_Tables_number   1
_chemical_formula_structural   Cu3H36C52(NO4)4
_chemical_formula_sum   'Cu12 H144 C208 N16 O64'
_cell_volume   19467.37563803
_cell_formula_units_Z   4
loop_
 _symmetry_equiv_pos_site_id
 _symmetry_equiv_pos_as_xyz
  1  'x, y, z'
loop_
 _atom_site_type_symbol
 _atom_site_label
 _atom_site_symmetry_multiplicity
 _atom_site_fract_x
 _atom_site_fract_y
 _atom_site_fract_z
 _atom_site_occupancy
  Cu  Cu1  1  0.45664100  0.00000000  0.00000000  1
  Cu  Cu2  1  0.00000000  0.54335900  0.00000000  1
  Cu  Cu3  1  0.54335900  0.00000000  0.00000000  1
  Cu  Cu4  1  0.00000000  0.45664100  0.00000000  1
  Cu  Cu5  1  0.95664100  0.50000000  0.50000000  1
  Cu  Cu6  1  0.50000000  0.04335900  0.50000000  1
  Cu  Cu7  1  0.04335900  0.50000000  0.50000000  1
  Cu  Cu8  1  0.50000000  0.95664100  0.50000000  1
  Cu  Cu9  1  0.50000000  0.50000000  0.06086400  1
  Cu  Cu10  1  0.50000000  0.50000000  0.93913500  1
  Cu  Cu11  1  0.00000000  0.00000000  0.56086400  1
  Cu  Cu12  1  0.00000000  0.00000000  0.43913500  1
  H  H1  1  0.39476900  0.10863700  0.19322800  1
  H  H2  1  0.10863700  0.60523100  0.19322800  1
  H  H3  1  0.60523100  0.89136200  0.19322800  1
  H  H4  1  0.89136200  0.39476900  0.19322800  1
  H  H5  1  0.60523100  0.10863700  0.80677200  1
  H  H6  1  0.89136200  0.60523100  0.80677200  1
  H  H7  1  0.39476900  0.89136200  0.80677200  1
  H  H8  1  0.10863700  0.39476900  0.80677200  1
  H  H9  1  0.89476900  0.60863700  0.69322800  1
  H  H10  1  0.60863700  0.10523100  0.69322800  1
  H  H11  1  0.10523100  0.39136200  0.69322800  1
  H  H12  1  0.39136200  0.89476900  0.69322800  1
  H  H13  1  0.10523100  0.60863700  0.30677200  1
  H  H14  1  0.39136200  0.10523100  0.30677200  1
  H  H15  1  0.89476900  0.39136200  0.30677200  1
  H  H16  1  0.60863700  0.89476900  0.30677200  1
  H  H17  1  0.55548700  0.93861200  0.13669500  1
  H  H18  1  0.93861200  0.44451300  0.13669500  1
  H  H19  1  0.44451300  0.06138800  0.13669500  1
  H  H20  1  0.06138800  0.55548700  0.13669500  1
  H  H21  1  0.44451300  0.93861200  0.86330500  1
  H  H22  1  0.06138800  0.44451300  0.86330500  1
  H  H23  1  0.55548700  0.06138800  0.86330500  1
  H  H24  1  0.93861200  0.55548700  0.86330500  1
  H  H25  1  0.05548700  0.43861200  0.63669500  1
  H  H26  1  0.43861200  0.94451300  0.63669500  1
  H  H27  1  0.94451300  0.56138800  0.63669500  1
  H  H28  1  0.56138800  0.05548700  0.63669500  1
  H  H29  1  0.94451300  0.43861200  0.36330500  1
  H  H30  1  0.56138800  0.94451300  0.36330500  1
  H  H31  1  0.05548700  0.56138800  0.36330500  1
  H  H32  1  0.43861200  0.05548700  0.36330500  1
  H  H33  1  0.53174600  0.21811100  0.91070200  1
  H  H34  1  0.21811100  0.46825400  0.91070200  1
  H  H35  1  0.46825400  0.78188900  0.91070200  1
  H  H36  1  0.78188900  0.53174600  0.91070200  1
  H  H37  1  0.46825400  0.21811100  0.08929800  1
  H  H38  1  0.78188900  0.46825400  0.08929800  1
  H  H39  1  0.53174600  0.78188900  0.08929800  1
  H  H40  1  0.21811100  0.53174600  0.08929800  1
  H  H41  1  0.03174600  0.71811100  0.41070200  1
  H  H42  1  0.71811100  0.96825400  0.41070200  1
  H  H43  1  0.96825400  0.28188900  0.41070200  1
  H  H44  1  0.28188900  0.03174600  0.41070200  1
  H  H45  1  0.96825400  0.71811100  0.58929800  1
  H  H46  1  0.28188900  0.96825400  0.58929800  1
  H  H47  1  0.03174600  0.28188900  0.58929800  1
  H  H48  1  0.71811100  0.03174600  0.58929800  1
  H  H49  1  0.53409900  0.13786300  0.91343300  1
  H  H50  1  0.13786300  0.46590100  0.91343300  1
  H  H51  1  0.46590100  0.86213600  0.91343300  1
  H  H52  1  0.86213600  0.53409900  0.91343300  1
  H  H53  1  0.46590100  0.13786300  0.08656700  1
  H  H54  1  0.86213600  0.46590100  0.08656700  1
  H  H55  1  0.53409900  0.86213600  0.08656700  1
  H  H56  1  0.13786300  0.53409900  0.08656700  1
  H  H57  1  0.03409900  0.63786300  0.41343300  1
  H  H58  1  0.63786300  0.96590100  0.41343300  1
  H  H59  1  0.96590100  0.36213600  0.41343300  1
  H  H60  1  0.36213600  0.03409900  0.41343300  1
  H  H61  1  0.96590100  0.63786300  0.58656700  1
  H  H62  1  0.36213600  0.96590100  0.58656700  1
  H  H63  1  0.03409900  0.36213600  0.58656700  1
  H  H64  1  0.63786300  0.03409900  0.58656700  1
  H  H65  1  0.44051600  0.28120300  0.05484900  1
  H  H66  1  0.28120300  0.55948400  0.05484900  1
  H  H67  1  0.55948400  0.71879700  0.05484900  1
  H  H68  1  0.71879700  0.44051600  0.05484900  1
  H  H69  1  0.55948400  0.28120300  0.94515100  1
  H  H70  1  0.71879700  0.55948400  0.94515100  1
  H  H71  1  0.44051600  0.71879700  0.94515100  1
  H  H72  1  0.28120300  0.44051600  0.94515100  1
  H  H73  1  0.94051600  0.78120300  0.55484900  1
  H  H74  1  0.78120300  0.05948400  0.55484900  1
  H  H75  1  0.05948400  0.21879700  0.55484900  1
  H  H76  1  0.21879600  0.94051600  0.55484900  1
  H  H77  1  0.05948400  0.78120300  0.44515100  1
  H  H78  1  0.21879700  0.05948400  0.44515100  1
  H  H79  1  0.94051600  0.21879600  0.44515100  1
  H  H80  1  0.78120300  0.94051600  0.44515100  1
  H  H81  1  0.42264700  0.39620400  0.04889300  1
  H  H82  1  0.42513700  0.43304900  0.15510800  1
  H  H83  1  0.42154600  0.39267300  0.21712000  1
  H  H84  1  0.37815400  0.39538700  0.15894500  1
  H  H85  1  0.39620400  0.57735400  0.04889300  1
  H  H86  1  0.43304900  0.57486300  0.15510800  1
  H  H87  1  0.39267300  0.57845400  0.21712000  1
  H  H88  1  0.39538700  0.62184600  0.15894500  1
  H  H89  1  0.57735300  0.60379600  0.04889300  1
  H  H90  1  0.57486300  0.56695100  0.15510800  1
  H  H91  1  0.57845400  0.60732700  0.21712000  1
  H  H92  1  0.62184500  0.60461300  0.15894500  1
  H  H93  1  0.60379600  0.42264600  0.04889300  1
  H  H94  1  0.56695100  0.42513700  0.15510800  1
  H  H95  1  0.60732700  0.42154600  0.21712000  1
  H  H96  1  0.60461300  0.37815400  0.15894500  1
  H  H97  1  0.57735300  0.39620400  0.95110700  1
  H  H98  1  0.57486300  0.43304900  0.84489200  1
  H  H99  1  0.57845400  0.39267300  0.78288000  1
  H  H100  1  0.62184500  0.39538700  0.84105500  1
  H  H101  1  0.60379600  0.57735300  0.95110700  1
  H  H102  1  0.56695100  0.57486300  0.84489200  1
  H  H103  1  0.60732700  0.57845400  0.78288000  1
  H  H104  1  0.60461300  0.62184600  0.84105500  1
  H  H105  1  0.42264700  0.60379600  0.95110700  1
  H  H106  1  0.42513700  0.56695100  0.84489200  1
  H  H107  1  0.42154600  0.60732700  0.78288000  1
  H  H108  1  0.37815400  0.60461300  0.84105500  1
  H  H109  1  0.39620400  0.42264700  0.95110700  1
  H  H110  1  0.43304900  0.42513700  0.84489200  1
  H  H111  1  0.39267300  0.42154600  0.78288000  1
  H  H112  1  0.39538700  0.37815400  0.84105500  1
  H  H113  1  0.92264600  0.89620400  0.54889300  1
  H  H114  1  0.92513700  0.93304900  0.65510800  1
  H  H115  1  0.92154600  0.89267300  0.71712000  1
  H  H116  1  0.87815400  0.89538700  0.65894500  1
  H  H117  1  0.89620400  0.07735300  0.54889200  1
  H  H118  1  0.93304900  0.07486300  0.65510800  1
  H  H119  1  0.89267300  0.07845400  0.71712000  1
  H  H120  1  0.89538700  0.12184500  0.65894500  1
  H  H121  1  0.07735300  0.10379600  0.54889300  1
  H  H122  1  0.07486300  0.06695100  0.65510800  1
  H  H123  1  0.07845400  0.10732700  0.71712000  1
  H  H124  1  0.12184500  0.10461300  0.65894500  1
  H  H125  1  0.10379600  0.92264600  0.54889300  1
  H  H126  1  0.06695100  0.92513700  0.65510800  1
  H  H127  1  0.10732700  0.92154600  0.71712000  1
  H  H128  1  0.10461300  0.87815400  0.65894500  1
  H  H129  1  0.07735300  0.89620400  0.45110800  1
  H  H130  1  0.07486300  0.93304900  0.34489200  1
  H  H131  1  0.07845400  0.89267300  0.28288000  1
  H  H132  1  0.12184500  0.89538700  0.34105500  1
  H  H133  1  0.10379600  0.07735300  0.45110800  1
  H  H134  1  0.06695100  0.07486300  0.34489200  1
  H  H135  1  0.10732700  0.07845400  0.28288000  1
  H  H136  1  0.10461300  0.12184500  0.34105500  1
  H  H137  1  0.92264600  0.10379600  0.45110700  1
  H  H138  1  0.92513700  0.06695100  0.34489200  1
  H  H139  1  0.92154600  0.10732700  0.28288000  1
  H  H140  1  0.87815400  0.10461300  0.34105500  1
  H  H141  1  0.89620400  0.92264600  0.45110700  1
  H  H142  1  0.93304900  0.92513700  0.34489200  1
  H  H143  1  0.89267300  0.92154600  0.28288000  1
  H  H144  1  0.89538700  0.87815400  0.34105500  1
  C  C1  1  0.50000000  0.08411000  0.00000000  1
  C  C2  1  0.08411000  0.50000000  0.00000000  1
  C  C3  1  0.50000000  0.91589000  0.00000000  1
  C  C4  1  0.91589000  0.50000000  0.00000000  1
  C  C5  1  0.00000000  0.58411000  0.50000000  1
  C  C6  1  0.58411000  0.00000000  0.50000000  1
  C  C7  1  0.00000000  0.41589000  0.50000000  1
  C  C8  1  0.41589000  0.00000000  0.50000000  1
  C  C9  1  0.50000000  0.00000000  0.11741900  1
  C  C10  1  0.00000000  0.50000000  0.11741900  1
  C  C11  1  0.50000000  0.00000000  0.88258100  1
  C  C12  1  0.00000000  0.50000000  0.88258100  1
  C  C13  1  0.00000000  0.50000000  0.61741900  1
  C  C14  1  0.50000000  0.00000000  0.61741900  1
  C  C15  1  0.00000000  0.50000000  0.38258100  1
  C  C16  1  0.50000000  0.00000000  0.38258100  1
  C  C17  1  0.55549000  0.94164700  0.18641900  1
  C  C18  1  0.94164700  0.44451000  0.18641900  1
  C  C19  1  0.44451000  0.05835300  0.18641900  1
  C  C20  1  0.05835300  0.55549000  0.18641900  1
  C  C21  1  0.44451000  0.94164700  0.81358100  1
  C  C22  1  0.05835300  0.44451000  0.81358100  1
  C  C23  1  0.55549000  0.05835300  0.81358100  1
  C  C24  1  0.94164700  0.55549000  0.81358100  1
  C  C25  1  0.05549000  0.44164700  0.68641900  1
  C  C26  1  0.44164700  0.94451000  0.68641900  1
  C  C27  1  0.94451000  0.55835300  0.68641900  1
  C  C28  1  0.55835300  0.05549000  0.68641900  1
  C  C29  1  0.94451000  0.44164700  0.31358100  1
  C  C30  1  0.55835300  0.94451000  0.31358100  1
  C  C31  1  0.05549000  0.55835300  0.31358100  1
  C  C32  1  0.44164700  0.05549000  0.31358100  1
  C  C33  1  0.58401400  0.91418000  0.21827500  1
  C  C34  1  0.91418000  0.41598600  0.21827500  1
  C  C35  1  0.41598600  0.08582000  0.21827500  1
  C  C36  1  0.08582000  0.58401400  0.21827500  1
  C  C37  1  0.41598600  0.91418000  0.78172500  1
  C  C38  1  0.08582000  0.41598600  0.78172500  1
  C  C39  1  0.58401400  0.08582000  0.78172500  1
  C  C40  1  0.91418000  0.58401400  0.78172500  1
  C  C41  1  0.08401400  0.41418000  0.71827500  1
  C  C42  1  0.41418000  0.91598600  0.71827500  1
  C  C43  1  0.91598600  0.58582000  0.71827500  1
  C  C44  1  0.58582000  0.08401400  0.71827500  1
  C  C45  1  0.91598600  0.41418000  0.28172500  1
  C  C46  1  0.58582000  0.91598600  0.28172500  1
  C  C47  1  0.08401400  0.58582000  0.28172500  1
  C  C48  1  0.41418000  0.08401400  0.28172500  1
  C  C49  1  0.52860400  0.97189900  0.28215700  1
  C  C50  1  0.97189900  0.47139600  0.28215700  1
  C  C51  1  0.47139600  0.02810100  0.28215700  1
  C  C52  1  0.02810100  0.52860400  0.28215700  1
  C  C53  1  0.47139600  0.97189900  0.71784300  1
  C  C54  1  0.02810100  0.47139600  0.71784300  1
  C  C55  1  0.52860400  0.02810100  0.71784300  1
  C  C56  1  0.97189900  0.52860400  0.71784300  1
  C  C57  1  0.02860400  0.47189900  0.78215700  1
  C  C58  1  0.47189900  0.97139600  0.78215700  1
  C  C59  1  0.97139600  0.52810100  0.78215700  1
  C  C60  1  0.52810100  0.02860400  0.78215700  1
  C  C61  1  0.97139600  0.47189900  0.21784300  1
  C  C62  1  0.52810100  0.97139600  0.21784300  1
  C  C63  1  0.02860400  0.52810100  0.21784300  1
  C  C64  1  0.47189900  0.02860400  0.21784300  1
  C  C65  1  0.50000000  0.00000000  0.31445700  1
  C  C66  1  0.00000000  0.50000000  0.31445700  1
  C  C67  1  0.50000000  0.00000000  0.68554300  1
  C  C68  1  0.00000000  0.50000000  0.68554300  1
  C  C69  1  0.00000000  0.50000000  0.81445700  1
  C  C70  1  0.50000000  0.00000000  0.81445700  1
  C  C71  1  0.00000000  0.50000000  0.18554300  1
  C  C72  1  0.50000000  0.00000000  0.18554300  1
  C  C73  1  0.51847600  0.20150200  0.95102900  1
  C  C74  1  0.20150200  0.48152400  0.95102900  1
  C  C75  1  0.48152400  0.79849700  0.95102900  1
  C  C76  1  0.79849700  0.51847600  0.95102900  1
  C  C77  1  0.48152400  0.20150200  0.04897000  1
  C  C78  1  0.79849700  0.48152400  0.04897000  1
  C  C79  1  0.51847600  0.79849700  0.04897000  1
  C  C80  1  0.20150200  0.51847600  0.04897000  1
  C  C81  1  0.01847600  0.70150200  0.45102900  1
  C  C82  1  0.70150200  0.98152400  0.45102900  1
  C  C83  1  0.98152400  0.29849700  0.45102900  1
  C  C84  1  0.29849700  0.01847600  0.45102900  1
  C  C85  1  0.98152400  0.70150200  0.54897100  1
  C  C86  1  0.29849700  0.98152400  0.54897000  1
  C  C87  1  0.01847600  0.29849700  0.54897100  1
  C  C88  1  0.70150200  0.01847600  0.54897000  1
  C  C89  1  0.51944900  0.15565500  0.95191500  1
  C  C90  1  0.15565500  0.48055100  0.95191500  1
  C  C91  1  0.48055100  0.84434500  0.95191500  1
  C  C92  1  0.84434500  0.51944900  0.95191500  1
  C  C93  1  0.48055100  0.15565500  0.04808500  1
  C  C94  1  0.84434500  0.48055100  0.04808500  1
  C  C95  1  0.51944900  0.84434500  0.04808500  1
  C  C96  1  0.15565500  0.51944900  0.04808500  1
  C  C97  1  0.01944900  0.65565500  0.45191500  1
  C  C98  1  0.65565500  0.98055100  0.45191500  1
  C  C99  1  0.98055100  0.34434500  0.45191500  1
  C  C100  1  0.34434500  0.01944900  0.45191500  1
  C  C101  1  0.98055100  0.65565500  0.54808500  1
  C  C102  1  0.34434500  0.98055100  0.54808500  1
  C  C103  1  0.01944900  0.34434500  0.54808500  1
  C  C104  1  0.65565500  0.01944900  0.54808500  1
  C  C105  1  0.50000000  0.13264300  0.00000000  1
  C  C106  1  0.13264300  0.50000000  0.00000000  1
  C  C107  1  0.50000000  0.86735600  0.00000000  1
  C  C108  1  0.86735600  0.50000000  0.00000000  1
  C  C109  1  0.00000000  0.63264300  0.50000000  1
  C  C110  1  0.63264300  0.00000000  0.50000000  1
  C  C111  1  0.00000000  0.36735600  0.50000000  1
  C  C112  1  0.36735600  0.00000000  0.50000000  1
  C  C113  1  0.50000000  0.22512500  0.00000000  1
  C  C114  1  0.22512500  0.50000000  0.00000000  1
  C  C115  1  0.50000000  0.77487500  0.00000000  1
  C  C116  1  0.77487500  0.50000000  0.00000000  1
  C  C117  1  0.00000000  0.72512500  0.50000000  1
  C  C118  1  0.72512500  0.00000000  0.50000000  1
  C  C119  1  0.00000000  0.27487500  0.50000000  1
  C  C120  1  0.27487500  0.00000000  0.50000000  1
  C  C121  1  0.46762100  0.29798200  0.03182700  1
  C  C122  1  0.29798200  0.53237800  0.03182700  1
  C  C123  1  0.53237800  0.70201800  0.03182700  1
  C  C124  1  0.70201800  0.46762100  0.03182700  1
  C  C125  1  0.53237800  0.29798200  0.96817300  1
  C  C126  1  0.70201800  0.53237800  0.96817300  1
  C  C127  1  0.46762100  0.70201800  0.96817300  1
  C  C128  1  0.29798200  0.46762100  0.96817300  1
  C  C129  1  0.96762100  0.79798200  0.53182700  1
  C  C130  1  0.79798200  0.03237800  0.53182700  1
  C  C131  1  0.03237800  0.20201800  0.53182700  1
  C  C132  1  0.20201800  0.96762100  0.53182700  1
  C  C133  1  0.03237800  0.79798200  0.46817300  1
  C  C134  1  0.20201800  0.03237800  0.46817300  1
  C  C135  1  0.96762100  0.20201800  0.46817300  1
  C  C136  1  0.79798200  0.96762100  0.46817300  1
  C  C137  1  0.46838900  0.34389600  0.03367700  1
  C  C138  1  0.34389600  0.53161100  0.03367600  1
  C  C139  1  0.53161100  0.65610400  0.03367700  1
  C  C140  1  0.65610400  0.46838900  0.03367600  1
  C  C141  1  0.53161100  0.34389600  0.96632300  1
  C  C142  1  0.65610400  0.53161100  0.96632300  1
  C  C143  1  0.46838900  0.65610400  0.96632300  1
  C  C144  1  0.34389600  0.46838900  0.96632300  1
  C  C145  1  0.96838900  0.84389600  0.53367700  1
  C  C146  1  0.84389600  0.03161100  0.53367700  1
  C  C147  1  0.03161100  0.15610400  0.53367700  1
  C  C148  1  0.15610400  0.96838900  0.53367700  1
  C  C149  1  0.03161100  0.84389600  0.46632300  1
  C  C150  1  0.15610400  0.03161100  0.46632300  1
  C  C151  1  0.96838900  0.15610400  0.46632300  1
  C  C152  1  0.84389600  0.96838900  0.46632300  1
  C  C153  1  0.50000000  0.36701200  0.00000000  1
  C  C154  1  0.36701200  0.50000000  0.00000000  1
  C  C155  1  0.50000000  0.63298800  0.00000000  1
  C  C156  1  0.63298800  0.50000000  0.00000000  1
  C  C157  1  0.00000000  0.86701200  0.50000000  1
  C  C158  1  0.86701200  0.00000000  0.50000000  1
  C  C159  1  0.00000000  0.13298800  0.50000000  1
  C  C160  1  0.13298800  0.00000000  0.50000000  1
  C  C161  1  0.50000000  0.27440600  0.00000000  1
  C  C162  1  0.27440600  0.50000000  0.00000000  1
  C  C163  1  0.50000000  0.72559400  0.00000000  1
  C  C164  1  0.72559400  0.50000000  0.00000000  1
  C  C165  1  0.00000000  0.77440600  0.50000000  1
  C  C166  1  0.77440600  0.00000000  0.50000000  1
  C  C167  1  0.00000000  0.22559400  0.50000000  1
  C  C168  1  0.22559400  0.00000000  0.50000000  1
  C  C169  1  0.58440800  0.50000000  0.00000000  1
  C  C170  1  0.50000000  0.41559200  0.00000000  1
  C  C171  1  0.41559200  0.50000000  0.00000000  1
  C  C172  1  0.50000000  0.58440800  0.00000000  1
  C  C173  1  0.08440800  0.00000000  0.50000000  1
  C  C174  1  0.00000000  0.91559200  0.50000000  1
  C  C175  1  0.91559200  0.00000000  0.50000000  1
  C  C176  1  0.00000000  0.08440800  0.50000000  1
  C  C177  1  0.43903600  0.36598600  0.12881400  1
  C  C178  1  0.41438900  0.39887100  0.16740800  1
  C  C179  1  0.36598600  0.56096400  0.12881400  1
  C  C180  1  0.39887100  0.58561100  0.16740800  1
  C  C181  1  0.56096400  0.63401300  0.12881400  1
  C  C182  1  0.58561100  0.60112900  0.16740800  1
  C  C183  1  0.63401300  0.43903600  0.12881400  1
  C  C184  1  0.60112900  0.41438900  0.16740800  1
  C  C185  1  0.56096400  0.36598600  0.87118600  1
  C  C186  1  0.58561100  0.39887100  0.83259200  1
  C  C187  1  0.63401300  0.56096400  0.87118600  1
  C  C188  1  0.60112900  0.58561100  0.83259200  1
  C  C189  1  0.43903600  0.63401300  0.87118600  1
  C  C190  1  0.41438900  0.60112900  0.83259200  1
  C  C191  1  0.36598600  0.43903600  0.87118600  1
  C  C192  1  0.39887100  0.41438900  0.83259200  1
  C  C193  1  0.93903600  0.86598600  0.62881400  1
  C  C194  1  0.91438900  0.89887100  0.66740800  1
  C  C195  1  0.86598600  0.06096400  0.62881400  1
  C  C196  1  0.89887100  0.08561100  0.66740800  1
  C  C197  1  0.06096400  0.13401300  0.62881400  1
  C  C198  1  0.08561100  0.10112900  0.66740800  1
  C  C199  1  0.13401300  0.93903600  0.62881400  1
  C  C200  1  0.10112900  0.91438900  0.66740800  1
  C  C201  1  0.06096400  0.86598600  0.37118600  1
  C  C202  1  0.08561100  0.89887100  0.33259200  1
  C  C203  1  0.13401300  0.06096400  0.37118600  1
  C  C204  1  0.10112900  0.08561100  0.33259200  1
  C  C205  1  0.93903600  0.13401300  0.37118600  1
  C  C206  1  0.91438900  0.10112900  0.33259200  1
  C  C207  1  0.86598600  0.93903600  0.37118600  1
  C  C208  1  0.89887100  0.91438900  0.33259200  1
  N  N1  1  0.43476600  0.36683800  0.06653700  1
  N  N2  1  0.36683800  0.56523400  0.06653700  1
  N  N3  1  0.56523400  0.63316200  0.06653700  1
  N  N4  1  0.63316200  0.43476600  0.06653700  1
  N  N5  1  0.56523400  0.36683800  0.93346300  1
  N  N6  1  0.63316200  0.56523400  0.93346300  1
  N  N7  1  0.43476600  0.63316200  0.93346300  1
  N  N8  1  0.36683800  0.43476600  0.93346300  1
  N  N9  1  0.93476600  0.86683800  0.56653700  1
  N  N10  1  0.86683800  0.06523400  0.56653700  1
  N  N11  1  0.06523400  0.13316200  0.56653700  1
  N  N12  1  0.13316200  0.93476600  0.56653700  1
  N  N13  1  0.06523400  0.86683800  0.43346300  1
  N  N14  1  0.13316200  0.06523400  0.43346300  1
  N  N15  1  0.93476600  0.13316200  0.43346300  1
  N  N16  1  0.86683800  0.93476600  0.43346300  1
  O  O1  1  0.46348300  0.06333100  0.01807100  1
  O  O2  1  0.06333100  0.53651700  0.01807100  1
  O  O3  1  0.53651700  0.93666800  0.01807100  1
  O  O4  1  0.93666800  0.46348300  0.01807100  1
  O  O5  1  0.53651700  0.06333100  0.98192900  1
  O  O6  1  0.93666800  0.53651700  0.98192900  1
  O  O7  1  0.46348300  0.93666800  0.98192900  1
  O  O8  1  0.06333100  0.46348300  0.98192900  1
  O  O9  1  0.96348300  0.56333100  0.51807100  1
  O  O10  1  0.56333100  0.03651700  0.51807100  1
  O  O11  1  0.03651700  0.43666800  0.51807100  1
  O  O12  1  0.43666800  0.96348300  0.51807100  1
  O  O13  1  0.03651700  0.56333100  0.48192900  1
  O  O14  1  0.43666800  0.03651700  0.48192900  1
  O  O15  1  0.96348300  0.43666800  0.48192900  1
  O  O16  1  0.56333100  0.96348300  0.48192900  1
  O  O17  1  0.46346200  0.98704900  0.08829700  1
  O  O18  1  0.98704900  0.53653700  0.08829700  1
  O  O19  1  0.53653700  0.01295100  0.08829700  1
  O  O20  1  0.01295100  0.46346200  0.08829700  1
  O  O21  1  0.53653700  0.98704900  0.91170300  1
  O  O22  1  0.01295100  0.53653700  0.91170300  1
  O  O23  1  0.46346200  0.01295100  0.91170300  1
  O  O24  1  0.98704900  0.46346200  0.91170300  1
  O  O25  1  0.96346200  0.48704900  0.58829700  1
  O  O26  1  0.48704900  0.03653700  0.58829700  1
  O  O27  1  0.03653700  0.51295100  0.58829700  1
  O  O28  1  0.51295100  0.96346300  0.58829700  1
  O  O29  1  0.03653700  0.48704900  0.41170300  1
  O  O30  1  0.51295100  0.03653700  0.41170300  1
  O  O31  1  0.96346300  0.51295100  0.41170300  1
  O  O32  1  0.48704900  0.96346200  0.41170300  1
  O  O33  1  0.56366700  0.51123300  0.05157100  1
  O  O34  1  0.51123300  0.43633300  0.05157100  1
  O  O35  1  0.43633300  0.48876700  0.05157100  1
  O  O36  1  0.48876700  0.56366700  0.05157100  1
  O  O37  1  0.43633300  0.51123300  0.94842900  1
  O  O38  1  0.48876700  0.43633300  0.94842900  1
  O  O39  1  0.56366700  0.48876700  0.94842900  1
  O  O40  1  0.51123300  0.56366700  0.94842900  1
  O  O41  1  0.06366700  0.01123300  0.55157100  1
  O  O42  1  0.01123300  0.93633300  0.55157100  1
  O  O43  1  0.93633300  0.98876700  0.55157100  1
  O  O44  1  0.98876700  0.06366700  0.55157100  1
  O  O45  1  0.93633300  0.01123300  0.44842900  1
  O  O46  1  0.98876700  0.93633300  0.44842900  1
  O  O47  1  0.06366700  0.98876700  0.44842900  1
  O  O48  1  0.01123300  0.06366700  0.44842900  1
  O  O49  1  0.46345300  0.33894400  0.15370100  1
  O  O50  1  0.33894400  0.53654700  0.15370100  1
  O  O51  1  0.53654700  0.66105500  0.15370100  1
  O  O52  1  0.66105500  0.46345300  0.15370000  1
  O  O53  1  0.53654700  0.33894400  0.84629900  1
  O  O54  1  0.66105600  0.53654700  0.84629900  1
  O  O55  1  0.46345300  0.66105500  0.84629900  1
  O  O56  1  0.33894400  0.46345300  0.84629900  1
  O  O57  1  0.96345300  0.83894400  0.65370100  1
  O  O58  1  0.83894400  0.03654700  0.65370100  1
  O  O59  1  0.03654700  0.16105500  0.65370100  1
  O  O60  1  0.16105500  0.96345300  0.65370100  1
  O  O61  1  0.03654700  0.83894400  0.34629900  1
  O  O62  1  0.16105500  0.03654700  0.34629900  1
  O  O63  1  0.96345300  0.16105500  0.34629900  1
  O  O64  1  0.83894400  0.96345300  0.34629900  1
