# generated using pymatgen
data_Fe2H21C40N3O19
_symmetry_space_group_name_H-M   'P 1'
_cell_length_a   13.28874700
_cell_length_b   12.39406900
_cell_length_c   13.36542300
_cell_angle_alpha   80.87113500
_cell_angle_beta   85.00580300
_cell_angle_gamma   109.95270800
_symmetry_Int_Tables_number   1
_chemical_formula_structural   Fe2H21C40N3O19
_chemical_formula_sum   'Fe2 H21 C40 N3 O19'
_cell_volume   2019.18289016
_cell_formula_units_Z   1
loop_
 _symmetry_equiv_pos_site_id
 _symmetry_equiv_pos_as_xyz
  1  'x, y, z'
loop_
 _atom_site_type_symbol
 _atom_site_label
 _atom_site_symmetry_multiplicity
 _atom_site_fract_x
 _atom_site_fract_y
 _atom_site_fract_z
 _atom_site_occupancy
  Fe  Fe1  1  0.53178900  0.01051200  0.22449900  1
  Fe  Fe2  1  0.52433900  0.02123800  0.76414700  1
  H  H1  1  0.22338000  0.03634500  0.20779700  1
  H  H2  1  0.05417000  0.04452500  0.16352300  1
  H  H3  1  0.11659200  0.94217000  0.88167700  1
  H  H4  1  0.86386000  0.08051200  0.78590300  1
  H  H5  1  0.44147900  0.85391900  0.53744800  1
  H  H6  1  0.49799100  0.58232500  0.73092500  1
  H  H7  1  0.53366200  0.15063400  0.46364500  1
  H  H8  1  0.46258900  0.58382800  0.32604300  1
  H  H9  1  0.50425300  0.41916000  0.67104700  1
  H  H10  1  0.51925500  0.42093100  0.17920200  1
  H  H11  1  0.40527100  0.43813500  0.06400100  1
  H  H12  1  0.28472100  0.45972400  0.11474300  1
  H  H13  1  0.28197100  0.31316800  0.11314500  1
  H  H14  1  0.05192600  0.10611500  0.74723500  1
  H  H15  1  0.20111600  0.27147500  0.68363700  1
  H  H16  1  0.27071900  0.34402700  0.77821300  1
  H  H17  1  0.16376200  0.38491100  0.72846700  1
  H  H18  1  0.84565700  0.92156600  0.22549800  1
  H  H19  1  0.82529600  0.75442500  0.34054100  1
  H  H20  1  0.88322900  0.65728800  0.29177900  1
  H  H21  1  0.74167400  0.63394400  0.28881700  1
  C  C1  1  0.20138100  0.01688200  0.13509200  1
  C  C2  1  0.10358800  0.01869500  0.11077900  1
  C  C3  1  0.07113600  0.99045800  0.01994100  1
  C  C4  1  0.14199400  0.96639600  0.95204500  1
  C  C5  1  0.24669400  0.98007900  0.96977700  1
  C  C6  1  0.27483100  0.00068400  0.06517700  1
  C  C7  1  0.96273100  0.04984400  0.89411100  1
  C  C8  1  0.86494300  0.04422400  0.86462800  1
  C  C9  1  0.77099700  0.99820100  0.93451300  1
  C  C10  1  0.77592600  0.96045500  0.03681700  1
  C  C11  1  0.87147400  0.94864200  0.06374200  1
  C  C12  1  0.96641500  0.99430800  0.99204700  1
  C  C13  1  0.68594700  0.94863400  0.11580300  1
  C  C14  1  0.45714800  0.78744200  0.36596700  1
  C  C15  1  0.38109800  0.01268500  0.09531600  1
  C  C16  1  0.50079100  0.20437500  0.28091600  1
  C  C17  1  0.49058500  0.79812900  0.71844200  1
  C  C18  1  0.66831100  0.98920700  0.89678800  1
  C  C19  1  0.50631300  0.21641800  0.63581900  1
  C  C20  1  0.32420100  0.97666500  0.88494600  1
  C  C21  1  0.44892400  0.71371000  0.46670900  1
  C  C22  1  0.44796700  0.76842400  0.54901200  1
  C  C23  1  0.46706600  0.72294100  0.64294000  1
  C  C24  1  0.48080000  0.61699700  0.65764800  1
  C  C25  1  0.47482400  0.55655800  0.57850200  1
  C  C26  1  0.46131300  0.60468400  0.48189400  1
  C  C27  1  0.48976300  0.45078000  0.59582500  1
  C  C28  1  0.49179300  0.39020900  0.51765000  1
  C  C29  1  0.48139300  0.43877800  0.41986000  1
  C  C30  1  0.46719500  0.54590200  0.40259800  1
  C  C31  1  0.50891300  0.28440900  0.53430700  1
  C  C32  1  0.52332000  0.23425900  0.45199900  1
  C  C33  1  0.51061300  0.27984700  0.35581200  1
  C  C34  1  0.48555100  0.38005200  0.33950200  1
  C  C35  1  0.36322600  0.39279300  0.22830300  1
  C  C36  1  0.33227600  0.40155000  0.12345600  1
  C  C37  1  0.11074200  0.22230000  0.83577600  1
  C  C38  1  0.19140300  0.31085900  0.75106100  1
  C  C39  1  0.85227200  0.77681300  0.17627500  1
  C  C40  1  0.82383500  0.70128700  0.28093800  1
  N  N1  1  0.46852500  0.42376300  0.24063400  1
  N  N2  1  0.05771700  0.11243400  0.82251500  1
  N  N3  1  0.87305800  0.89300800  0.16414700  1
  O  O1  1  0.64231400  0.02993700  0.10704300  1
  O  O2  1  0.40731500  0.74583500  0.29209600  1
  O  O3  1  0.65278800  0.86235000  0.19597700  1
  O  O4  1  0.51227200  0.90017300  0.35546500  1
  O  O5  1  0.38630100  0.94549600  0.18004400  1
  O  O6  1  0.46465600  0.10839500  0.05516400  1
  O  O7  1  0.58257900  0.17195000  0.25588400  1
  O  O8  1  0.40292300  0.13832200  0.27151800  1
  O  O9  1  0.43919100  0.87135200  0.72296200  1
  O  O10  1  0.57994000  0.81416000  0.75838200  1
  O  O11  1  0.67143400  0.04469100  0.80384600  1
  O  O12  1  0.57539200  0.91532300  0.94873500  1
  O  O13  1  0.28959000  0.94810600  0.80039400  1
  O  O14  1  0.56203400  0.14685400  0.64035700  1
  O  O15  1  0.42878700  0.01682600  0.88823200  1
  O  O16  1  0.43217700  0.20374400  0.71282200  1
  O  O17  1  0.29257600  0.35689900  0.30299000  1
  O  O18  1  0.09250900  0.25021100  0.91697000  1
  O  O19  1  0.85677300  0.73285800  0.10140400  1
