# generated using pymatgen
data_ZnH9C15NO4
_symmetry_space_group_name_H-M   'P 1'
_cell_length_a   8.45601500
_cell_length_b   11.00418300
_cell_length_c   13.38874800
_cell_angle_alpha   90.00000000
_cell_angle_beta   90.00000000
_cell_angle_gamma   90.00000000
_symmetry_Int_Tables_number   1
_chemical_formula_structural   ZnH9C15NO4
_chemical_formula_sum   'Zn2 H18 C30 N2 O8'
_cell_volume   1245.84357336
_cell_formula_units_Z   2
loop_
 _symmetry_equiv_pos_site_id
 _symmetry_equiv_pos_as_xyz
  1  'x, y, z'
loop_
 _atom_site_type_symbol
 _atom_site_label
 _atom_site_symmetry_multiplicity
 _atom_site_fract_x
 _atom_site_fract_y
 _atom_site_fract_z
 _atom_site_occupancy
  Zn  Zn1  1  0.50121100  0.48598000  0.88826400  1
  Zn  Zn2  1  0.50121100  0.51402000  0.11173700  1
  H  H1  1  0.74613500  0.90772500  0.00714500  1
  H  H2  1  0.25642600  0.09231300  0.99302800  1
  H  H3  1  0.74613500  0.09227500  0.99285500  1
  H  H4  1  0.25642600  0.90768600  0.00697200  1
  H  H5  1  0.00117200  0.58577700  0.95688700  1
  H  H6  1  0.00117200  0.41422300  0.04311400  1
  H  H7  1  0.13462000  0.43630300  0.40809800  1
  H  H8  1  0.79703500  0.62787100  0.54528500  1
  H  H9  1  0.88676700  0.50888500  0.40525500  1
  H  H10  1  0.13802300  0.40185400  0.57084600  1
  H  H11  1  0.13462000  0.56369700  0.59190200  1
  H  H12  1  0.79703500  0.37212900  0.45471500  1
  H  H13  1  0.88676700  0.49111500  0.59474500  1
  H  H14  1  0.13802300  0.59814600  0.42915400  1
  H  H15  1  0.25295300  0.53312200  0.25002000  1
  H  H16  1  0.74750800  0.49616000  0.74867600  1
  H  H17  1  0.74750800  0.50384000  0.25132400  1
  H  H18  1  0.25295300  0.46687800  0.74998000  1
  C  C1  1  0.86053800  0.74250100  0.98143300  1
  C  C2  1  0.14187300  0.25753500  0.01858700  1
  C  C3  1  0.86053800  0.25749900  0.01856700  1
  C  C4  1  0.14187300  0.74246500  0.98141300  1
  C  C5  1  0.85974400  0.86655000  0.99583100  1
  C  C6  1  0.14277400  0.13347500  0.00423900  1
  C  C7  1  0.85974400  0.13345000  0.00416900  1
  C  C8  1  0.14277400  0.86652500  0.99576100  1
  C  C9  1  0.00127200  0.93223200  0.99653500  1
  C  C10  1  0.00127200  0.06776800  0.00346500  1
  C  C11  1  0.63791300  0.51253800  0.29224400  1
  C  C12  1  0.36240000  0.47174800  0.70844600  1
  C  C13  1  0.36239900  0.52825200  0.29155400  1
  C  C14  1  0.63791300  0.48746200  0.70775600  1
  C  C15  1  0.20088700  0.51152000  0.44379600  1
  C  C16  1  0.78609500  0.52774000  0.55168000  1
  C  C17  1  0.78609500  0.47226000  0.44832100  1
  C  C18  1  0.20088700  0.48847900  0.55620500  1
  C  C19  1  0.00119000  0.68256500  0.96859600  1
  C  C20  1  0.00119000  0.31743400  0.03140500  1
  C  C21  1  0.35801900  0.51740500  0.39427100  1
  C  C22  1  0.63754300  0.49766800  0.60513500  1
  C  C23  1  0.63754300  0.50233200  0.39486500  1
  C  C24  1  0.35801900  0.48259500  0.60572900  1
  C  C25  1  0.28628600  0.66954200  0.98785300  1
  C  C26  1  0.71605200  0.33037500  0.01211800  1
  C  C27  1  0.28628600  0.33045800  0.01214700  1
  C  C28  1  0.71605200  0.66962500  0.98788300  1
  C  C29  1  0.49695100  0.50619600  0.44621100  1
  C  C30  1  0.49695100  0.49380400  0.55379000  1
  N  N1  1  0.50110600  0.52623800  0.24228700  1
  N  N2  1  0.50110600  0.47376200  0.75771300  1
  O  O1  1  0.33934900  0.64149600  0.07714700  1
  O  O2  1  0.66295300  0.35839600  0.92282100  1
  O  O3  1  0.66550200  0.38336600  0.09387300  1
  O  O4  1  0.33658100  0.61636600  0.90612900  1
  O  O5  1  0.33934900  0.35850300  0.92285300  1
  O  O6  1  0.66295300  0.64160400  0.07717900  1
  O  O7  1  0.66550200  0.61663400  0.90612700  1
  O  O8  1  0.33658100  0.38363400  0.09387100  1
