# Generated by REPEAT Assigner based on pymatgen
data_DB0-m29_o90_o490_f0_pts.sym.39
_audit_creation_date              2022-05-24
_audit_creation_method            REPEAT_Assigner
_cell_length_a                    12.066611
_cell_length_b                    16.865852
_cell_length_c                    13.270614
_cell_angle_alpha                 106.600253
_cell_angle_beta                  91.529433
_cell_angle_gamma                 107.204791
_cell_volume                      2454.069065
_symmetry_space_group_name_H-M    P1
_symmetry_Int_Tables_number       1
loop_
    _symmetry_equiv_pos_site_id
    _symmetry_equiv_pos_as_xyz
    1  x,y,z
loop_
    _atom_site_type_symbol
    _atom_site_label
    _atom_site_fract_x
    _atom_site_fract_y
    _atom_site_fract_z
    _atom_type_partial_charge
    C   C1   0.263220  0.984770  0.989572  -0.173618
    C   C2   0.201899  0.977372  0.896790  0.077050
    C   C3   0.084912  0.975055  0.896144  -0.012544
    C   C4   0.011389  0.953460  0.802678  0.004124
    C   C5   0.904328  0.966747  0.807711  -0.149631
    C   C6   0.217309  0.998919  0.083474  0.039688
    C   C7   0.106867  0.007673  0.086458  0.001136
    C   C8   0.040025  0.995160  0.993001  0.064506
    C   C9   0.928729  0.003735  0.996857  0.032082
    C   C10  0.863054  0.992522  0.903703  0.056764
    C   C11  0.754736  0.004743  0.906971  0.015960
    C   C12  0.063722  0.030565  0.182015  -0.058557
    C   C13  0.953810  0.038628  0.185548  -0.105985
    C   C14  0.882835  0.022508  0.093294  0.053353
    C   C15  0.767904  0.025894  0.094378  0.033073
    C   C16  0.709453  0.022066  0.001218  -0.153612
    H   H1   0.850658  0.951698  0.734199  0.150378
    H   H2   0.114865  0.043129  0.256201  0.144397
    H   H3   0.928582  0.061277  0.262914  0.132525
    H   H4   0.353937  0.987706  0.992257  0.146644
    H   H5   0.621347  0.024969  0.997401  0.157507
    O   O1   0.588507  0.023342  0.168366  -0.564107
    C   C17  0.696918  0.024151  0.184216  0.571414
    O   O2   0.542625  0.843027  0.197268  -0.508424
    O   O3   0.730588  0.008317  0.269169  -0.458063
    O   O4   0.483799  0.913531  0.348329  -0.555591
    C   C18  0.520599  0.849638  0.295068  0.552580
    Fe  Fe1  0.485648  0.002871  0.278243  1.462761
    O   O5   0.320620  0.959102  0.207438  -0.627366
    O   O6   0.381761  0.097595  0.202834  -0.541965
    C   C19  0.299927  0.021737  0.177530  0.692121
    O   O7   0.544352  0.119155  0.390662  -0.574759
    O   O8   0.369237  0.066496  0.447059  -0.490012
    C   C20  0.469296  0.128564  0.459516  0.658104
    O   O9   0.444862  0.869171  0.596331  -0.600305
    O   O10  0.604685  0.945877  0.538348  -0.504428
    C   C21  0.520536  0.872684  0.527388  0.682446
    O   O11  0.633325  0.043264  0.795443  -0.583958
    O   O12  0.616531  0.900732  0.764314  -0.526002
    C   C22  0.674072  0.983220  0.811891  0.658287
    O   O13  0.261766  0.033218  0.750745  -0.477575
    O   O14  0.473094  0.070663  0.632318  -0.508160
    C   C23  0.493798  0.151116  0.694040  0.574519
    O   O15  0.361707  0.954299  0.804663  -0.575417
    C   C24  0.272717  0.984371  0.809211  0.569687
    O   O16  0.511097  0.167752  0.797049  -0.513557
    Fe  Fe2  0.476706  0.985249  0.707354  1.432168
    C   C25  0.490517  0.213060  0.540678  -0.123489
    C   C26  0.500406  0.284471  0.505282  0.155460
    C   C27  0.518850  0.366821  0.576398  -0.503516
    C   C28  0.524990  0.376410  0.683352  0.105461
    H   H6   0.539047  0.439767  0.740442  0.063029
    C   C29  0.515771  0.305815  0.719267  -0.171555
    H   H7   0.522551  0.316657  0.803762  0.146593
    C   C30  0.498746  0.223297  0.649356  0.101321
    N   N1   0.492948  0.508979  0.596368  -0.258168
    N   N2   0.496414  0.575137  0.560370  -0.246163
    C   C31  0.535917  0.577181  0.466819  0.805021
    N   N3   0.575470  0.513055  0.411942  -0.271260
    N   N4   0.572729  0.447440  0.448294  -0.233650
    C   C32  0.529009  0.443229  0.539607  0.826066
    C   C33  0.548329  0.640375  0.318869  0.093190
    H   H8   0.558844  0.581736  0.266137  0.059550
    C   C34  0.544805  0.706577  0.278514  -0.174551
    H   H9   0.551988  0.697336  0.195265  0.146594
    C   C35  0.530701  0.782653  0.342878  0.090024
    C   C36  0.522186  0.791724  0.449962  -0.036545
    C   C37  0.520552  0.723582  0.488446  0.027542
    H   H10  0.514003  0.731949  0.571619  0.098144
    C   C38  0.534708  0.648114  0.423928  -0.406609
    C   C39  0.033892  0.905122  0.698072  0.618449
    O   O17  0.000622  0.918117  0.618459  -0.470925
    O   O18  0.082135  0.838180  0.688217  -0.559083
    H   H11  0.087205  0.809729  0.610978  0.405631
    C   C40  0.477180  0.269682  0.391325  0.729987
    O   O19  0.381494  0.265442  0.353702  -0.546923
    O   O20  0.567064  0.268337  0.327797  -0.623223
    H   H12  0.538478  0.262786  0.252940  0.453965
