# Generated by REPEAT Assigner based on pymatgen
data_DB0-m2_o13_o18_f0_pcu.sym.47
_audit_creation_date              2022-05-24
_audit_creation_method            REPEAT_Assigner
_cell_length_a                    11.527910
_cell_length_b                    13.008532
_cell_length_c                    15.937307
_cell_angle_alpha                 91.569234
_cell_angle_beta                  76.607659
_cell_angle_gamma                 99.438737
_cell_volume                      2293.369850
_symmetry_space_group_name_H-M    P1
_symmetry_Int_Tables_number       1
loop_
    _symmetry_equiv_pos_site_id
    _symmetry_equiv_pos_as_xyz
    1  x,y,z
loop_
    _atom_site_type_symbol
    _atom_site_label
    _atom_site_fract_x
    _atom_site_fract_y
    _atom_site_fract_z
    _atom_type_partial_charge
    O   O1   0.417837  0.644047  0.493590  -0.556480
    O   O2   0.582756  0.354396  0.506560  -0.575261
    O   O3   0.612385  0.656377  0.510331  -0.556469
    O   O4   0.388316  0.342083  0.489776  -0.553280
    C   C1   0.519960  0.699162  0.502603  0.656769
    C   C2   0.480714  0.299327  0.497439  0.664402
    O   O5   0.349715  0.491800  0.619797  -0.569022
    O   O6   0.651008  0.506592  0.380296  -0.573451
    O   O7   0.545940  0.497111  0.630351  -0.562359
    O   O8   0.454663  0.501301  0.369736  -0.566478
    C   C3   0.430809  0.493108  0.665633  0.640444
    C   C4   0.569852  0.505292  0.334468  0.644943
    Cu  Cu1  0.385622  0.491901  0.493837  0.832502
    Cu  Cu2  0.615033  0.506534  0.506258  0.865644
    C   C5   0.391276  0.490811  0.760237  -0.073969
    C   C6   0.609430  0.507833  0.239860  -0.071376
    C   C7   0.234186  0.482946  0.887323  -0.295640
    C   C8   0.766610  0.516477  0.112765  -0.289509
    C   C9   0.270475  0.484322  0.799042  -0.054679
    C   C10  0.730280  0.514744  0.201048  -0.059839
    C   C11  0.475136  0.495897  0.810711  -0.125687
    C   C12  0.525565  0.502650  0.189384  -0.128156
    C   C13  0.439649  0.494924  0.900857  -0.005543
    C   C14  0.561123  0.504263  0.099234  -0.004705
    C   C15  0.317539  0.488280  0.937650  0.309332
    C   C16  0.683266  0.511235  0.062440  0.306816
    C   C17  0.521708  0.500473  0.955069  0.048125
    C   C18  0.479096  0.498970  0.045018  0.053281
    C   C19  0.355229  0.492289  0.078524  -0.137778
    C   C20  0.645634  0.507658  0.921563  -0.131644
    C   C21  0.276623  0.487039  0.025446  -0.312848
    C   C22  0.724240  0.512976  0.974642  -0.313888
    H   H1   0.181115  0.481951  0.053865  0.150226
    H   H2   0.819794  0.518485  0.946227  0.149144
    H   H3   0.432937  0.496868  0.223233  0.098092
    H   H4   0.567681  0.500903  0.776862  0.098113
    H   H5   0.797622  0.518868  0.238760  0.110330
    H   H6   0.203147  0.480232  0.761321  0.109956
    H   H7   0.139091  0.477811  0.917157  0.136504
    H   H8   0.861736  0.521878  0.082926  0.134513
    H   H9   0.313578  0.490995  0.146122  0.133710
    H   H10  0.687376  0.509588  0.853963  0.131238
    C   C23  0.469436  0.185200  0.495812  -0.025844
    C   C24  0.530704  0.813332  0.505021  -0.068934
    C   C25  0.641145  0.980255  0.527819  -0.055667
    C   C26  0.356953  0.018254  0.475815  0.014666
    C   C27  0.631644  0.873337  0.523704  -0.122811
    C   C28  0.368421  0.125340  0.477293  -0.174924
    C   C29  0.439206  0.861418  0.489489  -0.150120
    C   C30  0.559954  0.136984  0.512629  -0.238939
    C   C31  0.447922  0.969215  0.492712  0.042531
    C   C32  0.549684  0.029047  0.511583  0.170836
    H   H11  0.638735  0.185085  0.526291  0.134683
    H   H12  0.361686  0.813503  0.473825  0.089895
    H   H13  0.296679  0.161426  0.463663  0.104737
    H   H14  0.703857  0.837428  0.536766  0.107123
    N   N1   0.213864  0.480810  0.484624  -0.093463
    N   N2   0.786678  0.517411  0.515693  -0.120857
    C   C33  0.945062  0.590810  0.581433  -0.270245
    C   C34  0.057486  0.411930  0.415419  -0.272511
    C   C35  0.827366  0.582908  0.573370  0.090755
    C   C36  0.174760  0.418917  0.424231  0.074092
    C   C37  0.861988  0.462768  0.461956  -0.033277
    C   C38  0.139925  0.538727  0.535907  -0.040035
    C   C39  0.980301  0.469210  0.468459  0.167718
    C   C40  0.021983  0.533021  0.528783  0.140987
    H   H15  0.172907  0.589405  0.583090  0.114125
    H   H16  0.828918  0.411940  0.414889  0.112916
    H   H17  0.235169  0.373891  0.382529  0.096968
    H   H18  0.767074  0.628126  0.614960  0.083700
    H   H19  0.976156  0.641991  0.629084  0.139410
    H   H20  0.026774  0.361436  0.367235  0.130076
    C   C41  0.749187  0.039358  0.549848  0.103515
    C   C42  0.744649  0.075501  0.632627  -0.116023
    C   C43  0.846650  0.131116  0.653277  -0.292177
    C   C44  0.953313  0.150553  0.591281  0.387072
    F   F1   0.053479  0.205379  0.611528  -0.225220
    C   C45  0.958099  0.114040  0.508711  -0.257260
    C   C46  0.856269  0.058017  0.488105  -0.105472
    H   H21  0.661063  0.060369  0.681287  0.117483
    H   H22  0.842957  0.159584  0.718052  0.159666
    H   H23  0.041753  0.129236  0.460131  0.151513
    H   H24  0.860160  0.029513  0.423320  0.112367
    C   C47  0.247566  0.959885  0.455214  0.161922
    C   C48  0.155872  0.910083  0.519835  -0.121875
    C   C49  0.051277  0.858037  0.500476  -0.236303
    C   C50  0.038283  0.855365  0.416558  0.384085
    F   F2   0.935520  0.804030  0.397594  -0.224973
    C   C51  0.129260  0.906008  0.352113  -0.282030
    C   C52  0.233448  0.958902  0.371527  -0.134117
    H   H25  0.165638  0.912478  0.585739  0.100415
    H   H26  0.979094  0.819944  0.551219  0.148741
    H   H27  0.118653  0.904694  0.286434  0.156925
    H   H28  0.304394  0.999082  0.320981  0.108132
