# Generated by REPEAT Assigner based on pymatgen
data_DB0-m3_o500_o156_f0_fsc.sym.58
_audit_creation_date              2022-05-24
_audit_creation_method            REPEAT_Assigner
_cell_length_a                    8.534716
_cell_length_b                    11.346915
_cell_length_c                    17.473184
_cell_angle_alpha                 90.857761
_cell_angle_beta                  90.075099
_cell_angle_gamma                 107.840011
_cell_volume                      1610.572914
_symmetry_space_group_name_H-M    P1
_symmetry_Int_Tables_number       1
loop_
    _symmetry_equiv_pos_site_id
    _symmetry_equiv_pos_as_xyz
    1  x,y,z
loop_
    _atom_site_type_symbol
    _atom_site_label
    _atom_site_fract_x
    _atom_site_fract_y
    _atom_site_fract_z
    _atom_type_partial_charge
    C   C1   0.578166  0.685266  0.983989  -0.143961
    C   C2   0.421834  0.314734  0.016011  -0.144000
    C   C3   0.743342  0.746314  0.992932  -0.151708
    C   C4   0.256657  0.253686  0.007068  -0.151641
    C   C5   0.796065  0.871396  0.010648  0.091695
    C   C6   0.203935  0.128604  0.989352  0.091605
    C   C7   0.679841  0.929153  0.030155  -0.043210
    C   C8   0.320159  0.070847  0.969845  -0.043179
    H   H1   0.717720  0.024080  0.050475  0.079700
    H   H2   0.282280  0.975920  0.949525  0.079692
    C   C9   0.513838  0.863117  0.029354  -0.208475
    C   C10  0.486162  0.136883  0.970646  -0.208522
    C   C11  0.462599  0.742211  0.002837  -0.026057
    C   C12  0.537401  0.257789  0.997163  -0.025951
    C   C13  0.973083  0.940031  0.008994  -0.193247
    C   C14  0.026916  0.059969  0.991006  -0.193193
    H   H3   0.060589  0.890542  0.020053  0.124042
    H   H4   0.939411  0.109458  0.979947  0.124040
    H   H5   0.538714  0.588662  0.967631  0.132825
    H   H6   0.461285  0.411338  0.032368  0.132819
    H   H7   0.424596  0.906599  0.048834  0.116934
    H   H8   0.575404  0.093401  0.951166  0.116952
    O   O1   0.219757  0.628896  0.068230  -0.740656
    O   O2   0.780243  0.371104  0.931770  -0.740545
    O   O3   0.220558  0.624988  0.936124  -0.757452
    O   O4   0.779441  0.375012  0.063876  -0.757334
    C   C15  0.289509  0.666931  0.002395  0.876606
    C   C16  0.710490  0.333069  0.997605  0.876387
    O   O5   0.116476  0.368283  0.937891  -0.753584
    O   O6   0.883524  0.631717  0.062109  -0.753553
    O   O7   0.105915  0.371621  0.069895  -0.751888
    O   O8   0.894085  0.628379  0.930105  -0.751855
    C   C17  0.145924  0.329066  0.005087  0.960669
    C   C18  0.854076  0.670934  0.994913  0.960637
    Zn  Zn1  0.002918  0.495377  0.914579  1.056469
    Zn  Zn2  0.997081  0.504623  0.085421  1.056463
    C   C19  0.960335  0.384231  0.774294  -0.269878
    C   C20  0.039664  0.615769  0.225706  -0.269618
    N   N1   0.008767  0.491848  0.814290  0.197904
    N   N2   0.991233  0.508152  0.185710  0.197889
    C   C21  0.056831  0.600961  0.778061  -0.259729
    C   C22  0.943169  0.399039  0.221938  -0.259858
    C   C23  0.908366  0.274794  0.653858  -0.252391
    C   C24  0.091634  0.725206  0.346142  -0.252335
    C   C25  0.958775  0.384621  0.695188  0.234940
    C   C26  0.041225  0.615379  0.304812  0.234754
    C   C27  0.006506  0.495485  0.657555  -0.105799
    C   C28  0.993493  0.504515  0.342445  -0.106214
    C   C29  0.056301  0.604357  0.699260  0.223528
    C   C30  0.943698  0.395643  0.300740  0.223949
    C   C31  0.103896  0.716197  0.662296  -0.252371
    C   C32  0.896104  0.283803  0.337704  -0.252664
    C   C33  0.854816  0.166594  0.532504  -0.121702
    C   C34  0.145184  0.833406  0.467495  -0.121752
    C   C35  0.905259  0.276131  0.574689  0.173346
    C   C36  0.094741  0.723869  0.425311  0.173479
    C   C37  0.952672  0.387999  0.537293  -0.028297
    C   C38  0.047328  0.612001  0.462707  -0.028471
    C   C39  0.851931  0.169658  0.453692  -0.125213
    C   C40  0.148068  0.830342  0.546308  -0.125201
    C   C41  0.898989  0.281344  0.416601  0.200483
    C   C42  0.101011  0.718656  0.583399  0.200269
    C   C43  0.003437  0.497591  0.578768  0.054137
    C   C44  0.996563  0.502409  0.421232  0.054503
    C   C45  0.050643  0.609414  0.541593  -0.044478
    C   C46  0.949357  0.390586  0.458407  -0.044716
    H   H9   0.921132  0.297619  0.804375  0.193511
    H   H10  0.078868  0.702381  0.195625  0.193448
    H   H11  0.871211  0.188482  0.684049  0.096559
    H   H12  0.128789  0.811518  0.315950  0.096575
    H   H13  0.142902  0.801841  0.695112  0.130060
    H   H14  0.857098  0.198159  0.304888  0.130106
    H   H15  0.812497  0.083777  0.421129  0.072547
    H   H16  0.187502  0.916223  0.578871  0.072532
    H   H17  0.094051  0.686460  0.811019  0.188872
    H   H18  0.905949  0.313540  0.188981  0.188883
    I   I1   0.781425  0.992531  0.585477  0.025457
    I   I2   0.218574  0.007469  0.414523  0.025431
