# generated using pymatgen
data_ZnH5C13(NO3)2
_symmetry_space_group_name_H-M   'P 1'
_cell_length_a   6.59634800
_cell_length_b   9.15988400
_cell_length_c   12.32592100
_cell_angle_alpha   89.90596800
_cell_angle_beta   80.29064300
_cell_angle_gamma   89.93969000
_symmetry_Int_Tables_number   1
_chemical_formula_structural   ZnH5C13(NO3)2
_chemical_formula_sum   'Zn2 H10 C26 N4 O12'
_cell_volume   734.08499905
_cell_formula_units_Z   2
loop_
 _symmetry_equiv_pos_site_id
 _symmetry_equiv_pos_as_xyz
  1  'x, y, z'
loop_
 _atom_site_type_symbol
 _atom_site_label
 _atom_site_symmetry_multiplicity
 _atom_site_fract_x
 _atom_site_fract_y
 _atom_site_fract_z
 _atom_site_occupancy
  Zn  Zn1  1  0.48752700  0.83734700  0.49884700  1
  Zn  Zn2  1  0.51248400  0.16264100  0.50116600  1
  H  H1  1  0.53132700  0.92177900  0.85151900  1
  H  H2  1  0.46868400  0.07821000  0.14849500  1
  H  H3  1  0.47367300  0.90100500  0.04726400  1
  H  H4  1  0.52633800  0.09898500  0.95274900  1
  H  H5  1  0.60246200  0.91875800  0.22283100  1
  H  H6  1  0.39755000  0.08123100  0.77718300  1
  H  H7  1  0.62342000  0.40526300  0.32081200  1
  H  H8  1  0.37659100  0.59472600  0.67920100  1
  H  H9  1  0.75098200  0.42860700  0.60890500  1
  H  H10  1  0.24902900  0.57138100  0.39110900  1
  C  C1  1  0.81843200  0.97943200  0.75370000  1
  C  C2  1  0.18158000  0.02055700  0.24631300  1
  C  C3  1  0.69004400  0.95003000  0.85175800  1
  C  C4  1  0.30996800  0.04995900  0.14825600  1
  C  C5  1  0.76222600  0.95796400  0.95010500  1
  C  C6  1  0.23778600  0.04202500  0.04990800  1
  C  C7  1  0.63230000  0.93003300  0.04778400  1
  C  C8  1  0.36771200  0.06995600  0.95223000  1
  C  C9  1  0.70450700  0.94003000  0.14619400  1
  C  C10  1  0.29550500  0.05995900  0.85382000  1
  C  C11  1  0.02269900  0.01237300  0.75416200  1
  C  C12  1  0.97731200  0.98761500  0.24585200  1
  C  C13  1  0.09311400  0.02352200  0.85309100  1
  C  C14  1  0.90689700  0.97646700  0.14692200  1
  C  C15  1  0.96358800  0.99598900  0.95085500  1
  C  C16  1  0.03642400  0.00400000  0.04915900  1
  C  C17  1  0.72796300  0.98691400  0.65359200  1
  C  C18  1  0.27204800  0.01307500  0.34642100  1
  C  C19  1  0.17517000  0.01048800  0.65359600  1
  C  C20  1  0.82484100  0.98950100  0.34641800  1
  C  C21  1  0.66017100  0.56153100  0.46390300  1
  C  C22  1  0.33984000  0.43845700  0.53611000  1
  C  C23  1  0.56119800  0.44880700  0.40365900  1
  C  C24  1  0.43881300  0.55118100  0.59635400  1
  C  C25  1  0.63116600  0.46141800  0.56044300  1
  C  C26  1  0.36884500  0.53857000  0.43957000  1
  N  N1  1  0.52594300  0.35408400  0.50131100  1
  N  N2  1  0.47406800  0.64590500  0.49870300  1
  N  N3  1  0.85121300  0.63501000  0.42025000  1
  N  N4  1  0.14879700  0.36497900  0.57976300  1
  O  O1  1  0.67916900  0.11636700  0.61971500  1
  O  O2  1  0.32084300  0.88362100  0.38029900  1
  O  O3  1  0.66747700  0.86469700  0.61408600  1
  O  O4  1  0.33253400  0.13529100  0.38592700  1
  O  O5  1  0.24628300  0.88246700  0.61754600  1
  O  O6  1  0.75372800  0.11752100  0.38246700  1
  O  O7  1  0.25976800  0.13421800  0.61630400  1
  O  O8  1  0.74024300  0.86577100  0.38371000  1
  O  O9  1  0.92979900  0.72859900  0.48059700  1
  O  O10  1  0.94366300  0.60753700  0.32066900  1
  O  O11  1  0.05634700  0.39245400  0.67934400  1
  O  O12  1  0.07020500  0.27139600  0.51941500  1
