# Generated by REPEAT Assigner based on pymatgen
data_DB0-m29_o88_o1490_f0_pts.sym.88
_audit_creation_date              2022-05-24
_audit_creation_method            REPEAT_Assigner
_cell_length_a                    15.545442
_cell_length_b                    11.661791
_cell_length_c                    13.628112
_cell_angle_alpha                 88.535525
_cell_angle_beta                  101.879662
_cell_angle_gamma                 106.668899
_cell_volume                      2314.619754
_symmetry_space_group_name_H-M    P1
_symmetry_Int_Tables_number       1
loop_
    _symmetry_equiv_pos_site_id
    _symmetry_equiv_pos_as_xyz
    1  x,y,z
loop_
    _atom_site_type_symbol
    _atom_site_label
    _atom_site_fract_x
    _atom_site_fract_y
    _atom_site_fract_z
    _atom_type_partial_charge
    C   C1   0.809636  0.013961  0.173986  -0.195271
    C   C2   0.891622  0.009958  0.153654  -0.214652
    H   H1   0.949140  0.014586  0.215014  0.144848
    C   C3   0.900684  0.997589  0.056667  0.283471
    C   C4   0.827133  0.994760  0.978307  -0.200077
    H   H2   0.835423  0.992873  0.901761  0.140741
    C   C5   0.743563  0.998837  0.997371  -0.024914
    C   C6   0.734239  0.004268  0.096413  0.090515
    C   C7   0.991188  0.994954  0.041520  -0.183359
    C   C8   0.003075  0.942793  0.961118  -0.186802
    H   H3   0.049894  0.037422  0.099750  0.136205
    H   H4   0.944756  0.901606  0.901992  0.156492
    C   C9   0.107311  0.952942  0.847992  -0.263107
    H   H5   0.049491  0.948883  0.787174  0.161950
    C   C10  0.193729  0.976084  0.828107  -0.040331
    C   C11  0.269704  0.987997  0.905811  -0.086223
    C   C12  0.257133  0.974963  0.004749  0.031783
    C   C13  0.169541  0.956497  0.023003  -0.197272
    H   H6   0.159145  0.947250  0.098985  0.156721
    C   C14  0.095143  0.949281  0.944971  0.267684
    O   O1   0.526888  0.184112  0.739031  -0.645588
    C   C15  0.463059  0.172142  0.656803  0.779093
    O   O2   0.413179  0.131015  0.895158  -0.475737
    O   O3   0.400941  0.068084  0.636028  -0.562010
    O   O4   0.388367  0.940774  0.837414  -0.589346
    C   C16  0.361287  0.019606  0.881373  0.720394
    Fe  Fe1  0.504322  0.022104  0.794284  1.475175
    O   O5   0.596493  0.033764  0.923389  -0.563691
    O   O6   0.673493  0.970706  0.821402  -0.496903
    C   C17  0.667550  0.999086  0.911741  0.554947
    O   O7   0.509646  0.926355  0.676576  -0.590107
    O   O8   0.470074  0.753952  0.761115  -0.483439
    C   C18  0.490301  0.809456  0.680238  0.677597
    O   O9   0.511526  0.106685  0.328476  -0.568480
    O   O10  0.450201  0.227659  0.219670  -0.474710
    C   C19  0.484766  0.203828  0.311449  0.561597
    O   O11  0.418551  0.004848  0.080715  -0.538467
    O   O12  0.315807  0.959837  0.181753  -0.531021
    C   C20  0.333326  0.980451  0.091727  0.613857
    O   O13  0.610980  0.922399  0.357944  -0.446281
    O   O14  0.626027  0.067089  0.168797  -0.597481
    C   C21  0.644058  0.983544  0.121114  0.696547
    O   O15  0.469077  0.842140  0.264608  -0.528199
    C   C22  0.535405  0.833045  0.339025  0.580823
    O   O16  0.582907  0.878495  0.100604  -0.509674
    Fe  Fe2  0.507104  0.003947  0.210550  1.441828
    C   C23  0.509287  0.809505  0.507311  -0.063811
    C   C24  0.494060  0.744770  0.590943  -0.062337
    C   C25  0.485045  0.623474  0.589078  -0.072513
    C   C26  0.513550  0.755032  0.421596  -0.148301
    C   C27  0.505505  0.634094  0.419026  0.550728
    C   C28  0.492909  0.566586  0.503322  -0.252222
    C   C29  0.488619  0.444688  0.498897  0.327934
    C   C30  0.484512  0.373612  0.583148  -0.276088
    C   C31  0.475407  0.253516  0.574357  0.017952
    N   N1   0.513303  0.583884  0.335085  -0.484607
    C   C32  0.506341  0.466939  0.327876  0.217142
    C   C33  0.491012  0.393519  0.407955  -0.155848
    C   C34  0.481245  0.270625  0.400422  0.054418
    C   C35  0.471123  0.203112  0.483613  -0.182022
    H   H7   0.515051  0.433771  0.258799  0.108827
    H   H8   0.517320  0.904594  0.506564  0.163030
    H   H9   0.461443  0.107826  0.479338  0.168939
    H   H10  0.471670  0.577014  0.655822  0.112516
    H   H11  0.487015  0.406791  0.656794  0.200556
    C   C36  0.803152  0.019373  0.279419  0.659986
    O   O17  0.818371  0.940400  0.334625  -0.467601
    N   N2   0.791421  0.123721  0.320862  -0.571396
    H   H12  0.847593  0.157182  0.379704  0.278125
    H   H13  0.794513  0.187872  0.265827  0.241578
    C   C37  0.202996  0.999681  0.724163  0.891537
    O   O18  0.255936  0.092453  0.704596  -0.542296
    N   N3   0.140693  0.923000  0.644558  -0.937523
    H   H14  0.179720  0.893743  0.602239  0.377557
    H   H15  0.104923  0.974725  0.598966  0.366613
