# generated using pymatgen
data_Zn2H25C33N5O8
_symmetry_space_group_name_H-M   'P 1'
_cell_length_a   8.54454900
_cell_length_b   12.76449500
_cell_length_c   13.42476900
_cell_angle_alpha   90.87605800
_cell_angle_beta   90.06511300
_cell_angle_gamma   95.44745400
_symmetry_Int_Tables_number   1
_chemical_formula_structural   Zn2H25C33N5O8
_chemical_formula_sum   'Zn2 H25 C33 N5 O8'
_cell_volume   1457.40921850
_cell_formula_units_Z   1
loop_
 _symmetry_equiv_pos_site_id
 _symmetry_equiv_pos_as_xyz
  1  'x, y, z'
loop_
 _atom_site_type_symbol
 _atom_site_label
 _atom_site_symmetry_multiplicity
 _atom_site_fract_x
 _atom_site_fract_y
 _atom_site_fract_z
 _atom_site_occupancy
  Zn  Zn1  1  0.50183200  0.50263000  0.88954600  1
  Zn  Zn2  1  0.49736400  0.49426300  0.11185800  1
  H  H1  1  0.29635200  0.85754000  0.98396900  1
  H  H2  1  0.79219200  0.84757100  0.99078800  1
  H  H3  1  0.70235300  0.13806300  0.01450100  1
  H  H4  1  0.20671200  0.14800500  0.00793600  1
  H  H5  1  0.01664500  0.57251800  0.03982800  1
  H  H6  1  0.98270200  0.42454300  0.96519400  1
  H  H7  1  0.47112900  0.34112200  0.74902700  1
  H  H8  1  0.45883500  0.24130000  0.59056100  1
  H  H9  1  0.46622300  0.66095600  0.43249900  1
  H  H10  1  0.57408200  0.66552900  0.56744200  1
  H  H11  1  0.47921400  0.32880200  0.25417800  1
  H  H12  1  0.53850000  0.71144600  0.83171500  1
  H  H13  1  0.75322100  0.76745100  0.65601800  1
  H  H14  1  0.81081700  0.69622000  0.76284100  1
  H  H15  1  0.75115400  0.82751300  0.77819800  1
  H  H16  1  0.48883500  0.80862300  0.63396500  1
  H  H17  1  0.44048100  0.84786300  0.75820400  1
  H  H18  1  0.32959200  0.73591000  0.70000600  1
  H  H19  1  0.52883700  0.70034600  0.17088600  1
  H  H20  1  0.33949300  0.77316900  0.34462000  1
  H  H21  1  0.25045100  0.69004900  0.24626500  1
  H  H22  1  0.35162100  0.81680600  0.21794200  1
  H  H23  1  0.61339300  0.79483900  0.37149100  1
  H  H24  1  0.66981100  0.83459400  0.24807800  1
  H  H25  1  0.74544700  0.72007400  0.30019600  1
  C  C1  1  0.16984000  0.70717400  0.00713500  1
  C  C2  1  0.18206400  0.81458000  0.99264600  1
  C  C3  1  0.04754800  0.86775800  0.99382200  1
  C  C4  1  0.90064200  0.81101300  0.99782100  1
  C  C5  1  0.89112700  0.70406900  0.01189300  1
  C  C6  1  0.02521000  0.65485300  0.02360500  1
  C  C7  1  0.81662200  0.18132400  0.00682400  1
  C  C8  1  0.82859000  0.28906700  0.99449900  1
  C  C9  1  0.97398000  0.34186200  0.97981100  1
  C  C10  1  0.10850700  0.29216300  0.98989500  1
  C  C11  1  0.09839400  0.18488000  0.00182100  1
  C  C12  1  0.95127100  0.12820500  0.00513000  1
  C  C13  1  0.74205200  0.63891600  0.00816200  1
  C  C14  1  0.69333500  0.35173200  0.99762900  1
  C  C15  1  0.25890700  0.35669500  0.99355600  1
  C  C16  1  0.30376300  0.64399600  0.00395400  1
  C  C17  1  0.48460500  0.40314900  0.29426400  1
  C  C18  1  0.49320800  0.58779900  0.29462600  1
  C  C19  1  0.48455600  0.58802600  0.39626400  1
  C  C20  1  0.49234400  0.49801300  0.44936400  1
  C  C21  1  0.48403300  0.40388100  0.39837500  1
  C  C22  1  0.53685800  0.59393700  0.60455800  1
  C  C23  1  0.50272900  0.50100100  0.55241500  1
  C  C24  1  0.48555400  0.40939100  0.60422900  1
  C  C25  1  0.46997000  0.31482500  0.55112200  1
  C  C26  1  0.53301600  0.59795900  0.70657000  1
  C  C27  1  0.48666200  0.41359800  0.70807900  1
  C  C28  1  0.56047000  0.70708500  0.75228700  1
  C  C29  1  0.72941000  0.75226100  0.73582500  1
  C  C30  1  0.44800500  0.77908900  0.70753900  1
  C  C31  1  0.50438300  0.69654600  0.24994200  1
  C  C32  1  0.35202200  0.74710400  0.26622000  1
  C  C33  1  0.64132800  0.76552700  0.29614700  1
  N  N1  1  0.06259400  0.97896200  0.99069800  1
  N  N2  1  0.93612400  0.01696300  0.00766500  1
  N  N3  1  0.49381500  0.49443700  0.24288600  1
  N  N4  1  0.47267600  0.31357500  0.45012200  1
  N  N5  1  0.50603300  0.50698300  0.75867700  1
  O  O1  1  0.68542400  0.59917600  0.09086400  1
  O  O2  1  0.68354200  0.61052300  0.92095600  1
  O  O3  1  0.65130100  0.39239000  0.91303800  1
  O  O4  1  0.64253000  0.38115400  0.08588200  1
  O  O5  1  0.31526900  0.39603800  0.90926500  1
  O  O6  1  0.31720700  0.38446000  0.08226700  1
  O  O7  1  0.34540400  0.60247000  0.08684300  1
  O  O8  1  0.35473200  0.61410000  0.91724200  1
