# generated using pymatgen
data_Fe2H24C51O16
_symmetry_space_group_name_H-M   'P 1'
_cell_length_a   14.44952400
_cell_length_b   9.51297500
_cell_length_c   19.51131700
_cell_angle_alpha   85.62704700
_cell_angle_beta   90.44305100
_cell_angle_gamma   110.07545700
_symmetry_Int_Tables_number   1
_chemical_formula_structural   Fe2H24C51O16
_chemical_formula_sum   'Fe2 H24 C51 O16'
_cell_volume   2511.21185321
_cell_formula_units_Z   1
loop_
 _symmetry_equiv_pos_site_id
 _symmetry_equiv_pos_as_xyz
  1  'x, y, z'
loop_
 _atom_site_type_symbol
 _atom_site_label
 _atom_site_symmetry_multiplicity
 _atom_site_fract_x
 _atom_site_fract_y
 _atom_site_fract_z
 _atom_site_occupancy
  Fe  Fe1  1  0.47029400  0.97516400  0.09069100  1
  Fe  Fe2  1  0.48321700  0.96466600  0.81130400  1
  H  H1  1  0.14518300  0.01749100  0.81181200  1
  H  H2  1  0.01771400  0.05018000  0.87705800  1
  H  H3  1  0.90258000  0.82472900  0.91274200  1
  H  H4  1  0.75320800  0.82280700  0.85741900  1
  H  H5  1  0.22828300  0.00784100  0.10626100  1
  H  H6  1  0.10436500  0.06649700  0.16645500  1
  H  H7  1  0.95702200  0.12359400  0.16705400  1
  H  H8  1  0.80903300  0.13066700  0.11312700  1
  H  H9  1  0.49864400  0.51160300  0.79159900  1
  H  H10  1  0.50125900  0.26544100  0.61784500  1
  H  H11  1  0.51348600  0.72184600  0.59088100  1
  H  H12  1  0.40189900  0.61227600  0.50881900  1
  H  H13  1  0.39233400  0.60460200  0.38529800  1
  H  H14  1  0.58387900  0.34712500  0.39101300  1
  H  H15  1  0.59362100  0.35497700  0.51488600  1
  H  H16  1  0.46933000  0.23549600  0.31027300  1
  H  H17  1  0.48285000  0.69168300  0.28195000  1
  H  H18  1  0.63855700  0.48957000  0.12037400  1
  H  H19  1  0.67196900  0.60543200  0.04086900  1
  H  H20  1  0.66079900  0.41038600  0.04413500  1
  H  H21  1  0.56361600  0.46959500  0.93667300  1
  H  H22  1  0.39351000  0.41142700  0.89755100  1
  H  H23  1  0.25800700  0.35891900  0.98159500  1
  H  H24  1  0.29282500  0.36951000  0.10478100  1
  C  C1  1  0.22700800  0.98005200  0.89898200  1
  C  C2  1  0.14776500  0.00358100  0.86718100  1
  C  C3  1  0.07167100  0.01507000  0.90504900  1
  C  C4  1  0.86149200  0.88727000  0.93406000  1
  C  C5  1  0.23238200  0.97700700  0.97021300  1
  C  C6  1  0.15404600  0.98756700  0.00864000  1
  C  C7  1  0.06909600  0.99322100  0.97618900  1
  C  C8  1  0.98948500  0.99957900  0.01519300  1
  C  C9  1  0.77441500  0.88020500  0.90383700  1
  C  C10  1  0.71242600  0.94105400  0.93310600  1
  C  C11  1  0.89408000  0.97201100  0.98978700  1
  C  C12  1  0.82611700  0.01569700  0.02497200  1
  C  C13  1  0.73205500  0.99313700  0.99816300  1
  C  C14  1  0.16332200  0.00657800  0.07841300  1
  C  C15  1  0.09247500  0.04012000  0.11346900  1
  C  C16  1  0.00677000  0.03871900  0.08191400  1
  C  C17  1  0.93997600  0.08196600  0.11677300  1
  C  C18  1  0.85357400  0.08073000  0.08659300  1
  C  C19  1  0.64975800  0.99727700  0.04206700  1
  C  C20  1  0.46783900  0.70753200  0.14481700  1
  C  C21  1  0.32713300  0.99339200  0.00279100  1
  C  C22  1  0.45747600  0.18008900  0.17991400  1
  C  C23  1  0.50754900  0.76759600  0.72193500  1
  C  C24  1  0.62074700  0.92628400  0.89796600  1
  C  C25  1  0.50077800  0.24458700  0.75698000  1
  C  C26  1  0.30779800  0.97434400  0.85543300  1
  C  C27  1  0.50298800  0.37469900  0.70990500  1
  C  C28  1  0.50429600  0.36841600  0.63915000  1
  C  C29  1  0.50491900  0.49171600  0.59588200  1
  C  C30  1  0.50863500  0.62270600  0.62367700  1
  C  C31  1  0.50428600  0.62814200  0.69363700  1
  C  C32  1  0.50025700  0.50408800  0.73671400  1
  C  C33  1  0.44384500  0.55602500  0.48341400  1
  C  C34  1  0.43828100  0.55183400  0.41302800  1
  C  C35  1  0.48742300  0.47562000  0.37906200  1
  C  C36  1  0.54269700  0.40441600  0.41651800  1
  C  C37  1  0.54831600  0.40867400  0.48698900  1
  C  C38  1  0.49899800  0.48476100  0.52093200  1
  C  C39  1  0.47148700  0.33296400  0.27717100  1
  C  C40  1  0.46625600  0.32231100  0.20737500  1
  C  C41  1  0.46529400  0.44312900  0.16370400  1
  C  C42  1  0.46923700  0.57663800  0.19040500  1
  C  C43  1  0.47638200  0.58701000  0.26091900  1
  C  C44  1  0.47857700  0.46576600  0.30437400  1
  C  C45  1  0.44767600  0.42201700  0.09064400  1
  C  C46  1  0.52449900  0.45077700  0.04319200  1
  C  C47  1  0.62967200  0.49127900  0.06397700  1
  C  C48  1  0.50421800  0.44624800  0.97393500  1
  C  C49  1  0.40884900  0.41411800  0.95180100  1
  C  C50  1  0.33281100  0.38411900  0.99889900  1
  C  C51  1  0.35236000  0.38890800  0.06803400  1
  O  O1  1  0.56854700  0.00913500  0.01551100  1
  O  O2  1  0.48060100  0.71132200  0.07813500  1
  O  O3  1  0.64941200  0.96094900  0.10832300  1
  O  O4  1  0.45863000  0.82636500  0.16977500  1
  O  O5  1  0.33645300  0.89268600  0.04965200  1
  O  O6  1  0.40355500  0.11405500  0.98638500  1
  O  O7  1  0.51339500  0.17834500  0.12762100  1
  O  O8  1  0.39257500  0.05469400  0.20674900  1
  O  O9  1  0.44509600  0.76517200  0.77090400  1
  O  O10  1  0.57515600  0.89477300  0.69973600  1
  O  O11  1  0.61087700  0.04137800  0.86084800  1
  O  O12  1  0.55470000  0.79225600  0.89404100  1
  O  O13  1  0.31130700  0.01811200  0.78981300  1
  O  O14  1  0.50473200  0.12025100  0.73380600  1
  O  O15  1  0.37645300  0.92553800  0.88072300  1
  O  O16  1  0.49048100  0.24996400  0.82339200  1
