data_DB0-m29_o96_o490_f0_pts.sym.5_repeat
_audit_creation_date              2024-02-23
_audit_creation_method            'Materials Studio'
_symmetry_space_group_name_H-M    'P1'
_symmetry_Int_Tables_number       1
_symmetry_cell_setting            triclinic
loop_
_symmetry_equiv_pos_as_xyz
  x,y,z
_cell_length_a                    17.3015
_cell_length_b                    11.5986
_cell_length_c                    18.5567
_cell_angle_alpha                 88.7730
_cell_angle_beta                  90.6320
_cell_angle_gamma                 109.3097
loop_
_atom_site_label
_atom_site_type_symbol
_atom_site_fract_x
_atom_site_fract_y
_atom_site_fract_z
_atom_site_U_iso_or_equiv
_atom_site_adp_type
_atom_site_occupancy
C1     C     0.24193   0.10592   0.09616   0.00000  Uiso   1.00
C2     C     0.21142   0.18107   0.13295   0.00000  Uiso   1.00
C3     C     0.13411   0.16520   0.10585   0.00000  Uiso   1.00
N1     N     0.11751   0.08524   0.05132   0.00000  Uiso   1.00
C4     C     0.18401   0.04960   0.04497   0.00000  Uiso   1.00
C5     C     0.08116   0.21419   0.13292   0.00000  Uiso   1.00
C6     C     0.99482   0.17918   0.11052   0.00000  Uiso   1.00
C7     C     0.93123   0.17462   0.15591   0.00000  Uiso   1.00
C8     C     0.86118   0.13693   0.11653   0.00000  Uiso   1.00
C9     C     0.88270   0.11879   0.04730   0.00000  Uiso   1.00
N2     N     0.96485   0.14545   0.04376   0.00000  Uiso   1.00
C10    C     0.82423   0.07566   0.98770   0.00000  Uiso   1.00
C11    C     0.83357   0.00226   0.93650   0.00000  Uiso   1.00
C12    C     0.77473   0.94454   0.88647   0.00000  Uiso   1.00
C13    C     0.80314   0.86532   0.85063   0.00000  Uiso   1.00
C14    C     0.88243   0.88472   0.87597   0.00000  Uiso   1.00
N3     N     0.89982   0.96650   0.92964   0.00000  Uiso   1.00
C15    C     0.93840   0.84398   0.84622   0.00000  Uiso   1.00
C16    C     0.02491   0.88206   0.86856   0.00000  Uiso   1.00
C17    C     0.08910   0.88996   0.82298   0.00000  Uiso   1.00
C18    C     0.15873   0.92514   0.86303   0.00000  Uiso   1.00
C19    C     0.13645   0.93852   0.93273   0.00000  Uiso   1.00
N4     N     0.05421   0.91113   0.93600   0.00000  Uiso   1.00
C20    C     0.19426   0.97832   0.99307   0.00000  Uiso   1.00
H1     H     0.09928   0.27159   0.17949   0.00000  Uiso   1.00
H2     H     0.76650   0.09237   0.99120   0.00000  Uiso   1.00
H3     H     0.92358   0.79341   0.79712   0.00000  Uiso   1.00
H4     H     0.25206   0.96168   0.98981   0.00000  Uiso   1.00
H5     H     0.99884   0.14556   0.99775   0.00000  Uiso   1.00
H6     H     0.01968   0.90690   0.98224   0.00000  Uiso   1.00
C21    C     0.09081   0.87249   0.75007   0.00000  Uiso   1.00
C22    C     0.16626   0.89245   0.71821   0.00000  Uiso   1.00
C23    C     0.23815   0.92913   0.75905   0.00000  Uiso   1.00
C24    C     0.23452   0.94554   0.83277   0.00000  Uiso   1.00
C25    C     0.31708   0.09522   0.11304   0.00000  Uiso   1.00
C26    C     0.36237   0.16800   0.16722   0.00000  Uiso   1.00
C27    C     0.33243   0.24915   0.20237   0.00000  Uiso   1.00
C28    C     0.25560   0.25479   0.18641   0.00000  Uiso   1.00
C29    C     0.93045   0.19573   0.22842   0.00000  Uiso   1.00
C30    C     0.85538   0.17683   0.26072   0.00000  Uiso   1.00
C31    C     0.78299   0.13753   0.22066   0.00000  Uiso   1.00
C32    C     0.78572   0.11765   0.14724   0.00000  Uiso   1.00
C33    C     0.70088   0.95990   0.86968   0.00000  Uiso   1.00
C34    C     0.65326   0.88728   0.81691   0.00000  Uiso   1.00
C35    C     0.67864   0.79929   0.78441   0.00000  Uiso   1.00
C36    C     0.75379   0.78676   0.80046   0.00000  Uiso   1.00
H7     H     0.03560   0.84569   0.71778   0.00000  Uiso   1.00
H8     H     0.28944   0.97528   0.86533   0.00000  Uiso   1.00
H9     H     0.34039   0.03229   0.08574   0.00000  Uiso   1.00
H10    H     0.36765   0.30481   0.24511   0.00000  Uiso   1.00
H11    H     0.23225   0.31590   0.21543   0.00000  Uiso   1.00
H12    H     0.98612   0.22429   0.26007   0.00000  Uiso   1.00
H13    H     0.73035   0.08543   0.11542   0.00000  Uiso   1.00
H14    H     0.68059   0.02729   0.89558   0.00000  Uiso   1.00
H15    H     0.63951   0.74009   0.74500   0.00000  Uiso   1.00
H16    H     0.16838   0.87950   0.66087   0.00000  Uiso   1.00
H17    H     0.85393   0.19243   0.31781   0.00000  Uiso   1.00
O1     O     0.63607   0.08641   0.21808   0.00000  Uiso   1.00
C37    C     0.70400   0.11568   0.25639   0.00000  Uiso   1.00
O2     O     0.59468   0.85615   0.30839   0.00000  Uiso   1.00
O3     O     0.70109   0.12291   0.32670   0.00000  Uiso   1.00
O4     O     0.48934   0.92057   0.34076   0.00000  Uiso   1.00
C38    C     0.53021   0.84346   0.34834   0.00000  Uiso   1.00
Fe1    Fe    0.53701   0.06466   0.27646   0.00000  Uiso   1.00
O5     O     0.44404   0.04711   0.20726   0.00000  Uiso   1.00
O6     O     0.49752   0.25314   0.21482   0.00000  Uiso   1.00
C39    C     0.43971   0.15595   0.19193   0.00000  Uiso   1.00
O7     O     0.57514   0.21084   0.34000   0.00000  Uiso   1.00
O8     O     0.44073   0.12717   0.36784   0.00000  Uiso   1.00
C40    C     0.51146   0.21337   0.37721   0.00000  Uiso   1.00
C41    C     0.51464   0.23714   0.50569   0.00000  Uiso   1.00
C42    C     0.50662   0.29608   0.56719   0.00000  Uiso   1.00
C43    C     0.50590   0.41566   0.56173   0.00000  Uiso   1.00
C44    C     0.49982   0.47907   0.62245   0.00000  Uiso   1.00
C45    C     0.49860   0.59678   0.61637   0.00000  Uiso   1.00
C46    C     0.52077   0.29263   0.43908   0.00000  Uiso   1.00
C47    C     0.52049   0.41185   0.43296   0.00000  Uiso   1.00
C48    C     0.51300   0.47346   0.49435   0.00000  Uiso   1.00
C49    C     0.51112   0.59226   0.48814   0.00000  Uiso   1.00
C50    C     0.50340   0.65369   0.54953   0.00000  Uiso   1.00
C51    C     0.50262   0.77260   0.54344   0.00000  Uiso   1.00
C52    C     0.52528   0.46880   0.36612   0.00000  Uiso   1.00
C53    C     0.52423   0.58665   0.36006   0.00000  Uiso   1.00
C54    C     0.51818   0.65012   0.42078   0.00000  Uiso   1.00
C55    C     0.51729   0.76968   0.41538   0.00000  Uiso   1.00
C56    C     0.50884   0.82828   0.47690   0.00000  Uiso   1.00
H18    H     0.49677   0.43916   0.67583   0.00000  Uiso   1.00
H19    H     0.49295   0.64204   0.66521   0.00000  Uiso   1.00
H20    H     0.53075   0.42341   0.31728   0.00000  Uiso   1.00
H21    H     0.52723   0.62653   0.30667   0.00000  Uiso   1.00
H22    H     0.51090   0.14230   0.50874   0.00000  Uiso   1.00
H23    H     0.51222   0.92297   0.47399   0.00000  Uiso   1.00
O9     O     0.57646   0.01468   0.77558   0.00000  Uiso   1.00
O10    O     0.51738   0.80930   0.76966   0.00000  Uiso   1.00
C57    C     0.57739   0.90434   0.79196   0.00000  Uiso   1.00
O11    O     0.44651   0.85570   0.64071   0.00000  Uiso   1.00
O12    O     0.58220   0.93510   0.61691   0.00000  Uiso   1.00
C58    C     0.51098   0.85120   0.60547   0.00000  Uiso   1.00
O13    O     0.42813   0.20922   0.67345   0.00000  Uiso   1.00
O14    O     0.38495   0.97876   0.76295   0.00000  Uiso   1.00
C59    C     0.31753   0.95116   0.72397   0.00000  Uiso   1.00
O15    O     0.53422   0.14556   0.64243   0.00000  Uiso   1.00
C60    C     0.49326   0.22243   0.63426   0.00000  Uiso   1.00
O16    O     0.32128   0.94536   0.65364   0.00000  Uiso   1.00
Fe2    Fe    0.48469   0.00037   0.70547   0.00000  Uiso   1.00
C61    C     0.77267   0.68451   0.76881   0.00000  Uiso   1.00
C62    C     0.78627   0.59530   0.81272   0.00000  Uiso   1.00
C63    C     0.80130   0.49703   0.78279   0.00000  Uiso   1.00
C64    C     0.80194   0.48684   0.70895   0.00000  Uiso   1.00
C65    C     0.78698   0.57451   0.66501   0.00000  Uiso   1.00
C66    C     0.77183   0.67275   0.69485   0.00000  Uiso   1.00
H24    H     0.78488   0.60198   0.87068   0.00000  Uiso   1.00
H25    H     0.81229   0.42769   0.81727   0.00000  Uiso   1.00
H26    H     0.81368   0.40974   0.68551   0.00000  Uiso   1.00
H27    H     0.78699   0.56614   0.60710   0.00000  Uiso   1.00
H28    H     0.76018   0.74118   0.66003   0.00000  Uiso   1.00
