# Generated by REPEAT Assigner based on pymatgen
data_DB0-m29_o81_o490_f0_pts.sym.12
_audit_creation_date              2022-05-24
_audit_creation_method            REPEAT_Assigner
_cell_length_a                    15.647543
_cell_length_b                    12.193054
_cell_length_c                    13.326866
_cell_angle_alpha                 91.440888
_cell_angle_beta                  87.104113
_cell_angle_gamma                 106.782524
_cell_volume                      2431.096083
_symmetry_space_group_name_H-M    P1
_symmetry_Int_Tables_number       1
loop_
    _symmetry_equiv_pos_site_id
    _symmetry_equiv_pos_as_xyz
    1  x,y,z
loop_
    _atom_site_type_symbol
    _atom_site_label
    _atom_site_fract_x
    _atom_site_fract_y
    _atom_site_fract_z
    _atom_type_partial_charge
    C   C1   0.881591  0.974445  0.860287  -0.243942
    C   C2   0.290860  0.985290  0.912434  0.006974
    C   C3   0.204816  0.972235  0.883447  -0.185349
    C   C4   0.135729  0.965184  0.953493  0.160168
    C   C5   0.052100  0.958887  0.921551  -0.221934
    C   C6   0.981784  0.959007  0.990060  -0.030618
    C   C7   0.799920  0.978649  0.832333  -0.091243
    C   C8   0.730229  0.967810  0.901542  -0.026433
    C   C9   0.897324  0.961387  0.960315  0.176854
    C   C10  0.828077  0.955670  0.032294  0.086651
    C   C11  0.743084  0.956299  0.002748  -0.065376
    C   C12  0.306403  0.987385  0.015130  -0.054487
    C   C13  0.235317  0.974887  0.084504  -0.219128
    C   C14  0.150594  0.966215  0.053820  0.206329
    C   C15  0.080823  0.960544  0.122876  -0.301418
    C   C16  0.997235  0.957774  0.091237  0.237102
    C   C17  0.929739  0.956149  0.161833  -0.216813
    C   C18  0.846290  0.954996  0.133215  -0.137584
    H   H1   0.931251  0.985241  0.799950  0.139102
    H   H2   0.191117  0.970788  0.804758  0.135178
    H   H3   0.045489  0.954057  0.841737  0.162739
    H   H4   0.790801  0.987887  0.753491  0.171307
    H   H5   0.247274  0.977522  0.163825  0.187654
    H   H6   0.092106  0.961046  0.202265  0.155769
    H   H7   0.942054  0.956681  0.240953  0.149024
    H   H8   0.797659  0.957270  0.192752  0.143864
    O   O1   0.620805  0.023719  0.072207  -0.582425
    C   C19  0.668521  0.950983  0.076953  0.543138
    O   O2   0.429744  0.752278  0.207745  -0.544797
    O   O3   0.646629  0.870093  0.144582  -0.501902
    O   O4   0.520677  0.899697  0.295821  -0.654476
    C   C20  0.475479  0.790841  0.287520  0.774382
    Fe  Fe1  0.528902  0.005561  0.183083  1.455710
    O   O5   0.409405  0.939895  0.123126  -0.519323
    O   O6   0.456756  0.106021  0.036558  -0.467532
    C   C21  0.395764  0.008351  0.054840  0.731679
    O   O7   0.561276  0.164348  0.242334  -0.650874
    O   O8   0.412211  0.110229  0.277535  -0.609039
    C   C22  0.490168  0.187188  0.283577  0.759190
    O   O9   0.457363  0.865171  0.665446  -0.601025
    O   O10  0.589686  0.824777  0.672782  -0.532825
    C   C23  0.508082  0.798469  0.641450  0.618678
    O   O11  0.646602  0.029949  0.781914  -0.666895
    O   O12  0.569173  0.900428  0.897745  -0.514315
    C   C24  0.644942  0.969619  0.862569  0.757933
    O   O13  0.337309  0.974305  0.738138  -0.499533
    O   O14  0.551959  0.131773  0.627887  -0.622642
    C   C25  0.509220  0.210093  0.636147  0.551503
    O   O15  0.444921  0.015842  0.851816  -0.594484
    C   C26  0.360364  0.991809  0.831798  0.637030
    O   O16  0.453613  0.209665  0.713260  -0.491689
    Fe  Fe2  0.524383  0.012204  0.732143  1.495237
    C   C27  0.508890  0.221239  0.456141  -0.172205
    C   C28  0.508344  0.277251  0.546086  0.085452
    C   C29  0.503090  0.388903  0.546646  -0.012075
    C   C30  0.508777  0.450338  0.635915  -0.089564
    C   C31  0.503474  0.560358  0.637917  -0.162653
    C   C32  0.501705  0.269640  0.366697  -0.011997
    C   C33  0.495692  0.382539  0.364365  0.003781
    C   C34  0.495320  0.441040  0.456527  0.093013
    C   C35  0.487638  0.552418  0.459640  -0.030210
    C   C36  0.492383  0.611876  0.550600  0.089370
    C   C37  0.486464  0.723010  0.553529  -0.002907
    C   C38  0.491752  0.440746  0.275306  -0.072202
    C   C39  0.484316  0.550793  0.281211  -0.268855
    C   C40  0.479349  0.606461  0.371665  0.218315
    C   C41  0.471918  0.718261  0.375511  -0.169079
    C   C42  0.473482  0.773049  0.467085  -0.083532
    H   H9   0.519603  0.415583  0.706096  0.135874
    H   H10  0.507018  0.603716  0.709880  0.157734
    H   H11  0.485895  0.594384  0.211953  0.212276
    H   H12  0.509707  0.132907  0.454528  0.161972
    H   H13  0.471111  0.860736  0.470909  0.144620
    C   C43  0.501248  0.396967  0.169881  0.318374
    C   C44  0.598749  0.409481  0.141115  -0.147056
    H   H14  0.634055  0.501231  0.128103  0.016627
    H   H15  0.631488  0.378838  0.201860  0.042293
    H   H16  0.603299  0.360118  0.071014  0.048299
    H   H17  0.457431  0.309603  0.156955  -0.080784
    H   H18  0.478344  0.448902  0.115919  -0.019973
