# generated using pymatgen
data_Zn3H24C54(Cl2O3)4
_symmetry_space_group_name_H-M   'P 1'
_cell_length_a   21.85425800
_cell_length_b   21.85425600
_cell_length_c   30.27691700
_cell_angle_alpha   90.00000000
_cell_angle_beta   90.00000000
_cell_angle_gamma   90.00000000
_symmetry_Int_Tables_number   1
_chemical_formula_structural   Zn3H24C54(Cl2O3)4
_chemical_formula_sum   'Zn12 H96 C216 Cl32 O48'
_cell_volume   14460.51439723
_cell_formula_units_Z   4
loop_
 _symmetry_equiv_pos_site_id
 _symmetry_equiv_pos_as_xyz
  1  'x, y, z'
loop_
 _atom_site_type_symbol
 _atom_site_label
 _atom_site_symmetry_multiplicity
 _atom_site_fract_x
 _atom_site_fract_y
 _atom_site_fract_z
 _atom_site_occupancy
  Zn  Zn1  1  0.00028400  0.43071100  0.49998400  1
  Zn  Zn2  1  0.50031300  0.49968500  0.44991600  1
  Zn  Zn3  1  0.99970400  0.00025000  0.05008300  1
  Zn  Zn4  1  0.99948400  0.00036900  0.94997200  1
  Zn  Zn5  1  0.43074400  0.99984800  0.50007100  1
  Zn  Zn6  1  0.00035100  0.56935000  0.49997300  1
  Zn  Zn7  1  0.56938200  0.99970300  0.49985400  1
  Zn  Zn8  1  0.49968200  0.93079300  0.00004100  1
  Zn  Zn9  1  0.93065000  0.50016600  0.00001400  1
  Zn  Zn10  1  0.49961000  0.06943200  0.99999200  1
  Zn  Zn11  1  0.06928800  0.50029900  0.00005400  1
  Zn  Zn12  1  0.50042800  0.49976800  0.55002900  1
  H  H1  1  0.03485700  0.59078100  0.27970200  1
  H  H2  1  0.09132700  0.46435600  0.77930800  1
  H  H3  1  0.46493200  0.90949300  0.77977600  1
  H  H4  1  0.90962100  0.53617700  0.77987500  1
  H  H5  1  0.53416200  0.90868200  0.22077800  1
  H  H6  1  0.09057800  0.53506700  0.22030100  1
  H  H7  1  0.46403800  0.09100800  0.22016500  1
  H  H8  1  0.90828400  0.46485300  0.22067500  1
  H  H9  1  0.03466400  0.59070500  0.36004800  1
  H  H10  1  0.59036800  0.96574300  0.35998400  1
  H  H11  1  0.96578700  0.40759300  0.35967800  1
  H  H12  1  0.59020000  0.96507500  0.27965400  1
  H  H13  1  0.40727700  0.03467500  0.35971100  1
  H  H14  1  0.03557800  0.40971000  0.63988900  1
  H  H15  1  0.59253600  0.03511600  0.64021800  1
  H  H16  1  0.96463300  0.59208000  0.64042500  1
  H  H17  1  0.41015100  0.96421000  0.64005800  1
  H  H18  1  0.53589500  0.09204300  0.85963400  1
  H  H19  1  0.09208400  0.46465300  0.85957700  1
  H  H20  1  0.46494900  0.90967300  0.86004400  1
  H  H21  1  0.90969900  0.53555600  0.86013700  1
  H  H22  1  0.53362000  0.90779400  0.14044600  1
  H  H23  1  0.96473700  0.40845200  0.27934800  1
  H  H24  1  0.09054900  0.53470600  0.13995700  1
  H  H25  1  0.46474100  0.09090400  0.13981900  1
  H  H26  1  0.90747300  0.46573700  0.14034200  1
  H  H27  1  0.30584700  0.54601000  0.56244700  1
  H  H28  1  0.54646100  0.69373800  0.56108800  1
  H  H29  1  0.69447200  0.45266100  0.56074900  1
  H  H30  1  0.45335200  0.30510300  0.56212200  1
  H  H31  1  0.30660000  0.45232500  0.43885100  1
  H  H32  1  0.54868400  0.30590800  0.43909800  1
  H  H33  1  0.69470700  0.54817200  0.43779800  1
  H  H34  1  0.40789200  0.03525100  0.27936300  1
  H  H35  1  0.45261500  0.69400600  0.43755600  1
  H  H36  1  0.80521800  0.04858200  0.06233000  1
  H  H37  1  0.04722400  0.19459000  0.06255100  1
  H  H38  1  0.19332600  0.95274200  0.06101900  1
  H  H39  1  0.95121300  0.80648500  0.06081100  1
  H  H40  1  0.80553300  0.95304200  0.93939200  1
  H  H41  1  0.04673300  0.80572100  0.93790200  1
  H  H42  1  0.19415600  0.04639900  0.93741100  1
  H  H43  1  0.95364600  0.19434900  0.93887600  1
  H  H44  1  0.13543000  0.52314500  0.67410000  1
  H  H45  1  0.03613100  0.40963000  0.72015400  1
  H  H46  1  0.14410800  0.69435000  0.60729000  1
  H  H47  1  0.19036900  0.64376900  0.54290200  1
  H  H48  1  0.52217800  0.86395900  0.67337000  1
  H  H49  1  0.69407700  0.85448300  0.60755900  1
  H  H50  1  0.64396100  0.80869300  0.54280500  1
  H  H51  1  0.86582900  0.47599100  0.67281100  1
  H  H52  1  0.85647000  0.30489500  0.60589900  1
  H  H53  1  0.80980700  0.35562600  0.54171900  1
  H  H54  1  0.47521600  0.13363600  0.67355200  1
  H  H55  1  0.30485000  0.14213800  0.60561300  1
  H  H56  1  0.59193000  0.03593100  0.72047800  1
  H  H57  1  0.35605200  0.18923200  0.54179500  1
  H  H58  1  0.13434000  0.47659800  0.32718600  1
  H  H59  1  0.14732100  0.30404900  0.39178700  1
  H  H60  1  0.19338600  0.35402000  0.45649600  1
  H  H61  1  0.52479600  0.13340800  0.32737400  1
  H  H62  1  0.69677800  0.14534400  0.39287200  1
  H  H63  1  0.64647400  0.19190400  0.45726800  1
  H  H64  1  0.86713000  0.52613000  0.32661700  1
  H  H65  1  0.85622400  0.69717800  0.39347600  1
  H  H66  1  0.80932400  0.64618400  0.45745600  1
  H  H67  1  0.96427300  0.59132100  0.72069000  1
  H  H68  1  0.47514300  0.86624700  0.32643200  1
  H  H69  1  0.30346400  0.85427000  0.39233500  1
  H  H70  1  0.35409000  0.80783300  0.45663800  1
  H  H71  1  0.63231800  0.02556800  0.17341000  1
  H  H72  1  0.64406400  0.19707800  0.10725100  1
  H  H73  1  0.69101400  0.14640600  0.04315500  1
  H  H74  1  0.02525700  0.36664900  0.17369500  1
  H  H75  1  0.19637700  0.35664100  0.10685600  1
  H  H76  1  0.14559700  0.30975500  0.04278500  1
  H  H77  1  0.36513300  0.97601700  0.17277900  1
  H  H78  1  0.41022400  0.96410800  0.72033100  1
  H  H79  1  0.35293200  0.80391400  0.10747800  1
  H  H80  1  0.30692000  0.85422400  0.04288600  1
  H  H81  1  0.97566500  0.63391400  0.17254000  1
  H  H82  1  0.80317600  0.64759100  0.10793400  1
  H  H83  1  0.85330200  0.69369700  0.04329900  1
  H  H84  1  0.63473700  0.97527900  0.82720000  1
  H  H85  1  0.64317700  0.80472700  0.89489800  1
  H  H86  1  0.68974700  0.85583800  0.95895500  1
  H  H87  1  0.02461200  0.63461700  0.82632000  1
  H  H88  1  0.19534700  0.64419900  0.89368900  1
  H  H89  1  0.53679200  0.09118400  0.77937200  1
  H  H90  1  0.14421500  0.69074200  0.95774400  1
  H  H91  1  0.36512200  0.02238400  0.82588700  1
  H  H92  1  0.35555400  0.19414500  0.89188200  1
  H  H93  1  0.30920200  0.14397200  0.95640300  1
  H  H94  1  0.97764400  0.36492900  0.82673700  1
  H  H95  1  0.80610100  0.35650300  0.89311500  1
  H  H96  1  0.85630000  0.31017700  0.95763600  1
  C  C1  1  0.12001800  0.49882800  0.50017700  1
  C  C2  1  0.52542900  0.71805400  0.53396800  1
  C  C3  1  0.50106300  0.00003300  0.72584300  1
  C  C4  1  0.50088100  0.00030700  0.77413500  1
  C  C5  1  0.00044100  0.50026900  0.77415300  1
  C  C6  1  0.49910900  0.99988100  0.22585500  1
  C  C7  1  0.99946500  0.49993000  0.22587200  1
  C  C8  1  0.50089400  0.37990900  0.50082900  1
  C  C9  1  0.38052000  0.49928700  0.50084500  1
  C  C10  1  0.49986900  0.61957700  0.49912000  1
  C  C11  1  0.62018800  0.50014400  0.49909700  1
  C  C12  1  0.99907400  0.88049300  0.99914400  1
  C  C13  1  0.71872000  0.47407000  0.53375300  1
  C  C14  1  0.87977800  0.00071200  0.00098000  1
  C  C15  1  0.00009400  0.12016100  0.00090600  1
  C  C16  1  0.11944400  0.99986700  0.99907700  1
  C  C17  1  0.31366500  0.49912600  0.50069000  1
  C  C18  1  0.49958800  0.68643100  0.49929400  1
  C  C19  1  0.68706500  0.50039200  0.49925600  1
  C  C20  1  0.50109000  0.31303100  0.50066500  1
  C  C21  1  0.81290000  0.00084800  0.00085600  1
  C  C22  1  0.00038300  0.18701500  0.00074200  1
  C  C23  1  0.18629900  0.99959500  0.99919700  1
  C  C24  1  0.47468200  0.28108500  0.53498600  1
  C  C25  1  0.99889200  0.81361600  0.99929900  1
  C  C26  1  0.18693700  0.55472800  0.57175500  1
  C  C27  1  0.17140800  0.52084200  0.60855500  1
  C  C28  1  0.14663400  0.54946300  0.64498800  1
  C  C29  1  0.13660200  0.61172000  0.64448000  1
  C  C30  1  0.15156400  0.64546300  0.60758500  1
  C  C31  1  0.17728400  0.61707800  0.57143300  1
  C  C32  1  0.55461500  0.81258100  0.57113100  1
  C  C33  1  0.52040200  0.82821400  0.60775300  1
  C  C34  1  0.54875400  0.85270800  0.64439100  1
  C  C35  1  0.28217600  0.47316200  0.46599900  1
  C  C36  1  0.61106900  0.86238200  0.64426600  1
  C  C37  1  0.64514600  0.84731500  0.60755200  1
  C  C38  1  0.61702400  0.82185500  0.57119600  1
  C  C39  1  0.81344900  0.44460000  0.57066400  1
  C  C40  1  0.82929800  0.47841800  0.60743000  1
  C  C41  1  0.85434700  0.44972300  0.64373100  1
  C  C42  1  0.86433200  0.38746100  0.64312800  1
  C  C43  1  0.84902800  0.35378300  0.60627200  1
  C  C44  1  0.82306000  0.38224700  0.57024200  1
  C  C45  1  0.44470200  0.18606900  0.57128100  1
  C  C46  1  0.52750500  0.28153300  0.46613000  1
  C  C47  1  0.47818200  0.17035000  0.60823400  1
  C  C48  1  0.44921500  0.14504600  0.64433200  1
  C  C49  1  0.38702000  0.13470200  0.64334000  1
  C  C50  1  0.35368700  0.14986900  0.60629300  1
  C  C51  1  0.38241700  0.17607400  0.57046400  1
  C  C52  1  0.18776700  0.44364800  0.42879200  1
  C  C53  1  0.17108900  0.47808400  0.39251800  1
  C  C54  1  0.14643500  0.44983100  0.35589500  1
  C  C55  1  0.13762400  0.38738900  0.35570100  1
  C  C56  1  0.15380700  0.35307400  0.39204900  1
  C  C57  1  0.71885300  0.52699200  0.46493600  1
  C  C58  1  0.17943700  0.38110900  0.42837800  1
  C  C59  1  0.55711100  0.18695600  0.42905500  1
  C  C60  1  0.52292800  0.17041900  0.39262200  1
  C  C61  1  0.55136600  0.14542900  0.35619500  1
  C  C62  1  0.61374500  0.13617800  0.35634400  1
  C  C63  1  0.64780200  0.15220300  0.39285900  1
  C  C64  1  0.61958100  0.17811900  0.42900900  1
  C  C65  1  0.81371300  0.55723200  0.42853000  1
  C  C66  1  0.83005200  0.52350500  0.39183200  1
  C  C67  1  0.85524400  0.55233900  0.35564000  1
  C  C68  1  0.47344500  0.71820600  0.46481100  1
  C  C69  1  0.86486900  0.61465700  0.35628500  1
  C  C70  1  0.84906400  0.64824900  0.39307200  1
  C  C71  1  0.82296400  0.61963800  0.42899100  1
  C  C72  1  0.44333800  0.81290200  0.42824900  1
  C  C73  1  0.47734500  0.82939700  0.39172400  1
  C  C74  1  0.44871600  0.85427300  0.35533200  1
  C  C75  1  0.38632700  0.86346200  0.35561500  1
  C  C76  1  0.35244800  0.84747900  0.39222100  1
  C  C77  1  0.38085300  0.82164700  0.42832300  1
  C  C78  1  0.68619100  0.05724800  0.07171500  1
  C  C79  1  0.78108900  0.02735800  0.03520200  1
  C  C80  1  0.66959500  0.02330100  0.10824700  1
  C  C81  1  0.64438300  0.05195000  0.14450800  1
  C  C82  1  0.63498200  0.11430400  0.14409400  1
  C  C83  1  0.65104400  0.14812100  0.10747200  1
  C  C84  1  0.67717300  0.11969100  0.07148700  1
  C  C85  1  0.05662100  0.31366000  0.07170800  1
  C  C86  1  0.02281100  0.32974600  0.10842100  1
  C  C87  1  0.05152700  0.35494500  0.14466200  1
  C  C88  1  0.11381100  0.36481200  0.14404800  1
  C  C89  1  0.14747700  0.34928000  0.10723800  1
  C  C90  1  0.02644100  0.21878600  0.03527600  1
  C  C91  1  0.11898500  0.32319100  0.07126800  1
  C  C92  1  0.31213700  0.94365600  0.07095800  1
  C  C93  1  0.32857400  0.97787100  0.10739600  1
  C  C94  1  0.35320600  0.94942400  0.14394800  1
  C  C95  1  0.36222300  0.88700900  0.14391100  1
  C  C96  1  0.34627900  0.85291800  0.10739900  1
  C  C97  1  0.32068100  0.88114400  0.07113600  1
  C  C98  1  0.94290900  0.68770700  0.07100100  1
  C  C99  1  0.97728200  0.67082400  0.10726000  1
  C  C100  1  0.94894400  0.64615600  0.14384100  1
  C  C101  1  0.21776600  0.97353700  0.03386100  1
  C  C102  1  0.88648000  0.63752200  0.14401300  1
  C  C103  1  0.85222000  0.65392900  0.10768700  1
  C  C104  1  0.88034200  0.67958500  0.07140000  1
  C  C105  1  0.68657500  0.94457100  0.92959900  1
  C  C106  1  0.67101600  0.97812900  0.89264700  1
  C  C107  1  0.64601100  0.94921600  0.85641800  1
  C  C108  1  0.63579500  0.88699600  0.85727800  1
  C  C109  1  0.65080400  0.85358200  0.89432100  1
  C  C110  1  0.67671700  0.88226100  0.93028200  1
  C  C111  1  0.05537400  0.68686500  0.92860000  1
  C  C112  1  0.49879300  0.88007600  0.49983400  1
  C  C113  1  0.97242000  0.78210800  0.03379200  1
  C  C114  1  0.02177600  0.67101700  0.89173200  1
  C  C115  1  0.05070600  0.64608900  0.85548200  1
  C  C116  1  0.11298100  0.63620600  0.85624600  1
  C  C117  1  0.14644500  0.65153400  0.89319600  1
  C  C118  1  0.11775300  0.67742000  0.92916000  1
  C  C119  1  0.31308800  0.05468700  0.92797600  1
  C  C120  1  0.32890100  0.02052900  0.89136900  1
  C  C121  1  0.35371800  0.04891600  0.85485700  1
  C  C122  1  0.36352600  0.11121000  0.85509700  1
  C  C123  1  0.34827800  0.14522900  0.89179900  1
  C  C124  1  0.78126700  0.97442100  0.96639200  1
  C  C125  1  0.32250300  0.11707500  0.92802600  1
  C  C126  1  0.94546500  0.31336500  0.92897200  1
  C  C127  1  0.97955900  0.32887200  0.89226500  1
  C  C128  1  0.95116200  0.35373600  0.85577400  1
  C  C129  1  0.88891800  0.36386000  0.85612500  1
  C  C130  1  0.85497300  0.34894800  0.89293600  1
  C  C131  1  0.88314100  0.32317800  0.92916000  1
  C  C132  1  0.02538400  0.78168300  0.96502000  1
  C  C133  1  0.21823100  0.02541700  0.96466400  1
  C  C134  1  0.97464500  0.21864700  0.96601700  1
  C  C135  1  0.00044200  0.49884900  0.41360300  1
  C  C136  1  0.49863800  0.00005200  0.41358900  1
  C  C137  1  0.00016800  0.50121500  0.58634300  1
  C  C138  1  0.50149900  0.99952900  0.58632500  1
  C  C139  1  0.50008300  0.00122100  0.91365200  1
  C  C140  1  0.88062200  0.50123100  0.49979200  1
  C  C141  1  0.00119300  0.50010700  0.91367000  1
  C  C142  1  0.49923400  0.99900800  0.08639200  1
  C  C143  1  0.99874400  0.50033600  0.08640900  1
  C  C144  1  0.18694300  0.49905000  0.50031900  1
  C  C145  1  0.49900700  0.81315100  0.49967500  1
  C  C146  1  0.81374900  0.50098500  0.49962500  1
  C  C147  1  0.50113400  0.18634500  0.50025400  1
  C  C148  1  0.68621400  0.00108100  0.00058700  1
  C  C149  1  0.00101300  0.31367400  0.00035600  1
  C  C150  1  0.31302100  0.99914600  0.99946500  1
  C  C151  1  0.50132600  0.11947100  0.50010300  1
  C  C152  1  0.99889700  0.68686900  0.99970700  1
  C  C153  1  0.21870500  0.52597600  0.53478700  1
  C  C154  1  0.52608700  0.78110900  0.53394100  1
  C  C155  1  0.78177500  0.47352100  0.53372600  1
  C  C156  1  0.47385100  0.21803700  0.53456900  1
  C  C157  1  0.21912400  0.47220100  0.46602400  1
  C  C158  1  0.52834700  0.21847800  0.46612600  1
  C  C159  1  0.78189900  0.52812200  0.46532600  1
  C  C160  1  0.47221700  0.78125200  0.46521700  1
  C  C161  1  0.71803700  0.02830300  0.03486400  1
  C  C162  1  0.61934000  0.00131300  0.00039600  1
  C  C163  1  0.02768800  0.28183100  0.03484700  1
  C  C164  1  0.28081300  0.97238400  0.03378300  1
  C  C165  1  0.97160000  0.71905400  0.03381700  1
  C  C166  1  0.71821600  0.97368400  0.96647200  1
  C  C167  1  0.02625000  0.71863400  0.96541600  1
  C  C168  1  0.28128500  0.02614200  0.96501300  1
  C  C169  1  0.97402100  0.28170100  0.96606100  1
  C  C170  1  0.01992700  0.55029500  0.29713200  1
  C  C171  1  0.54977900  0.98015400  0.29709800  1
  C  C172  1  0.97986200  0.44873400  0.29693800  1
  C  C173  1  0.00123100  0.38054100  0.00019700  1
  C  C174  1  0.44822900  0.02024900  0.29694000  1
  C  C175  1  0.02070300  0.44998800  0.70279700  1
  C  C176  1  0.55171400  0.02046000  0.70297000  1
  C  C177  1  0.97961800  0.55112800  0.70309700  1
  C  C178  1  0.45056500  0.97939500  0.70288900  1
  C  C179  1  0.52131900  0.05101700  0.79693800  1
  C  C180  1  0.05113300  0.47968400  0.79690800  1
  C  C181  1  0.48023300  0.94987700  0.79716000  1
  C  C182  1  0.94998400  0.52074800  0.79722400  1
  C  C183  1  0.51915800  0.94895900  0.20313100  1
  C  C184  1  0.37994600  0.99890800  0.99962600  1
  C  C185  1  0.05010600  0.52008900  0.20287400  1
  C  C186  1  0.47909100  0.05051900  0.20279100  1
  C  C187  1  0.94856500  0.47997200  0.20308200  1
  C  C188  1  0.01922200  0.55043100  0.34261200  1
  C  C189  1  0.55005500  0.98112800  0.34257100  1
  C  C190  1  0.98106700  0.44806400  0.34240700  1
  C  C191  1  0.44769900  0.01931500  0.34241700  1
  C  C192  1  0.01978000  0.44984500  0.65732100  1
  C  C193  1  0.55225200  0.01937500  0.65749800  1
  C  C194  1  0.98044500  0.55175400  0.65762100  1
  C  C195  1  0.99870600  0.61993600  0.99985700  1
  C  C196  1  0.45033400  0.98006200  0.65740900  1
  C  C197  1  0.52018800  0.05170100  0.84240900  1
  C  C198  1  0.05175600  0.48046900  0.84238500  1
  C  C199  1  0.48085200  0.94979100  0.84264000  1
  C  C200  1  0.94983800  0.51978000  0.84269900  1
  C  C201  1  0.51824000  0.94827500  0.15765900  1
  C  C202  1  0.05027200  0.51927900  0.15739600  1
  C  C203  1  0.48008400  0.05064100  0.15731300  1
  C  C204  1  0.94792500  0.48107300  0.15761000  1
  C  C205  1  0.00027400  0.49910900  0.36539500  1
  C  C206  1  0.28175500  0.52505800  0.53519100  1
  C  C207  1  0.49879600  0.00018100  0.36538000  1
  C  C208  1  0.00012800  0.50093600  0.63456900  1
  C  C209  1  0.50137300  0.99960900  0.63455100  1
  C  C210  1  0.50036500  0.00090600  0.86542600  1
  C  C211  1  0.00092500  0.50010300  0.86544400  1
  C  C212  1  0.49916800  0.99931000  0.13460000  1
  C  C213  1  0.99898200  0.50024200  0.13461700  1
  C  C214  1  0.99975700  0.49965300  0.27414100  1
  C  C215  1  0.49905000  0.00014000  0.27412500  1
  C  C216  1  0.00022500  0.50045300  0.72586100  1
  Cl  Cl1  1  0.18461100  0.44183000  0.60968700  1
  Cl  Cl2  1  0.10712600  0.35145500  0.30894900  1
  Cl  Cl3  1  0.44374300  0.18262800  0.39190800  1
  Cl  Cl4  1  0.64992400  0.10529600  0.30982000  1
  Cl  Cl5  1  0.81740900  0.44440500  0.39052200  1
  Cl  Cl6  1  0.89594500  0.65137400  0.31005000  1
  Cl  Cl7  1  0.55654000  0.81728800  0.39087000  1
  Cl  Cl8  1  0.34988300  0.89418400  0.30914700  1
  Cl  Cl9  1  0.68199700  0.94415400  0.10929000  1
  Cl  Cl10  1  0.60388000  0.15077200  0.19042400  1
  Cl  Cl11  1  0.94375300  0.31683700  0.10966300  1
  Cl  Cl12  1  0.10616400  0.64819500  0.69103300  1
  Cl  Cl13  1  0.15040700  0.39585300  0.19034300  1
  Cl  Cl14  1  0.31668500  0.05710500  0.10794400  1
  Cl  Cl15  1  0.39269200  0.85081500  0.19056700  1
  Cl  Cl16  1  0.05658100  0.68230700  0.10759900  1
  Cl  Cl17  1  0.85046400  0.60697000  0.19071500  1
  Cl  Cl18  1  0.68438800  0.05709900  0.89108200  1
  Cl  Cl19  1  0.60499300  0.85015800  0.81099900  1
  Cl  Cl20  1  0.94273700  0.68399800  0.89027900  1
  Cl  Cl21  1  0.14982200  0.60544700  0.80995400  1
  Cl  Cl22  1  0.31594600  0.94146800  0.89055500  1
  Cl  Cl23  1  0.44131300  0.81540900  0.60842900  1
  Cl  Cl24  1  0.39403400  0.14737000  0.80843900  1
  Cl  Cl25  1  0.05855500  0.31554200  0.89132200  1
  Cl  Cl26  1  0.85272400  0.39436300  0.80947900  1
  Cl  Cl27  1  0.64717500  0.89248400  0.69108300  1
  Cl  Cl28  1  0.81618200  0.55744200  0.60869200  1
  Cl  Cl29  1  0.89520800  0.35091800  0.68950400  1
  Cl  Cl30  1  0.55712000  0.18386700  0.60995700  1
  Cl  Cl31  1  0.35010200  0.10352800  0.68945600  1
  Cl  Cl32  1  0.18275700  0.55735500  0.39223800  1
  O  O1  1  0.09168400  0.44595900  0.49861400  1
  O  O2  1  0.94847000  0.40919500  0.00069200  1
  O  O3  1  0.40866500  0.05160800  0.99826000  1
  O  O4  1  0.05141700  0.59123900  0.99847600  1
  O  O5  1  0.59103500  0.05423100  0.99972000  1
  O  O6  1  0.94585000  0.59157400  0.00140400  1
  O  O7  1  0.40827800  0.94604200  0.00124900  1
  O  O8  1  0.05413800  0.40886700  0.99959700  1
  O  O9  1  0.00109700  0.44593600  0.43400700  1
  O  O10  1  0.44577900  0.99934800  0.43406700  1
  O  O11  1  0.99978500  0.55156600  0.43431100  1
  O  O12  1  0.44593700  0.90844700  0.49844200  1
  O  O13  1  0.55141000  0.00059700  0.43422200  1
  O  O14  1  0.99810200  0.55408600  0.56593000  1
  O  O15  1  0.44876200  0.99758700  0.56568200  1
  O  O16  1  0.00221900  0.44854100  0.56562600  1
  O  O17  1  0.55430900  0.00164300  0.56583700  1
  O  O18  1  0.49796100  0.94856300  0.93438600  1
  O  O19  1  0.94851200  0.50213100  0.93437700  1
  O  O20  1  0.50207300  0.05410800  0.93404700  1
  O  O21  1  0.05405800  0.49806300  0.93409300  1
  O  O22  1  0.49996100  0.05170900  0.06566400  1
  O  O23  1  0.90892700  0.55415000  0.50040800  1
  O  O24  1  0.94584000  0.50097000  0.06599500  1
  O  O25  1  0.49865500  0.94607800  0.06600900  1
  O  O26  1  0.05147100  0.49970200  0.06571200  1
  O  O27  1  0.49827100  0.40824300  0.53897200  1
  O  O28  1  0.40886600  0.49926600  0.53903000  1
  O  O29  1  0.49987100  0.59089200  0.53719400  1
  O  O30  1  0.59151300  0.49762900  0.53713200  1
  O  O31  1  0.50010100  0.59124500  0.46092900  1
  O  O32  1  0.40919100  0.49952600  0.46276600  1
  O  O33  1  0.50316900  0.40861500  0.46279700  1
  O  O34  1  0.55423300  0.09113400  0.50054600  1
  O  O35  1  0.59182300  0.50255700  0.46095800  1
  O  O36  1  0.99683100  0.90918500  0.03718300  1
  O  O37  1  0.90818000  0.00312100  0.03910500  1
  O  O38  1  0.99989300  0.09181600  0.03909200  1
  O  O39  1  0.09081000  0.00009900  0.03717100  1
  O  O40  1  0.00006200  0.09148600  0.96282800  1
  O  O41  1  0.90841600  0.99821500  0.96293000  1
  O  O42  1  0.00166500  0.90883900  0.96100400  1
  O  O43  1  0.09106100  0.99985800  0.96090700  1
  O  O44  1  0.09130100  0.55152700  0.50156300  1
  O  O45  1  0.44856400  0.09082000  0.49959100  1
  O  O46  1  0.90930400  0.44848400  0.49929700  1
  O  O47  1  0.55151300  0.90875600  0.50123500  1
  O  O48  1  0.59065800  0.94856600  0.00087100  1
