# Generated by REPEAT Assigner based on pymatgen
data_DB0-m3_o18_o19_f0_pcu.sym.47
_audit_creation_date              2022-05-24
_audit_creation_method            REPEAT_Assigner
_cell_length_a                    11.916116
_cell_length_b                    14.791258
_cell_length_c                    15.968313
_cell_angle_alpha                 86.038554
_cell_angle_beta                  89.996871
_cell_angle_gamma                 103.262750
_cell_volume                      2732.505478
_symmetry_space_group_name_H-M    P1
_symmetry_Int_Tables_number       1
loop_
    _symmetry_equiv_pos_site_id
    _symmetry_equiv_pos_as_xyz
    1  x,y,z
loop_
    _atom_site_type_symbol
    _atom_site_label
    _atom_site_fract_x
    _atom_site_fract_y
    _atom_site_fract_z
    _atom_type_partial_charge
    O   O1   0.459407  0.394349  0.594708  -0.551023
    O   O2   0.536940  0.634840  0.389354  -0.557520
    O   O3   0.500920  0.545963  0.631307  -0.603305
    O   O4   0.495064  0.483207  0.352743  -0.626102
    C   C1   0.473440  0.455867  0.651556  0.584008
    C   C2   0.522384  0.573327  0.332445  0.587384
    O   O5   0.643992  0.438228  0.477546  -0.728819
    O   O6   0.352140  0.591026  0.506378  -0.725522
    O   O7   0.686200  0.590282  0.514314  -0.694399
    O   O8   0.309886  0.438855  0.469823  -0.629850
    C   C3   0.717227  0.514107  0.496877  0.977104
    C   C4   0.278895  0.515105  0.487126  0.928816
    Zn  Zn1  0.470337  0.414416  0.467884  1.006579
    Zn  Zn2  0.525772  0.614764  0.516180  1.022400
    C   C5   0.837791  0.514659  0.495743  -0.322814
    C   C6   0.158355  0.514645  0.488108  -0.291548
    C   C7   0.938887  0.514732  0.493477  0.088570
    C   C8   0.057272  0.514632  0.490294  0.060943
    C   C9   0.457004  0.423915  0.741696  -0.037787
    C   C10  0.538516  0.605216  0.242201  -0.019342
    C   C11  0.399224  0.307003  0.853743  -0.366787
    C   C12  0.597103  0.721878  0.130002  -0.327006
    C   C13  0.407337  0.332058  0.769183  0.029832
    C   C14  0.585337  0.697501  0.214578  -0.031508
    C   C15  0.492122  0.488687  0.801002  -0.145319
    C   C16  0.507285  0.539764  0.182918  -0.177777
    C   C17  0.478231  0.464393  0.887250  -0.058053
    C   C18  0.522126  0.563894  0.096654  0.021186
    C   C19  0.433155  0.371919  0.911956  0.392151
    C   C20  0.566351  0.656479  0.071871  0.313490
    C   C21  0.508103  0.529134  0.949244  0.112453
    C   C22  0.493477  0.498976  0.034673  -0.007433
    C   C23  0.450931  0.404380  0.055929  -0.046737
    C   C24  0.550913  0.623685  0.927945  -0.170225
    C   C25  0.420638  0.342637  0.995342  -0.412314
    C   C26  0.580218  0.685572  0.988493  -0.313620
    H   H1   0.386482  0.269917  0.014236  0.196959
    H   H2   0.613835  0.758374  0.969565  0.172930
    H   H3   0.469547  0.470016  0.206749  0.128797
    H   H4   0.532016  0.557997  0.777141  0.100262
    H   H5   0.362077  0.235237  0.874523  0.149991
    H   H6   0.632481  0.793937  0.109263  0.137269
    H   H7   0.439191  0.373863  0.119152  0.094597
    H   H8   0.563040  0.654142  0.864717  0.152643
    N   N1   0.562053  0.746738  0.547797  -0.061413
    N   N2   0.434108  0.282415  0.436337  0.001969
    C   C27  0.663292  0.862909  0.631192  -0.133305
    C   C28  0.333238  0.165892  0.353357  -0.096423
    C   C29  0.635492  0.771965  0.610075  -0.013892
    C   C30  0.359593  0.256575  0.374823  -0.116898
    C   C31  0.511062  0.808272  0.506276  -0.113860
    C   C32  0.485557  0.221187  0.477934  -0.113356
    C   C33  0.533658  0.901253  0.526069  0.121720
    C   C34  0.461579  0.127695  0.459532  0.045206
    C   C35  0.613469  0.928414  0.588010  0.132753
    C   C36  0.381356  0.100198  0.397930  0.220887
    C   C37  0.480674  0.967576  0.484538  -0.008451
    C   C38  0.513574  0.061215  0.501938  0.026300
    C   C39  0.599042  0.086323  0.560826  -0.068459
    C   C40  0.393749  0.942100  0.426820  -0.066345
    C   C41  0.646345  0.021135  0.603728  -0.205000
    C   C42  0.346403  0.007177  0.383843  -0.248713
    H   H9   0.712868  0.046282  0.647825  0.144924
    H   H10  0.278958  0.982008  0.340442  0.125005
    H   H11  0.542414  0.248174  0.526941  0.173763
    H   H12  0.455307  0.781932  0.456451  0.185352
    H   H13  0.320719  0.307505  0.341605  0.161173
    H   H14  0.672628  0.720381  0.643929  0.128001
    H   H15  0.634222  0.156723  0.575764  0.120483
    H   H16  0.357143  0.871432  0.413266  0.121761
    C   C43  0.623832  0.772207  0.271033  0.575754
    O   O9   0.557611  0.820229  0.288233  -0.520317
    C   C44  0.743293  0.795067  0.301151  -0.036871
    C   C45  0.779132  0.870682  0.349021  -0.111637
    C   C46  0.890904  0.893473  0.376933  -0.020273
    C   C47  0.967644  0.840905  0.357587  -0.106132
    C   C48  0.932638  0.765487  0.310125  -0.079150
    C   C49  0.821031  0.742498  0.281842  -0.119080
    H   H17  0.720599  0.913081  0.365003  0.090685
    H   H18  0.918337  0.952726  0.414144  0.074953
    H   H19  0.055201  0.858801  0.379621  0.106426
    H   H20  0.992869  0.724201  0.294925  0.096990
    H   H21  0.796447  0.682954  0.244763  0.099257
    C   C50  0.360994  0.258748  0.712714  0.478172
    O   O10  0.412153  0.197097  0.705355  -0.492769
    C   C51  0.249327  0.253487  0.671139  -0.002154
    C   C52  0.211288  0.185750  0.615394  -0.066776
    C   C53  0.106652  0.179277  0.576596  -0.126621
    C   C54  0.038925  0.240004  0.593354  -0.079112
    C   C55  0.075822  0.307266  0.649063  -0.029751
    C   C56  0.180504  0.314185  0.687931  -0.165181
    H   H22  0.262854  0.137268  0.601225  0.091076
    H   H23  0.077676  0.126340  0.532985  0.098107
    H   H24  0.956836  0.234761  0.562979  0.086154
    H   H25  0.022470  0.354736  0.662466  0.086089
    H   H26  0.206393  0.367252  0.731743  0.101194
    C   C57  0.740298  0.886073  0.702532  0.483218
    O   O11  0.705198  0.918298  0.762967  -0.457439
    C   C58  0.855584  0.865417  0.705067  -0.021481
    C   C59  0.911742  0.863370  0.780800  -0.095558
    C   C60  0.020176  0.845225  0.784065  -0.104010
    C   C61  0.073747  0.829730  0.711769  -0.071241
    C   C62  0.019015  0.832755  0.636021  -0.053287
    C   C63  0.910498  0.850729  0.632459  -0.128863
    H   H27  0.871259  0.875048  0.838377  0.103936
    H   H28  0.063250  0.843202  0.843508  0.112248
    H   H29  0.158833  0.815670  0.714415  0.099185
    H   H30  0.061436  0.821421  0.579135  0.079038
    H   H31  0.870536  0.854399  0.572028  0.091107
    C   C64  0.251305  0.142300  0.285013  0.490608
    O   O12  0.155607  0.157760  0.291634  -0.474314
    C   C65  0.284661  0.108069  0.206211  -0.017934
    C   C66  0.200335  0.071957  0.150184  -0.094397
    C   C67  0.229922  0.040008  0.076086  -0.145349
    C   C68  0.343843  0.044331  0.057108  -0.045483
    C   C69  0.428374  0.080996  0.112150  -0.124542
    C   C70  0.399234  0.113012  0.186359  -0.029142
    H   H32  0.110342  0.067447  0.163970  0.106548
    H   H33  0.163536  0.011454  0.032822  0.121520
    H   H34  0.366917  0.019347  0.998954  0.107030
    H   H35  0.517879  0.085017  0.096994  0.115043
    H   H36  0.467543  0.142592  0.227681  0.047789
