# generated using pymatgen
data_ZnH12C15NO4
_symmetry_space_group_name_H-M   'P 1'
_cell_length_a   10.01428900
_cell_length_b   11.24798200
_cell_length_c   15.05044100
_cell_angle_alpha   89.99749800
_cell_angle_beta   80.85624400
_cell_angle_gamma   92.44883900
_symmetry_Int_Tables_number   1
_chemical_formula_structural   ZnH12C15NO4
_chemical_formula_sum   'Zn2 H24 C30 N2 O8'
_cell_volume   1672.17869983
_cell_formula_units_Z   2
loop_
 _symmetry_equiv_pos_site_id
 _symmetry_equiv_pos_as_xyz
  1  'x, y, z'
loop_
 _atom_site_type_symbol
 _atom_site_label
 _atom_site_symmetry_multiplicity
 _atom_site_fract_x
 _atom_site_fract_y
 _atom_site_fract_z
 _atom_site_occupancy
  Zn  Zn1  1  0.34407800  0.51337300  0.51729000  1
  Zn  Zn2  1  0.64678600  0.47368500  0.48347500  1
  H  H1  1  0.29486100  0.41556100  0.24040600  1
  H  H2  1  0.69681500  0.56984300  0.76015100  1
  H  H3  1  0.68876200  0.57734800  0.20278000  1
  H  H4  1  0.30279700  0.40821600  0.79786600  1
  H  H5  1  0.80078700  0.62503700  0.88366400  1
  H  H6  1  0.19128800  0.35955200  0.11672200  1
  H  H7  1  0.61773500  0.08832500  0.48844600  1
  H  H8  1  0.37300200  0.89858200  0.51245500  1
  H  H9  1  0.30908100  0.10221000  0.51753800  1
  H  H10  1  0.68171400  0.88489300  0.48310400  1
  H  H11  1  0.11156400  0.42097800  0.44351900  1
  H  H12  1  0.87932600  0.56627300  0.55717100  1
  H  H13  1  0.09879600  0.60003300  0.58621500  1
  H  H14  1  0.89200600  0.38675700  0.41481200  1
  H  H15  1  0.76725300  0.83172700  0.03309700  1
  H  H16  1  0.71907900  0.77464900  0.14630100  1
  H  H17  1  0.89204400  0.82462600  0.10718400  1
  H  H18  1  0.87560400  0.60293500  0.10401400  1
  H  H19  1  0.91957100  0.66761600  0.99501100  1
  H  H20  1  0.01537700  0.46297500  0.99144200  1
  H  H21  1  0.10247400  0.48386400  0.87767200  1
  H  H22  1  0.96981300  0.36898500  0.90268100  1
  H  H23  1  0.18827200  0.27179600  0.88881200  1
  H  H24  1  0.10524800  0.26806700  0.00210900  1
  C  C1  1  0.54745800  0.72348800  0.49632300  1
  C  C2  1  0.44339200  0.26357100  0.50441200  1
  C  C3  1  0.49820000  0.49076600  0.67370100  1
  C  C4  1  0.49270400  0.49619000  0.32704400  1
  C  C5  1  0.38195200  0.45236100  0.19567600  1
  C  C6  1  0.60956300  0.53340100  0.80496100  1
  C  C7  1  0.49259700  0.49750400  0.23007000  1
  C  C8  1  0.49851600  0.48896400  0.77063000  1
  C  C9  1  0.60460200  0.54242300  0.17292300  1
  C  C10  1  0.38675300  0.44358100  0.82774200  1
  C  C11  1  0.60628100  0.54442000  0.08047900  1
  C  C12  1  0.38505500  0.44189000  0.92018400  1
  C  C13  1  0.49586000  0.49475400  0.04622900  1
  C  C14  1  0.49562100  0.49127400  0.95441300  1
  C  C15  1  0.38487200  0.44861300  0.10396600  1
  C  C16  1  0.60691100  0.53679400  0.89666600  1
  C  C17  1  0.71642400  0.59384800  0.02158400  1
  C  C18  1  0.27545800  0.39171400  0.97905700  1
  C  C19  1  0.71589200  0.58770600  0.93010400  1
  C  C20  1  0.27645000  0.39677700  0.07047200  1
  C  C21  1  0.57692700  0.85227600  0.49341700  1
  C  C22  1  0.41385900  0.13478900  0.50732800  1
  C  C23  1  0.47835500  0.92939000  0.50240100  1
  C  C24  1  0.51235700  0.05761400  0.49841600  1
  C  C25  1  0.92240800  0.50326500  0.50729700  1
  C  C26  1  0.06845300  0.48387700  0.49346700  1
  C  C27  1  0.83615000  0.65603000  0.05265100  1
  C  C28  1  0.80082600  0.77940200  0.08733100  1
  C  C29  1  0.15655600  0.32855000  0.94793200  1
  C  C30  1  0.05483100  0.41704800  0.92826200  1
  N  N1  1  0.84521400  0.44583600  0.46048500  1
  N  N2  1  0.14564700  0.54123800  0.54031100  1
  O  O1  1  0.42074500  0.68338900  0.51002100  1
  O  O2  1  0.57011900  0.30366400  0.49072800  1
  O  O3  1  0.65045800  0.65386700  0.48454500  1
  O  O4  1  0.34039900  0.33319500  0.51618200  1
  O  O5  1  0.38280400  0.50529100  0.64515600  1
  O  O6  1  0.60806800  0.48173900  0.35561700  1
  O  O7  1  0.61302100  0.47779100  0.61974000  1
  O  O8  1  0.37784400  0.50927100  0.38101000  1
