# Generated by REPEAT Assigner based on pymatgen
data_DB0-m3_o12_o20_f0_pcu.sym.70
_audit_creation_date              2022-05-24
_audit_creation_method            REPEAT_Assigner
_cell_length_a                    10.045210
_cell_length_b                    11.251860
_cell_length_c                    14.534467
_cell_angle_alpha                 89.990755
_cell_angle_beta                  80.047719
_cell_angle_gamma                 92.455558
_cell_volume                      1616.537319
_symmetry_space_group_name_H-M    P1
_symmetry_Int_Tables_number       1
loop_
    _symmetry_equiv_pos_site_id
    _symmetry_equiv_pos_as_xyz
    1  x,y,z
loop_
    _atom_site_type_symbol
    _atom_site_label
    _atom_site_fract_x
    _atom_site_fract_y
    _atom_site_fract_z
    _atom_type_partial_charge
    O   O1   0.419535  0.664592  0.528222  -0.622655
    O   O2   0.568582  0.283389  0.510854  -0.741246
    O   O3   0.648775  0.633485  0.501646  -0.678153
    O   O4   0.339241  0.314482  0.537641  -0.711555
    C   C1   0.546430  0.703917  0.513554  0.704714
    C   C2   0.441759  0.244125  0.525723  0.884404
    O   O5   0.379392  0.488252  0.670358  -0.678274
    O   O6   0.608219  0.459503  0.368783  -0.583517
    O   O7   0.609147  0.458576  0.642784  -0.667438
    O   O8   0.378509  0.488925  0.396316  -0.650937
    C   C3   0.494312  0.473389  0.699258  0.943870
    C   C4   0.493367  0.474399  0.339844  0.819572
    Zn  Zn1  0.342664  0.494697  0.537730  1.027622
    Zn  Zn2  0.645223  0.453298  0.501346  1.021431
    C   C5   0.494347  0.473325  0.797983  -0.339472
    C   C6   0.493330  0.474307  0.241117  -0.274804
    C   C7   0.494223  0.473412  0.880904  0.142877
    C   C8   0.493452  0.474129  0.158196  0.089378
    C   C9   0.493965  0.473626  0.978082  -0.054082
    C   C10  0.493712  0.473857  0.061017  -0.020922
    H   H1   0.616469  0.069451  0.505584  0.136019
    H   H2   0.373093  0.879620  0.537853  0.191649
    C   C11  0.576554  0.832765  0.510005  -0.229282
    C   C12  0.412296  0.115307  0.529900  -0.395957
    C   C13  0.478173  0.910132  0.523329  -0.137407
    C   C14  0.511295  0.038455  0.518545  0.022777
    H   H3   0.307656  0.082496  0.542626  0.177828
    H   H4   0.681324  0.865166  0.496027  0.117050
    H   H5   0.110234  0.383285  0.477811  0.119264
    H   H6   0.868149  0.521087  0.592660  0.111863
    N   N1   0.843857  0.425719  0.477596  0.048941
    N   N2   0.143956  0.522075  0.561540  0.042726
    C   C15  0.917751  0.471544  0.533540  -0.026720
    C   C16  0.065586  0.455169  0.520423  -0.031979
    N   N3   0.083995  0.618911  0.606305  -0.092453
    C   C17  0.085736  0.719808  0.545236  -0.050622
    C   C18  0.012062  0.819791  0.599121  0.147858
    O   O9   0.073517  0.851957  0.675462  -0.375236
    C   C19  0.057885  0.753350  0.735713  0.137782
    C   C20  0.136240  0.651337  0.689096  -0.116311
    H   H7   0.034693  0.696060  0.485581  0.057689
    H   H8   0.191039  0.750129  0.517607  0.042874
    H   H9   0.903906  0.793049  0.622328  0.038696
    H   H10  0.017074  0.897881  0.551890  0.047501
    H   H11  0.949544  0.725888  0.756875  0.023160
    H   H12  0.098681  0.777903  0.799649  0.064638
    H   H13  0.124479  0.574174  0.737737  0.078738
    H   H14  0.243986  0.680678  0.671302  0.118100
    N   N4   0.913900  0.370973  0.400607  -0.082340
    C   C21  0.948864  0.449381  0.321239  -0.113849
    C   C22  0.032268  0.383596  0.242019  0.170820
    O   O10  0.958731  0.283439  0.217576  -0.368819
    C   C23  0.937156  0.206378  0.294890  0.159804
    C   C24  0.847858  0.262780  0.376377  -0.141361
    H   H15  0.008837  0.528179  0.339515  0.062188
    H   H16  0.856355  0.479415  0.298279  0.086864
    H   H17  0.128864  0.357951  0.261967  0.032089
    H   H18  0.056810  0.444142  0.180654  0.050775
    H   H19  0.034528  0.182939  0.314802  0.012285
    H   H20  0.885279  0.123118  0.276223  0.049682
    H   H21  0.831233  0.200798  0.436978  0.076956
    H   H22  0.750026  0.281175  0.355556  0.124906
