# generated using pymatgen
data_Zn3H12(C14O9)2
_symmetry_space_group_name_H-M   'P 1'
_cell_length_a   29.06367500
_cell_length_b   18.60681600
_cell_length_c   18.62002000
_cell_angle_alpha   90.00000000
_cell_angle_beta   131.14337900
_cell_angle_gamma   90.00000000
_symmetry_Int_Tables_number   1
_chemical_formula_structural   Zn3H12(C14O9)2
_chemical_formula_sum   'Zn12 H48 C112 O72'
_cell_volume   7582.90248467
_cell_formula_units_Z   4
loop_
 _symmetry_equiv_pos_site_id
 _symmetry_equiv_pos_as_xyz
  1  'x, y, z'
loop_
 _atom_site_type_symbol
 _atom_site_label
 _atom_site_symmetry_multiplicity
 _atom_site_fract_x
 _atom_site_fract_y
 _atom_site_fract_z
 _atom_site_occupancy
  Zn  Zn1  1  0.49998700  0.91410300  0.50001200  1
  Zn  Zn2  1  0.99998700  0.41410300  0.50001200  1
  Zn  Zn3  1  0.50030100  0.07687300  0.50046200  1
  Zn  Zn4  1  0.00030100  0.57687300  0.50046200  1
  Zn  Zn5  1  0.00098900  0.99824600  0.08266500  1
  Zn  Zn6  1  0.99902300  0.99802800  0.91782300  1
  Zn  Zn7  1  0.50098900  0.49824600  0.08266500  1
  Zn  Zn8  1  0.49902300  0.49802800  0.91782300  1
  Zn  Zn9  1  0.56940200  0.99796500  0.07040800  1
  Zn  Zn10  1  0.43092200  0.99798000  0.93014300  1
  Zn  Zn11  1  0.06940200  0.49796500  0.07040800  1
  Zn  Zn12  1  0.93092200  0.49798000  0.93014300  1
  H  H1  1  0.69326300  0.71612500  0.81876000  1
  H  H2  1  0.30966700  0.71953700  0.18444200  1
  H  H3  1  0.19326300  0.21612500  0.81876000  1
  H  H4  1  0.80966700  0.21953700  0.18444200  1
  H  H5  1  0.73382900  0.80501100  0.77559300  1
  H  H6  1  0.26931200  0.80772600  0.22874400  1
  H  H7  1  0.23382900  0.30501100  0.77559300  1
  H  H8  1  0.76931200  0.30772600  0.22874400  1
  H  H9  1  0.65224700  0.97341800  0.81417200  1
  H  H10  1  0.34520500  0.97768200  0.18151800  1
  H  H11  1  0.15224700  0.47341800  0.81417200  1
  H  H12  1  0.84520500  0.47768200  0.18151800  1
  H  H13  1  0.81164900  0.91434300  0.89029600  1
  H  H14  1  0.18895900  0.91652700  0.11052600  1
  H  H15  1  0.31164900  0.41434300  0.89029600  1
  H  H16  1  0.68895900  0.41652700  0.11052600  1
  H  H17  1  0.78264800  0.03448800  0.59622000  1
  H  H18  1  0.21741900  0.03693600  0.40433500  1
  H  H19  1  0.28264800  0.53448800  0.59622000  1
  H  H20  1  0.71741900  0.53693600  0.40433500  1
  H  H21  1  0.88243000  0.25220100  0.79173300  1
  H  H22  1  0.11678800  0.25402700  0.20775600  1
  H  H23  1  0.38243000  0.75220100  0.79173300  1
  H  H24  1  0.61678800  0.75402700  0.20775600  1
  H  H25  1  0.58780400  0.73113300  0.80469800  1
  H  H26  1  0.41263600  0.73687900  0.19253100  1
  H  H27  1  0.08780400  0.23113300  0.80469800  1
  H  H28  1  0.91263600  0.23687900  0.19253100  1
  H  H29  1  0.85070000  0.27481700  0.60954100  1
  H  H30  1  0.14862100  0.27704300  0.38996500  1
  H  H31  1  0.35070000  0.77481700  0.60954100  1
  H  H32  1  0.64862100  0.77704300  0.38996500  1
  H  H33  1  0.80018300  0.19739100  0.81543900  1
  H  H34  1  0.19907100  0.19941600  0.18402000  1
  H  H35  1  0.30018300  0.69739100  0.81543900  1
  H  H36  1  0.69907100  0.69941600  0.18402000  1
  H  H37  1  0.63808600  0.89869500  0.93435700  1
  H  H38  1  0.35733000  0.90271100  0.05890900  1
  H  H39  1  0.13808600  0.39869500  0.93435700  1
  H  H40  1  0.85733000  0.40271100  0.05890900  1
  H  H41  1  0.68256700  0.13349200  0.62558000  1
  H  H42  1  0.31668600  0.13636500  0.37462300  1
  H  H43  1  0.18256700  0.63349200  0.62558000  1
  H  H44  1  0.81668600  0.63636500  0.37462300  1
  H  H45  1  0.78901100  0.14093600  0.48890900  1
  H  H46  1  0.21083400  0.14354000  0.51125400  1
  H  H47  1  0.28901100  0.64093600  0.48890900  1
  H  H48  1  0.71083400  0.64354000  0.51125400  1
  C  C1  1  0.50200300  0.99446300  0.36167800  1
  C  C2  1  0.49828700  0.99675600  0.63880700  1
  C  C3  1  0.00200300  0.49446300  0.36167800  1
  C  C4  1  0.99828700  0.49675600  0.63880700  1
  C  C5  1  0.61985700  0.99373800  0.62528000  1
  C  C6  1  0.38039000  0.99715600  0.37515200  1
  C  C7  1  0.11985700  0.49373800  0.62528000  1
  C  C8  1  0.88039000  0.49715600  0.37515200  1
  C  C9  1  0.68394000  0.77261400  0.81714600  1
  C  C10  1  0.31780400  0.77621800  0.18441100  1
  C  C11  1  0.18394000  0.27261400  0.81714600  1
  C  C12  1  0.81780400  0.27621800  0.18441100  1
  C  C13  1  0.70665700  0.82261400  0.79286100  1
  C  C14  1  0.29523500  0.82580400  0.20937400  1
  C  C15  1  0.20665700  0.32261400  0.79286100  1
  C  C16  1  0.79523500  0.32580400  0.20937400  1
  C  C17  1  0.69443200  0.89480200  0.78983600  1
  C  C18  1  0.30595800  0.89823200  0.21027300  1
  C  C19  1  0.19443200  0.39480200  0.78983600  1
  C  C20  1  0.80595800  0.39823200  0.21027300  1
  C  C21  1  0.66053500  0.91687200  0.81359400  1
  C  C22  1  0.33815100  0.92096400  0.18371900  1
  C  C23  1  0.16053500  0.41687200  0.81359400  1
  C  C24  1  0.83815100  0.42096400  0.18371900  1
  C  C25  1  0.63861100  0.86680000  0.83928800  1
  C  C26  1  0.35981400  0.87129900  0.15718000  1
  C  C27  1  0.13861100  0.36680000  0.83928800  1
  C  C28  1  0.85981400  0.37129900  0.15718000  1
  C  C29  1  0.64995100  0.79470700  0.84043600  1
  C  C30  1  0.35003800  0.79897000  0.15819800  1
  C  C31  1  0.14995100  0.29470700  0.84043600  1
  C  C32  1  0.85003800  0.29897000  0.15819800  1
  C  C33  1  0.78466100  0.95012800  0.82963500  1
  C  C34  1  0.21567600  0.95253200  0.17097200  1
  C  C35  1  0.28466100  0.45012800  0.82963500  1
  C  C36  1  0.71567600  0.45253200  0.17097200  1
  C  C37  1  0.81358600  0.99724600  0.81354700  1
  C  C38  1  0.18647300  0.99930000  0.18689000  1
  C  C39  1  0.31358600  0.49724600  0.81354700  1
  C  C40  1  0.68647300  0.49930000  0.18689000  1
  C  C41  1  0.77906000  0.04268000  0.73545500  1
  C  C42  1  0.22081700  0.04492200  0.26485800  1
  C  C43  1  0.27906000  0.54268000  0.73545500  1
  C  C44  1  0.72081700  0.54492200  0.26485800  1
  C  C45  1  0.71614600  0.04188500  0.67616500  1
  C  C46  1  0.28374800  0.04451600  0.32420600  1
  C  C47  1  0.21614600  0.54188500  0.67616500  1
  C  C48  1  0.78374800  0.54451600  0.32420600  1
  C  C49  1  0.68695500  0.99451600  0.69224700  1
  C  C50  1  0.31322200  0.99750700  0.30822100  1
  C  C51  1  0.18695500  0.49451600  0.69224700  1
  C  C52  1  0.81322200  0.49750700  0.30822100  1
  C  C53  1  0.72176600  0.94732100  0.76891900  1
  C  C54  1  0.27856400  0.95025500  0.23155700  1
  C  C55  1  0.22176600  0.44732100  0.76891900  1
  C  C56  1  0.77856400  0.45025500  0.23155700  1
  C  C57  1  0.80491300  0.08208400  0.63965500  1
  C  C58  1  0.19497300  0.08439500  0.36067100  1
  C  C59  1  0.30491300  0.58208400  0.63965500  1
  C  C60  1  0.69497300  0.58439500  0.36067100  1
  C  C61  1  0.83066100  0.13076200  0.61921200  1
  C  C62  1  0.16911600  0.13303000  0.38096700  1
  C  C63  1  0.33066100  0.63076200  0.61921200  1
  C  C64  1  0.66911600  0.63303000  0.38096700  1
  C  C65  1  0.85876600  0.19169900  0.67415200  1
  C  C66  1  0.14077600  0.19379400  0.32573100  1
  C  C67  1  0.35876600  0.69169900  0.67415200  1
  C  C68  1  0.64077600  0.69379400  0.32573100  1
  C  C69  1  0.86101700  0.20399000  0.74941400  1
  C  C70  1  0.13839500  0.20595500  0.25032000  1
  C  C71  1  0.36101700  0.70399000  0.74941400  1
  C  C72  1  0.63839500  0.70595500  0.25032000  1
  C  C73  1  0.83565500  0.15510600  0.77037500  1
  C  C74  1  0.16386600  0.15711300  0.22950800  1
  C  C75  1  0.33565500  0.65510600  0.77037500  1
  C  C76  1  0.66386600  0.65711300  0.22950800  1
  C  C77  1  0.80779400  0.09380300  0.71573300  1
  C  C78  1  0.19196700  0.09598300  0.28444800  1
  C  C79  1  0.30779400  0.59380300  0.71573300  1
  C  C80  1  0.69196700  0.59598300  0.28444800  1
  C  C81  1  0.50306500  0.99533700  0.28563100  1
  C  C82  1  0.49728900  0.99690200  0.71492900  1
  C  C83  1  0.00306500  0.49533700  0.28563100  1
  C  C84  1  0.99728900  0.49690200  0.71492900  1
  C  C85  1  0.50342400  0.99654300  0.22123500  1
  C  C86  1  0.49694500  0.99747100  0.77934900  1
  C  C87  1  0.00342400  0.49654300  0.22123500  1
  C  C88  1  0.99694500  0.49747100  0.77934900  1
  C  C89  1  0.99954000  0.13860000  0.00082400  1
  C  C90  1  0.49954000  0.63860000  0.00082400  1
  C  C91  1  0.88043400  0.99795300  0.88044600  1
  C  C92  1  0.11957900  0.99928700  0.11994900  1
  C  C93  1  0.38043400  0.49795300  0.88044600  1
  C  C94  1  0.61957900  0.49928700  0.11994900  1
  C  C95  1  0.00049700  0.85760400  0.99968000  1
  C  C96  1  0.50049700  0.35760400  0.99968000  1
  C  C97  1  0.50137100  0.13854700  0.00145500  1
  C  C98  1  0.00137100  0.63854700  0.00145500  1
  C  C99  1  0.50301800  0.99772800  0.14367200  1
  C  C100  1  0.49731500  0.99801800  0.85688500  1
  C  C101  1  0.00301800  0.49772800  0.14367200  1
  C  C102  1  0.99731500  0.49801800  0.85688500  1
  C  C103  1  0.49894700  0.85749600  0.99911000  1
  C  C104  1  0.99894700  0.35749600  0.99911000  1
  C  C105  1  0.99935000  0.21567800  0.00022400  1
  C  C106  1  0.49935000  0.71567800  0.00022400  1
  C  C107  1  0.49918400  0.78041700  0.99970000  1
  C  C108  1  0.99918400  0.28041700  0.99970000  1
  C  C109  1  0.00082200  0.78046300  0.00038600  1
  C  C110  1  0.50082200  0.28046300  0.00038600  1
  C  C111  1  0.50109100  0.21568900  0.00093100  1
  C  C112  1  0.00109100  0.71568900  0.00093100  1
  O  O1  1  0.50292400  0.93219700  0.39575900  1
  O  O2  1  0.50003700  0.93476300  0.60695000  1
  O  O3  1  0.00292400  0.43219700  0.39575900  1
  O  O4  1  0.00003700  0.43476300  0.60695000  1
  O  O5  1  0.49999800  0.05627900  0.39331600  1
  O  O6  1  0.49757500  0.05885600  0.60489000  1
  O  O7  1  0.99999800  0.55627900  0.39331600  1
  O  O8  1  0.99757500  0.55885600  0.60489000  1
  O  O9  1  0.59134200  0.93170700  0.59394400  1
  O  O10  1  0.40919000  0.93524100  0.40347900  1
  O  O11  1  0.09134200  0.43170700  0.59394400  1
  O  O12  1  0.90919000  0.43524100  0.40347900  1
  O  O13  1  0.59105200  0.05564000  0.59662600  1
  O  O14  1  0.40900500  0.05910600  0.40680900  1
  O  O15  1  0.09105200  0.55564000  0.59662600  1
  O  O16  1  0.90900500  0.55910600  0.40680900  1
  O  O17  1  0.99859400  0.10555500  0.06206600  1
  O  O18  1  0.00064600  0.10494300  0.94005100  1
  O  O19  1  0.49859400  0.60555500  0.06206600  1
  O  O20  1  0.50064600  0.60494300  0.94005100  1
  O  O21  1  0.90955700  0.99849100  0.97194000  1
  O  O22  1  0.09044700  0.99623400  0.02852000  1
  O  O23  1  0.40955700  0.49849100  0.97194000  1
  O  O24  1  0.59044700  0.49623400  0.02852000  1
  O  O25  1  0.90831700  0.99645400  0.84666700  1
  O  O26  1  0.09165900  0.00064000  0.15366500  1
  O  O27  1  0.40831700  0.49645400  0.84666700  1
  O  O28  1  0.59165900  0.50064000  0.15366500  1
  O  O29  1  0.00029800  0.89131700  0.06136100  1
  O  O30  1  0.00047500  0.89069500  0.93747300  1
  O  O31  1  0.50029800  0.39131700  0.06136100  1
  O  O32  1  0.50047500  0.39069500  0.93747300  1
  O  O33  1  0.55425500  0.10540700  0.05688000  1
  O  O34  1  0.44868900  0.10489400  0.94635900  1
  O  O35  1  0.05425500  0.60540700  0.05688000  1
  O  O36  1  0.94868900  0.60489400  0.94635900  1
  O  O37  1  0.55555300  0.99963100  0.16375600  1
  O  O38  1  0.44477600  0.99632100  0.83680000  1
  O  O39  1  0.05555300  0.49963100  0.16375600  1
  O  O40  1  0.94477600  0.49632100  0.83680000  1
  O  O41  1  0.45001200  0.99619600  0.05628200  1
  O  O42  1  0.55031600  0.99970800  0.94427100  1
  O  O43  1  0.95001200  0.49619600  0.05628200  1
  O  O44  1  0.05031600  0.49970800  0.94427100  1
  O  O45  1  0.55165400  0.89110500  0.05421300  1
  O  O46  1  0.44605100  0.89059800  0.94366400  1
  O  O47  1  0.05165400  0.39110500  0.05421300  1
  O  O48  1  0.94605100  0.39059800  0.94366400  1
  O  O49  1  0.62809000  0.74523900  0.86571000  1
  O  O50  1  0.37165100  0.74990700  0.13209800  1
  O  O51  1  0.12809000  0.24523900  0.86571000  1
  O  O52  1  0.87165100  0.24990700  0.13209800  1
  O  O53  1  0.88398400  0.24017300  0.65361100  1
  O  O54  1  0.11544600  0.24222400  0.34611900  1
  O  O55  1  0.38398400  0.74017300  0.65361100  1
  O  O56  1  0.61544600  0.74222400  0.34611900  1
  O  O57  1  0.83714200  0.16816400  0.84408400  1
  O  O58  1  0.16222600  0.17003300  0.15562200  1
  O  O59  1  0.33714200  0.66816400  0.84408400  1
  O  O60  1  0.66222600  0.67003300  0.15562200  1
  O  O61  1  0.60648500  0.88866600  0.86521300  1
  O  O62  1  0.39001700  0.89378600  0.12812400  1
  O  O63  1  0.10648500  0.38866600  0.86521300  1
  O  O64  1  0.89001700  0.39378600  0.12812400  1
  O  O65  1  0.68268700  0.08719700  0.59944700  1
  O  O66  1  0.31688400  0.08993000  0.40083800  1
  O  O67  1  0.18268700  0.58719700  0.59944700  1
  O  O68  1  0.81688400  0.58993000  0.40083800  1
  O  O69  1  0.82803900  0.11876800  0.54420900  1
  O  O70  1  0.17186300  0.12116700  0.45611100  1
  O  O71  1  0.32803900  0.61876800  0.54420900  1
  O  O72  1  0.67186300  0.62116700  0.45611100  1
