# generated using pymatgen
data_ZnH11C19NO4
_symmetry_space_group_name_H-M   'P 1'
_cell_length_a   17.78163500
_cell_length_b   16.59856100
_cell_length_c   10.76641700
_cell_angle_alpha   90.00000000
_cell_angle_beta   90.01080400
_cell_angle_gamma   90.00000000
_symmetry_Int_Tables_number   1
_chemical_formula_structural   ZnH11C19NO4
_chemical_formula_sum   'Zn2 H22 C38 N2 O8'
_cell_volume   3177.70311091
_cell_formula_units_Z   2
loop_
 _symmetry_equiv_pos_site_id
 _symmetry_equiv_pos_as_xyz
  1  'x, y, z'
loop_
 _atom_site_type_symbol
 _atom_site_label
 _atom_site_symmetry_multiplicity
 _atom_site_fract_x
 _atom_site_fract_y
 _atom_site_fract_z
 _atom_site_occupancy
  Zn  Zn1  1  0.50000100  0.59169500  0.49999900  1
  Zn  Zn2  1  0.49999900  0.40830500  0.50000100  1
  H  H1  1  0.37181600  0.49990800  0.92202500  1
  H  H2  1  0.62818300  0.50009200  0.07797500  1
  H  H3  1  0.43546600  0.61911000  0.07639400  1
  H  H4  1  0.56453400  0.38089000  0.92360600  1
  H  H5  1  0.56438500  0.61920400  0.92361000  1
  H  H6  1  0.43561500  0.38079600  0.07639000  1
  H  H7  1  0.87705400  0.62821700  0.49982200  1
  H  H8  1  0.12294500  0.37178300  0.50017800  1
  H  H9  1  0.12294500  0.62821900  0.50017800  1
  H  H10  1  0.87705500  0.37178100  0.49982200  1
  H  H11  1  0.73993200  0.62911400  0.49971600  1
  H  H12  1  0.26006800  0.37088600  0.50028400  1
  H  H13  1  0.26006800  0.62911600  0.50028300  1
  H  H14  1  0.73993200  0.37088400  0.49971700  1
  H  H15  1  0.41513100  0.86740700  0.36051000  1
  H  H16  1  0.58486900  0.13259300  0.63949000  1
  H  H17  1  0.58487000  0.86740700  0.63948900  1
  H  H18  1  0.41513000  0.13259300  0.36051000  1
  H  H19  1  0.41615600  0.71934100  0.36219300  1
  H  H20  1  0.58384400  0.28065900  0.63780700  1
  H  H21  1  0.58384600  0.71934200  0.63780600  1
  H  H22  1  0.41615300  0.28065800  0.36219400  1
  C  C1  1  0.35273000  0.50000100  0.50026100  1
  C  C2  1  0.64726900  0.49999900  0.49973900  1
  C  C3  1  0.49977000  0.49999900  0.25726600  1
  C  C4  1  0.50023000  0.50000100  0.74273400  1
  C  C5  1  0.46483300  0.56502000  0.04028700  1
  C  C6  1  0.53516600  0.43498000  0.95971300  1
  C  C7  1  0.53508400  0.56507100  0.95971500  1
  C  C8  1  0.46491500  0.43492900  0.04028500  1
  C  C9  1  0.43000400  0.49994900  0.95911700  1
  C  C10  1  0.56999500  0.50005100  0.04088300  1
  C  C11  1  0.50024100  0.50000100  0.88081800  1
  C  C12  1  0.49975800  0.49999900  0.11918200  1
  C  C13  1  0.84663100  0.57183300  0.49978600  1
  C  C14  1  0.15336900  0.42816700  0.50021400  1
  C  C15  1  0.15336900  0.57183500  0.50021400  1
  C  C16  1  0.84663100  0.42816500  0.49978600  1
  C  C17  1  0.76907900  0.57199600  0.49972300  1
  C  C18  1  0.23092000  0.42800400  0.50027700  1
  C  C19  1  0.23092000  0.57199800  0.50027700  1
  C  C20  1  0.76907900  0.42800200  0.49972300  1
  C  C21  1  0.72980000  0.49999900  0.49970200  1
  C  C22  1  0.27019900  0.50000100  0.50029800  1
  C  C23  1  0.88541200  0.49999900  0.49982900  1
  C  C24  1  0.11458700  0.50000100  0.50017100  1
  C  C25  1  0.96611500  0.50000000  0.49994700  1
  C  C26  1  0.03388400  0.50000000  0.50005200  1
  C  C27  1  0.45264900  0.83536300  0.42217400  1
  C  C28  1  0.54735100  0.16463700  0.57782600  1
  C  C29  1  0.54735200  0.83536300  0.57782500  1
  C  C30  1  0.45264700  0.16463700  0.42217500  1
  C  C31  1  0.45332200  0.75228700  0.42327900  1
  C  C32  1  0.54667700  0.24771300  0.57672000  1
  C  C33  1  0.54667900  0.75228700  0.57671900  1
  C  C34  1  0.45332000  0.24771300  0.42328100  1
  C  C35  1  0.50000000  0.87724600  0.50000000  1
  C  C36  1  0.49999900  0.12275400  0.50000000  1
  C  C37  1  0.50000000  0.96370100  0.50000000  1
  C  C38  1  0.50000000  0.03629900  0.50000000  1
  N  N1  1  0.50000100  0.71214300  0.49999900  1
  N  N2  1  0.49999800  0.28785700  0.50000100  1
  O  O1  1  0.38795300  0.56952600  0.50020400  1
  O  O2  1  0.61204700  0.43047400  0.49979600  1
  O  O3  1  0.61204900  0.56952600  0.49979500  1
  O  O4  1  0.38795100  0.43047400  0.50020500  1
  O  O5  1  0.49986000  0.56958200  0.31493800  1
  O  O6  1  0.50014000  0.43041800  0.68506200  1
  O  O7  1  0.50014500  0.56958300  0.68506100  1
  O  O8  1  0.49985500  0.43041700  0.31493900  1
