# generated using pymatgen
data_Cu2H23C34N2O8F
_symmetry_space_group_name_H-M   'P 1'
_cell_length_a   15.85832100
_cell_length_b   10.89766400
_cell_length_c   9.46472200
_cell_angle_alpha   89.98646000
_cell_angle_beta   89.98235900
_cell_angle_gamma   89.99922300
_symmetry_Int_Tables_number   1
_chemical_formula_structural   Cu2H23C34N2O8F
_chemical_formula_sum   'Cu2 H23 C34 N2 O8 F1'
_cell_volume   1635.68039187
_cell_formula_units_Z   1
loop_
 _symmetry_equiv_pos_site_id
 _symmetry_equiv_pos_as_xyz
  1  'x, y, z'
loop_
 _atom_site_type_symbol
 _atom_site_label
 _atom_site_symmetry_multiplicity
 _atom_site_fract_x
 _atom_site_fract_y
 _atom_site_fract_z
 _atom_site_occupancy
  Cu  Cu1  1  0.49699100  0.49837400  0.64057300  1
  Cu  Cu2  1  0.49572500  0.50129000  0.35794500  1
  H  H1  1  0.91664100  0.34661900  0.64630400  1
  H  H2  1  0.05706900  0.32161500  0.61207200  1
  H  H3  1  0.06190300  0.49358900  0.27372000  1
  H  H4  1  0.07171000  0.34236200  0.35036600  1
  H  H5  1  0.93061400  0.32683700  0.38427200  1
  H  H6  1  0.92075300  0.46092900  0.27311500  1
  H  H7  1  0.06236000  0.66205200  0.61451500  1
  H  H8  1  0.07663600  0.67963100  0.42617100  1
  H  H9  1  0.92241200  0.68433700  0.57360300  1
  H  H10  1  0.07128400  0.45403200  0.72450900  1
  H  H11  1  0.93135900  0.49643000  0.72429500  1
  H  H12  1  0.93612900  0.66722700  0.38506300  1
  H  H13  1  0.47714700  0.10976900  0.27905000  1
  H  H14  1  0.59573100  0.20237200  0.73149600  1
  H  H15  1  0.58767900  0.10636500  0.96028100  1
  H  H16  1  0.51072000  0.91246600  0.98922800  1
  H  H17  1  0.45300000  0.80966400  0.78875900  1
  H  H18  1  0.46987700  0.88829400  0.28396000  1
  H  H19  1  0.40693400  0.36469200  0.12962300  1
  H  H20  1  0.60309700  0.67930000  0.25230500  1
  H  H21  1  0.69354300  0.80774000  0.12722800  1
  H  H22  1  0.69810900  0.80074500  0.86933100  1
  H  H23  1  0.61236900  0.66633000  0.74500100  1
  C  C1  1  0.50399700  0.26378700  0.49641700  1
  C  C2  1  0.33481500  0.49059400  0.50169100  1
  C  C3  1  0.48713700  0.73677700  0.50397300  1
  C  C4  1  0.65835000  0.50425800  0.49675700  1
  C  C5  1  0.04211900  0.42036000  0.62533500  1
  C  C6  1  0.04390300  0.43492000  0.36461600  1
  C  C7  1  0.94875900  0.42454200  0.37197500  1
  C  C8  1  0.74883100  0.50270400  0.49596500  1
  C  C9  1  0.07611700  0.49191600  0.50036200  1
  C  C10  1  0.94742200  0.43725800  0.63284700  1
  C  C11  1  0.91702800  0.49738600  0.49764000  1
  C  C12  1  0.95126300  0.62703600  0.48968900  1
  C  C13  1  0.04596800  0.62370000  0.50952900  1
  C  C14  1  0.82480200  0.50054000  0.49631600  1
  C  C15  1  0.16835100  0.48935100  0.50174500  1
  C  C16  1  0.24433500  0.48883800  0.50222800  1
  C  C17  1  0.56117400  0.11746200  0.73984900  1
  C  C18  1  0.55963000  0.06167800  0.86981800  1
  C  C19  1  0.51812900  0.95250500  0.88548000  1
  C  C20  1  0.48854500  0.89170400  0.76834200  1
  C  C21  1  0.49872400  0.94082200  0.63321700  1
  C  C22  1  0.52249200  0.06315000  0.62356000  1
  C  C23  1  0.50810300  0.12791300  0.49845600  1
  C  C24  1  0.48745500  0.06286400  0.37814600  1
  C  C25  1  0.48116200  0.93657300  0.38182300  1
  C  C26  1  0.48547900  0.87329000  0.50851300  1
  C  C27  1  0.60063500  0.66746900  0.14142400  1
  C  C28  1  0.65398100  0.74406400  0.07003500  1
  C  C29  1  0.65645700  0.74021900  0.92696800  1
  C  C30  1  0.60544500  0.66008400  0.85586100  1
  C  C31  1  0.55047600  0.57954700  0.92521300  1
  C  C32  1  0.54847700  0.58310400  0.07244400  1
  C  C33  1  0.44786600  0.42713000  0.07333700  1
  C  C34  1  0.44903700  0.42427700  0.92679800  1
  N  N1  1  0.49614100  0.50703100  0.14595400  1
  N  N2  1  0.50068200  0.49883100  0.85255900  1
  O  O1  1  0.49625700  0.32048100  0.61814200  1
  O  O2  1  0.49957900  0.32242700  0.37435300  1
  O  O3  1  0.37432500  0.49159800  0.62374600  1
  O  O4  1  0.37355600  0.48783900  0.37897600  1
  O  O5  1  0.49183900  0.67638000  0.62168600  1
  O  O6  1  0.48581000  0.67905300  0.38241200  1
  O  O7  1  0.61936200  0.49604300  0.61727900  1
  O  O8  1  0.61835600  0.50518100  0.37679700  1
  F  F1  1  0.39800200  0.34420200  0.85851200  1
