# Generated by REPEAT Assigner based on pymatgen
data_DB0-m3_o22_o79_f0_fsc.sym.3_sqe
_audit_creation_date              2022-05-24
_audit_creation_method            REPEAT_Assigner
_cell_length_a                    6.632937
_cell_length_b                    10.981108
_cell_length_c                    9.042632
_cell_angle_alpha                 90.000000
_cell_angle_beta                  90.000000
_cell_angle_gamma                 90.000000
_cell_volume                      658.638213
_symmetry_space_group_name_H-M    P1
_symmetry_Int_Tables_number       1
loop_
    _symmetry_equiv_pos_site_id
    _symmetry_equiv_pos_as_xyz
    1  x,y,z
loop_
    _atom_site_type_symbol
    _atom_site_label
    _atom_site_fract_x
    _atom_site_fract_y
    _atom_site_fract_z
    _atom_type_partial_charge
    C   C1   0.203989  0.890477  0.977156  -0.329347
    C   C2   0.796011  0.890477  0.022844  -0.329377
    H   H1   0.364439  0.890860  0.959354  0.172180
    H   H2   0.635561  0.890860  0.040646  0.172197
    C   C3   0.103643  0.781048  0.991462  0.197201
    C   C4   0.896357  0.781048  0.008538  0.197246
    C   C5   0.521725  0.622635  0.417771  -0.289172
    C   C6   0.478275  0.622635  0.582229  -0.289104
    N   N1   0.490009  0.500703  0.360530  0.365937
    N   N2   0.509991  0.500703  0.639470  0.365959
    C   C7   0.898239  0.999216  0.012501  0.133989
    C   C8   0.101761  0.999216  0.987500  0.133946
    H   H3   0.364435  0.107564  0.959354  0.134711
    H   H4   0.635565  0.107564  0.040646  0.134743
    C   C9   0.203984  0.107955  0.977154  -0.223281
    C   C10  0.796016  0.107955  0.022846  -0.223319
    C   C11  0.103669  0.217397  0.991469  -0.040410
    C   C12  0.896331  0.217397  0.008531  -0.040387
    O   O1   0.297233  0.368877  0.869968  -0.665798
    O   O2   0.283795  0.369561  0.124922  -0.690700
    O   O3   0.716205  0.369561  0.875078  -0.690711
    O   O4   0.702767  0.368877  0.130032  -0.665791
    C   C13  0.224610  0.328517  0.995394  0.764333
    C   C14  0.775390  0.328517  0.004606  0.764309
    O   O5   0.702558  0.629776  0.130091  -0.530464
    O   O6   0.715909  0.629145  0.875024  -0.479051
    O   O7   0.284091  0.629145  0.124976  -0.479062
    O   O8   0.297442  0.629776  0.869910  -0.530503
    C   C15  0.775584  0.669884  0.004621  0.418546
    C   C16  0.224416  0.669884  0.995379  0.418618
    Zn  Zn1  0.493165  0.499261  0.166364  0.932154
    Zn  Zn2  0.506835  0.499261  0.833636  0.932174
    C   C17  0.654380  0.425013  0.414120  0.207952
    C   C18  0.694626  0.454607  0.575031  -0.249450
    C   C19  0.305374  0.454607  0.424969  -0.249454
    C   C20  0.345620  0.425013  0.585881  0.207938
    H   H5   0.792217  0.442444  0.348006  -0.023377
    H   H6   0.813333  0.525440  0.582751  0.119771
    H   H7   0.186667  0.525440  0.417249  0.119766
    H   H8   0.207783  0.442444  0.651994  -0.023373
    H   H9   0.611061  0.327837  0.403843  -0.016884
    H   H10  0.743685  0.371296  0.634288  0.089741
    H   H11  0.256315  0.371296  0.365712  0.089739
    H   H12  0.388939  0.327837  0.596157  -0.016879
    Cl  Cl1  0.776252  0.666520  0.386792  0.004988
    Cl  Cl2  0.642626  0.726470  0.672925  -0.003616
    Cl  Cl3  0.357374  0.726470  0.327075  -0.003584
    Cl  Cl4  0.223748  0.666520  0.613208  0.004957
