data_DB0-m3_o11_o29_f0_pcu.sym.83_repeat
_audit_creation_date              2024-02-23
_audit_creation_method            'Materials Studio'
_symmetry_space_group_name_H-M    'P1'
_symmetry_Int_Tables_number       1
_symmetry_cell_setting            triclinic
loop_
_symmetry_equiv_pos_as_xyz
  x,y,z
_cell_length_a                    27.6266
_cell_length_b                    11.1373
_cell_length_c                    9.9040
_cell_angle_alpha                 89.9974
_cell_angle_beta                  89.9930
_cell_angle_gamma                 89.9936
loop_
_atom_site_label
_atom_site_type_symbol
_atom_site_fract_x
_atom_site_fract_y
_atom_site_fract_z
_atom_site_U_iso_or_equiv
_atom_site_adp_type
_atom_site_occupancy
O1     O     0.48729   0.29440   0.59270   0.00000  Uiso   1.00
O2     O     0.49037   0.29367   0.36020   0.00000  Uiso   1.00
C1     C     0.48857   0.23797   0.47669   0.00000  Uiso   1.00
O3     O     0.41565   0.47455   0.58082   0.00000  Uiso   1.00
O4     O     0.41853   0.47319   0.34830   0.00000  Uiso   1.00
C2     C     0.39441   0.47423   0.46245   0.00000  Uiso   1.00
Zn1    Zn    0.48710   0.47373   0.62663   0.00000  Uiso   1.00
Zn2    Zn    0.49115   0.47199   0.31955   0.00000  Uiso   1.00
O5     O     0.48858   0.65190   0.58649   0.00000  Uiso   1.00
O6     O     0.49099   0.65162   0.35304   0.00000  Uiso   1.00
O7     O     0.55973   0.47143   0.59822   0.00000  Uiso   1.00
O8     O     0.56265   0.47194   0.36502   0.00000  Uiso   1.00
C3     C     0.48982   0.70765   0.47001   0.00000  Uiso   1.00
C4     C     0.58381   0.47083   0.48375   0.00000  Uiso   1.00
C5     C     0.16498   0.38081   0.41048   0.00000  Uiso   1.00
O9     O     0.18956   0.28220   0.37282   0.00000  Uiso   1.00
N1     N     0.18942   0.47943   0.44972   0.00000  Uiso   1.00
C6     C     0.16543   0.57839   0.49008   0.00000  Uiso   1.00
C7     C     0.26704   0.46360   0.33419   0.00000  Uiso   1.00
C8     C     0.31699   0.46297   0.33699   0.00000  Uiso   1.00
C9     C     0.31515   0.48929   0.57629   0.00000  Uiso   1.00
C10    C     0.26529   0.49119   0.57297   0.00000  Uiso   1.00
C11    C     0.24105   0.47815   0.45212   0.00000  Uiso   1.00
C12    C     0.08964   0.47963   0.45391   0.00000  Uiso   1.00
C13    C     0.11488   0.37952   0.41282   0.00000  Uiso   1.00
C14    C     0.08995   0.27854   0.37400   0.00000  Uiso   1.00
C15    C     0.11535   0.57991   0.49188   0.00000  Uiso   1.00
C16    C     0.34133   0.47551   0.45825   0.00000  Uiso   1.00
H1     H     0.33315   0.49942   0.67245   0.00000  Uiso   1.00
H2     H     0.24525   0.50156   0.66601   0.00000  Uiso   1.00
H3     H     0.10867   0.19946   0.33840   0.00000  Uiso   1.00
C17    C     0.63690   0.47217   0.48722   0.00000  Uiso   1.00
C18    C     0.96366   0.37265   0.43861   0.00000  Uiso   1.00
C19    C     0.96384   0.58423   0.48985   0.00000  Uiso   1.00
C20    C     0.93880   0.47809   0.46677   0.00000  Uiso   1.00
C21    C     0.93723   0.26667   0.42579   0.00000  Uiso   1.00
C22    C     0.88763   0.26676   0.43427   0.00000  Uiso   1.00
C23    C     0.86298   0.37220   0.45563   0.00000  Uiso   1.00
C24    C     0.88846   0.47740   0.47191   0.00000  Uiso   1.00
C25    C     0.86300   0.58192   0.49329   0.00000  Uiso   1.00
C26    C     0.81293   0.58014   0.49723   0.00000  Uiso   1.00
N2     N     0.78874   0.47609   0.48190   0.00000  Uiso   1.00
C27    C     0.81292   0.37267   0.46154   0.00000  Uiso   1.00
C28    C     0.71273   0.41376   0.58471   0.00000  Uiso   1.00
C29    C     0.66252   0.41376   0.58829   0.00000  Uiso   1.00
C30    C     0.66162   0.53242   0.38665   0.00000  Uiso   1.00
C31    C     0.71142   0.53600   0.38685   0.00000  Uiso   1.00
C32    C     0.73712   0.47588   0.48505   0.00000  Uiso   1.00
O10    O     0.78809   0.27016   0.44361   0.00000  Uiso   1.00
C33    C     0.01414   0.37516   0.42554   0.00000  Uiso   1.00
C34    C     0.03928   0.47929   0.45756   0.00000  Uiso   1.00
C35    C     0.01451   0.58295   0.49363   0.00000  Uiso   1.00
C36    C     0.04032   0.27609   0.38015   0.00000  Uiso   1.00
H4     H     0.73361   0.36427   0.65834   0.00000  Uiso   1.00
H5     H     0.86873   0.18236   0.42387   0.00000  Uiso   1.00
H6     H     0.95358   0.17982   0.41339   0.00000  Uiso   1.00
H7     H     0.02375   0.19493   0.34401   0.00000  Uiso   1.00
O11    O     0.19045   0.67663   0.52662   0.00000  Uiso   1.00
C37    C     0.09094   0.68084   0.53337   0.00000  Uiso   1.00
H8     H     0.33657   0.45187   0.24335   0.00000  Uiso   1.00
H9     H     0.24836   0.45404   0.23888   0.00000  Uiso   1.00
H10    H     0.11010   0.76015   0.56635   0.00000  Uiso   1.00
C38    C     0.93733   0.68953   0.50768   0.00000  Uiso   1.00
C39    C     0.88765   0.68807   0.50928   0.00000  Uiso   1.00
O12    O     0.78815   0.68214   0.51912   0.00000  Uiso   1.00
C40    C     0.04127   0.68268   0.53428   0.00000  Uiso   1.00
H11    H     0.95355   0.77686   0.51654   0.00000  Uiso   1.00
H12    H     0.64209   0.57915   0.30803   0.00000  Uiso   1.00
H13    H     0.86869   0.77199   0.52328   0.00000  Uiso   1.00
H14    H     0.73029   0.58381   0.30778   0.00000  Uiso   1.00
H15    H     0.02525   0.76373   0.57258   0.00000  Uiso   1.00
C41    C     0.49025   0.90743   0.36405   0.00000  Uiso   1.00
C42    C     0.49026   0.83909   0.47515   0.00000  Uiso   1.00
H16    H     0.49029   0.86455   0.26586   0.00000  Uiso   1.00
H17    H     0.49063   0.87757   0.57505   0.00000  Uiso   1.00
C43    C     0.49048   0.04054   0.36668   0.00000  Uiso   1.00
C44    C     0.48821   0.10640   0.47989   0.00000  Uiso   1.00
H18    H     0.49234   0.08573   0.26994   0.00000  Uiso   1.00
H19    H     0.48583   0.06611   0.57869   0.00000  Uiso   1.00
C45    C     0.51141   0.54956   0.89653   0.00000  Uiso   1.00
N3     N     0.48440   0.47769   0.82841   0.00000  Uiso   1.00
H20    H     0.53618   0.60852   0.84360   0.00000  Uiso   1.00
H21    H     0.45719   0.43459   0.87987   0.00000  Uiso   1.00
C46    C     0.50778   0.55893   0.04521   0.00000  Uiso   1.00
N4     N     0.49462   0.46911   0.11782   0.00000  Uiso   1.00
H22    H     0.51854   0.64194   0.09366   0.00000  Uiso   1.00
H23    H     0.49030   0.38855   0.06883   0.00000  Uiso   1.00
N5     N     0.63744   0.34442   0.68546   0.00000  Uiso   1.00
C47    C     0.65847   0.34280   0.81559   0.00000  Uiso   1.00
C48    C     0.66382   0.23518   0.88350   0.00000  Uiso   1.00
C49    C     0.68381   0.23321   0.01101   0.00000  Uiso   1.00
C50    C     0.69811   0.33870   0.07175   0.00000  Uiso   1.00
C51    C     0.69205   0.44643   0.00540   0.00000  Uiso   1.00
C52    C     0.67209   0.44875   0.87784   0.00000  Uiso   1.00
H24    H     0.62826   0.26066   0.64991   0.00000  Uiso   1.00
H25    H     0.65272   0.15171   0.83717   0.00000  Uiso   1.00
H26    H     0.68827   0.14879   0.06343   0.00000  Uiso   1.00
H27    H     0.71380   0.33692   0.17168   0.00000  Uiso   1.00
H28    H     0.70282   0.52931   0.05354   0.00000  Uiso   1.00
H29    H     0.66689   0.53415   0.82800   0.00000  Uiso   1.00
