# generated using pymatgen
data_VH6(C3O2)3
_symmetry_space_group_name_H-M   'P 1'
_cell_length_a   13.83049500
_cell_length_b   16.14103400
_cell_length_c   6.81991300
_cell_angle_alpha   90.00000000
_cell_angle_beta   99.49059300
_cell_angle_gamma   90.00000000
_symmetry_Int_Tables_number   1
_chemical_formula_structural   VH6(C3O2)3
_chemical_formula_sum   'V4 H24 C36 O24'
_cell_volume   1501.62859571
_cell_formula_units_Z   4
loop_
 _symmetry_equiv_pos_site_id
 _symmetry_equiv_pos_as_xyz
  1  'x, y, z'
loop_
 _atom_site_type_symbol
 _atom_site_label
 _atom_site_symmetry_multiplicity
 _atom_site_fract_x
 _atom_site_fract_y
 _atom_site_fract_z
 _atom_site_occupancy
  V  V1  1  0.75791100  0.74700200  0.11074900  1
  V  V2  1  0.24208900  0.24700200  0.88925100  1
  V  V3  1  0.73425100  0.74700300  0.60264400  1
  V  V4  1  0.26574900  0.24700300  0.39735600  1
  H  H1  1  0.10016200  0.03968200  0.25256800  1
  H  H2  1  0.89985000  0.95431400  0.74743800  1
  H  H3  1  0.89983800  0.53968200  0.74743200  1
  H  H4  1  0.10015000  0.45431400  0.25256200  1
  H  H5  1  0.43041000  0.05526300  0.85259700  1
  H  H6  1  0.56960100  0.93875000  0.14740700  1
  H  H7  1  0.56959000  0.55526300  0.14740300  1
  H  H8  1  0.43039900  0.43875000  0.85259400  1
  H  H9  1  0.47639500  0.03876700  0.30517100  1
  H  H10  1  0.52361800  0.95524600  0.69483200  1
  H  H11  1  0.52360600  0.53876800  0.69482800  1
  H  H12  1  0.47638200  0.45524600  0.30516800  1
  H  H13  1  0.13442900  0.93691900  0.12191000  1
  H  H14  1  0.05615100  0.94824800  0.88286200  1
  H  H15  1  0.08322800  0.84636200  0.98775800  1
  H  H16  1  0.86558500  0.05707800  0.87809800  1
  H  H17  1  0.91678800  0.14763400  0.01225200  1
  H  H18  1  0.94386400  0.04574900  0.11714400  1
  H  H19  1  0.86557100  0.43691900  0.87809000  1
  H  H20  1  0.94384900  0.44824800  0.11713800  1
  H  H21  1  0.91677300  0.34636200  0.01224200  1
  H  H22  1  0.13441600  0.55707800  0.12190200  1
  H  H23  1  0.08321200  0.64763400  0.98774800  1
  H  H24  1  0.05613600  0.54574900  0.88285600  1
  C  C1  1  0.86329800  0.86403200  0.42515400  1
  C  C2  1  0.13671100  0.12996600  0.57484900  1
  C  C3  1  0.13670200  0.36403200  0.57484600  1
  C  C4  1  0.86329000  0.62996600  0.42515100  1
  C  C5  1  0.06743300  0.06079800  0.54225400  1
  C  C6  1  0.93257800  0.93319900  0.45775100  1
  C  C7  1  0.93256700  0.56079800  0.45774600  1
  C  C8  1  0.06742200  0.43319900  0.54224900  1
  C  C9  1  0.98959700  0.95685500  0.31797200  1
  C  C10  1  0.01041600  0.03714100  0.68203400  1
  C  C11  1  0.01040300  0.45685500  0.68202800  1
  C  C12  1  0.98958400  0.53714100  0.31796600  1
  C  C13  1  0.62830200  0.63069900  0.84884300  1
  C  C14  1  0.37169000  0.36331200  0.15115500  1
  C  C15  1  0.37169800  0.13069900  0.15115700  1
  C  C16  1  0.62831000  0.86331200  0.84884500  1
  C  C17  1  0.05665600  0.02020700  0.36213400  1
  C  C18  1  0.94335700  0.97379000  0.63787200  1
  C  C19  1  0.94334400  0.52020700  0.63786700  1
  C  C20  1  0.05664300  0.47379000  0.36212800  1
  C  C21  1  0.55772000  0.93113300  0.83797400  1
  C  C22  1  0.44229200  0.06288100  0.16203000  1
  C  C23  1  0.44228100  0.43113300  0.16202600  1
  C  C24  1  0.55770800  0.56288100  0.83797000  1
  C  C25  1  0.53538000  0.96306600  0.00455700  1
  C  C26  1  0.46463200  0.03094800  0.99544700  1
  C  C27  1  0.46462000  0.46306600  0.99544300  1
  C  C28  1  0.53536800  0.53094800  0.00455300  1
  C  C29  1  0.98170200  0.91681000  0.12291400  1
  C  C30  1  0.06941700  0.91198600  0.02259900  1
  C  C31  1  0.01831200  0.07718600  0.87709300  1
  C  C32  1  0.93059800  0.08201100  0.97740900  1
  C  C33  1  0.01829800  0.41681000  0.87708600  1
  C  C34  1  0.93058300  0.41198600  0.97740100  1
  C  C35  1  0.98168800  0.57718600  0.12290700  1
  C  C36  1  0.06940200  0.58201100  0.02259100  1
  O  O1  1  0.82841400  0.65609800  0.58223700  1
  O  O2  1  0.17158000  0.33790200  0.41776100  1
  O  O3  1  0.17158700  0.15609800  0.41776300  1
  O  O4  1  0.82842000  0.83790200  0.58223900  1
  O  O5  1  0.84754500  0.83080100  0.24718400  1
  O  O6  1  0.15246100  0.16319900  0.75281800  1
  O  O7  1  0.15245500  0.33080100  0.75281600  1
  O  O8  1  0.84753900  0.66319900  0.24718200  1
  O  O9  1  0.66356200  0.83623700  0.02764100  1
  O  O10  1  0.33644500  0.15777200  0.97236100  1
  O  O11  1  0.33643800  0.33623700  0.97235900  1
  O  O12  1  0.66355500  0.65777200  0.02763900  1
  O  O13  1  0.68667500  0.74700400  0.36121700  1
  O  O14  1  0.31332500  0.24700400  0.63878300  1
  O  O15  1  0.64446600  0.66156800  0.67893300  1
  O  O16  1  0.35552800  0.33244200  0.32106500  1
  O  O17  1  0.35553500  0.16156800  0.32106700  1
  O  O18  1  0.64447200  0.83244200  0.67893500  1
  O  O19  1  0.80546400  0.74700100  0.90109300  1
  O  O20  1  0.19453700  0.24700100  0.09890800  1
  O  O21  1  0.90308500  0.89153200  0.03680000  1
  O  O22  1  0.09692900  0.10246200  0.96320600  1
  O  O23  1  0.09691500  0.39153200  0.96320000  1
  O  O24  1  0.90307100  0.60246200  0.03679500  1
