# generated using pymatgen
data_Cu3H30C60Br2(NO8)2
_symmetry_space_group_name_H-M   'P 1'
_cell_length_a   21.53717400
_cell_length_b   21.53717400
_cell_length_c   46.53301900
_cell_angle_alpha   90.00000000
_cell_angle_beta   90.00000000
_cell_angle_gamma   90.00000000
_symmetry_Int_Tables_number   1
_chemical_formula_structural   Cu3H30C60Br2(NO8)2
_chemical_formula_sum   'Cu12 H120 C240 Br8 N8 O64'
_cell_volume   21584.33453030
_cell_formula_units_Z   4
loop_
 _symmetry_equiv_pos_site_id
 _symmetry_equiv_pos_as_xyz
  1  'x, y, z'
loop_
 _atom_site_type_symbol
 _atom_site_label
 _atom_site_symmetry_multiplicity
 _atom_site_fract_x
 _atom_site_fract_y
 _atom_site_fract_z
 _atom_site_occupancy
  Cu  Cu1  1  0.00000000  0.00000000  0.02763200  1
  Cu  Cu2  1  0.50000000  0.50000000  0.52763200  1
  Cu  Cu3  1  0.00000000  0.00000000  0.97136200  1
  Cu  Cu4  1  0.50000000  0.50000000  0.47136200  1
  Cu  Cu5  1  0.49720100  0.06066700  0.99911700  1
  Cu  Cu6  1  0.93933300  0.49720100  0.99911700  1
  Cu  Cu7  1  0.50279900  0.93933300  0.99911700  1
  Cu  Cu8  1  0.06066700  0.50279900  0.99911700  1
  Cu  Cu9  1  0.99720100  0.56066700  0.49911700  1
  Cu  Cu10  1  0.43933300  0.99720100  0.49911700  1
  Cu  Cu11  1  0.00279900  0.43933300  0.49911700  1
  Cu  Cu12  1  0.56066700  0.00279900  0.49911700  1
  H  H1  1  0.09887900  0.49238400  0.14082700  1
  H  H2  1  0.50761600  0.09887900  0.14082700  1
  H  H3  1  0.90112200  0.50761600  0.14082700  1
  H  H4  1  0.49238400  0.90112200  0.14082700  1
  H  H5  1  0.59887800  0.99238400  0.64082700  1
  H  H6  1  0.00761600  0.59887800  0.64082700  1
  H  H7  1  0.40112100  0.00761600  0.64082700  1
  H  H8  1  0.99238400  0.40112200  0.64082700  1
  H  H9  1  0.80659300  0.01431100  0.95290000  1
  H  H10  1  0.98568900  0.80659300  0.95290000  1
  H  H11  1  0.19340700  0.98568900  0.95290000  1
  H  H12  1  0.01431100  0.19340700  0.95290000  1
  H  H13  1  0.30659300  0.51431100  0.45290000  1
  H  H14  1  0.48568900  0.30659300  0.45290000  1
  H  H15  1  0.69340700  0.48568900  0.45290000  1
  H  H16  1  0.51431100  0.69340700  0.45290000  1
  H  H17  1  0.69266900  0.01181300  0.95289300  1
  H  H18  1  0.98818700  0.69266900  0.95289300  1
  H  H19  1  0.30733100  0.98818700  0.95289300  1
  H  H20  1  0.01181300  0.30733100  0.95289300  1
  H  H21  1  0.19266900  0.51181300  0.45289300  1
  H  H22  1  0.48818700  0.19266900  0.45289300  1
  H  H23  1  0.80733100  0.48818700  0.45289300  1
  H  H24  1  0.51181300  0.80733100  0.45289300  1
  H  H25  1  0.69060700  0.04456300  0.06492300  1
  H  H26  1  0.95543700  0.69060700  0.06492300  1
  H  H27  1  0.30939300  0.95543700  0.06492300  1
  H  H28  1  0.04456300  0.30939300  0.06492300  1
  H  H29  1  0.19060700  0.54456300  0.56492300  1
  H  H30  1  0.45543700  0.19060800  0.56492300  1
  H  H31  1  0.80939300  0.45543800  0.56492300  1
  H  H32  1  0.54456300  0.80939300  0.56492300  1
  H  H33  1  0.69293600  0.95752000  0.06156500  1
  H  H34  1  0.04248000  0.69293700  0.06156500  1
  H  H35  1  0.30706300  0.04248000  0.06156500  1
  H  H36  1  0.95751900  0.30706400  0.06156500  1
  H  H37  1  0.19293700  0.45752000  0.56156500  1
  H  H38  1  0.54248100  0.19293700  0.56156500  1
  H  H39  1  0.80706400  0.54248100  0.56156500  1
  H  H40  1  0.45752000  0.80706400  0.56156500  1
  H  H41  1  0.80579400  0.95954400  0.06228100  1
  H  H42  1  0.04045600  0.80579400  0.06228200  1
  H  H43  1  0.19420600  0.04045700  0.06228100  1
  H  H44  1  0.95954300  0.19420600  0.06228100  1
  H  H45  1  0.30579400  0.45954400  0.56228200  1
  H  H46  1  0.54045700  0.30579500  0.56228100  1
  H  H47  1  0.69420600  0.54045700  0.56228100  1
  H  H48  1  0.45954400  0.69420600  0.56228200  1
  H  H49  1  0.09904900  0.49453800  0.08854900  1
  H  H50  1  0.50546200  0.09904900  0.08854900  1
  H  H51  1  0.90095100  0.50546200  0.08854900  1
  H  H52  1  0.49453800  0.90095100  0.08854900  1
  H  H53  1  0.59904900  0.99453800  0.58854900  1
  H  H54  1  0.00546200  0.59904900  0.58854900  1
  H  H55  1  0.40095000  0.00546200  0.58854900  1
  H  H56  1  0.99453800  0.40095100  0.58854900  1
  H  H57  1  0.10235800  0.61591000  0.22317700  1
  H  H58  1  0.38409000  0.10235800  0.22317700  1
  H  H59  1  0.89764300  0.38409000  0.22317700  1
  H  H60  1  0.61591000  0.89764300  0.22317700  1
  H  H61  1  0.60235700  0.11591000  0.72317700  1
  H  H62  1  0.88409000  0.60235700  0.72317700  1
  H  H63  1  0.39764200  0.88409000  0.72317700  1
  H  H64  1  0.11591000  0.39764300  0.72317700  1
  H  H65  1  0.60399000  0.11444500  0.77501600  1
  H  H66  1  0.88555400  0.60399000  0.77501600  1
  H  H67  1  0.39601000  0.88555400  0.77501600  1
  H  H68  1  0.11444500  0.39601000  0.77501600  1
  H  H69  1  0.10399000  0.61444600  0.27501600  1
  H  H70  1  0.38555500  0.10399000  0.27501600  1
  H  H71  1  0.89601000  0.38555400  0.27501600  1
  H  H72  1  0.61444600  0.89601000  0.27501600  1
  H  H73  1  0.51804400  0.90247800  0.85739300  1
  H  H74  1  0.09752200  0.51804500  0.85739300  1
  H  H75  1  0.48195500  0.09752200  0.85739300  1
  H  H76  1  0.90247800  0.48195500  0.85739300  1
  H  H77  1  0.01804500  0.40247800  0.35739300  1
  H  H78  1  0.59752200  0.01804500  0.35739300  1
  H  H79  1  0.98195600  0.59752200  0.35739300  1
  H  H80  1  0.40247800  0.98195600  0.35739300  1
  H  H81  1  0.51582900  0.90208400  0.90967700  1
  H  H82  1  0.09791600  0.51582900  0.90967700  1
  H  H83  1  0.48417000  0.09791600  0.90967700  1
  H  H84  1  0.90208300  0.48417100  0.90967700  1
  H  H85  1  0.01583000  0.40208400  0.40967700  1
  H  H86  1  0.59791600  0.01583000  0.40967700  1
  H  H87  1  0.98417100  0.59791700  0.40967700  1
  H  H88  1  0.40208400  0.98417100  0.40967700  1
  H  H89  1  0.86238800  0.00729400  0.10021500  1
  H  H90  1  0.90279500  0.09820800  0.12562500  1
  H  H91  1  0.80676200  0.21710000  0.06763700  1
  H  H92  1  0.76551900  0.12720500  0.04223100  1
  H  H93  1  0.99270600  0.86238800  0.10021500  1
  H  H94  1  0.90179200  0.90279600  0.12562500  1
  H  H95  1  0.78290000  0.80676300  0.06763700  1
  H  H96  1  0.87279500  0.76551900  0.04223100  1
  H  H97  1  0.13761200  0.99270700  0.10021500  1
  H  H98  1  0.09720400  0.90179300  0.12562500  1
  H  H99  1  0.19323700  0.78290000  0.06763700  1
  H  H100  1  0.23448000  0.87279500  0.04223100  1
  H  H101  1  0.00729300  0.13761200  0.10021500  1
  H  H102  1  0.09820700  0.09720500  0.12562500  1
  H  H103  1  0.21710000  0.19323700  0.06763700  1
  H  H104  1  0.12720500  0.23448100  0.04223100  1
  H  H105  1  0.36238800  0.50729400  0.60021500  1
  H  H106  1  0.40279600  0.59820800  0.62562500  1
  H  H107  1  0.30676300  0.71710000  0.56763700  1
  H  H108  1  0.26551900  0.62720500  0.54223100  1
  H  H109  1  0.49270700  0.36238900  0.60021500  1
  H  H110  1  0.40179300  0.40279600  0.62562500  1
  H  H111  1  0.28290000  0.30676300  0.56763700  1
  H  H112  1  0.37279500  0.26552000  0.54223100  1
  H  H113  1  0.63761200  0.49270700  0.60021500  1
  H  H114  1  0.59720500  0.40179300  0.62562500  1
  H  H115  1  0.69323700  0.28290100  0.56763700  1
  H  H116  1  0.73448100  0.37279500  0.54223100  1
  H  H117  1  0.50729400  0.63761200  0.60021500  1
  H  H118  1  0.59820800  0.59720500  0.62562500  1
  H  H119  1  0.71710000  0.69323800  0.56763600  1
  H  H120  1  0.62720500  0.73448100  0.54223100  1
  C  C1  1  0.99164100  0.88266700  0.99944400  1
  C  C2  1  0.11733300  0.99164100  0.99944400  1
  C  C3  1  0.00835900  0.11733300  0.99944400  1
  C  C4  1  0.88266700  0.00835900  0.99944400  1
  C  C5  1  0.49164100  0.38266700  0.49944400  1
  C  C6  1  0.61733300  0.49164200  0.49944400  1
  C  C7  1  0.50835900  0.61733300  0.49944400  1
  C  C8  1  0.38266700  0.50835900  0.49944400  1
  C  C9  1  0.50000000  0.00000000  0.85371300  1
  C  C10  1  0.00000000  0.50000000  0.85371300  1
  C  C11  1  0.00000000  0.50000000  0.35371300  1
  C  C12  1  0.50000000  0.00000000  0.35371300  1
  C  C13  1  0.05526900  0.49639800  0.12948100  1
  C  C14  1  0.50360200  0.05526900  0.12948100  1
  C  C15  1  0.94473100  0.50360200  0.12948100  1
  C  C16  1  0.49639800  0.94473100  0.12948100  1
  C  C17  1  0.55526900  0.99639800  0.62948100  1
  C  C18  1  0.00360200  0.55526900  0.62948100  1
  C  C19  1  0.44473100  0.00360200  0.62948100  1
  C  C20  1  0.99639800  0.44473100  0.62948100  1
  C  C21  1  0.00000000  0.50000000  0.08495100  1
  C  C22  1  0.50000000  0.00000000  0.08495100  1
  C  C23  1  0.50000000  0.00000000  0.58495100  1
  C  C24  1  0.00000000  0.50000000  0.58495100  1
  C  C25  1  0.00000000  0.50000000  0.14449400  1
  C  C26  1  0.50000000  0.00000000  0.14449400  1
  C  C27  1  0.50000000  0.00000000  0.64449400  1
  C  C28  1  0.00000000  0.50000000  0.64449400  1
  C  C29  1  0.78040100  0.00931300  0.02367800  1
  C  C30  1  0.99068700  0.78040100  0.02367800  1
  C  C31  1  0.21959900  0.99068700  0.02367800  1
  C  C32  1  0.00931200  0.21959900  0.02367800  1
  C  C33  1  0.28040100  0.50931300  0.52367800  1
  C  C34  1  0.49068800  0.28040100  0.52367800  1
  C  C35  1  0.71959900  0.49068800  0.52367800  1
  C  C36  1  0.50931300  0.71959900  0.52367800  1
  C  C37  1  0.81492700  0.01111900  0.99894100  1
  C  C38  1  0.98888100  0.81492700  0.99894100  1
  C  C39  1  0.18507300  0.98888100  0.99894100  1
  C  C40  1  0.01111900  0.18507300  0.99894100  1
  C  C41  1  0.31492700  0.51111900  0.49894100  1
  C  C42  1  0.48888100  0.31492700  0.49894100  1
  C  C43  1  0.68507300  0.48888100  0.49894100  1
  C  C44  1  0.51111900  0.68507300  0.49894100  1
  C  C45  1  0.78222200  0.01322700  0.97319000  1
  C  C46  1  0.98677300  0.78222300  0.97319000  1
  C  C47  1  0.21777700  0.98677300  0.97319000  1
  C  C48  1  0.01322600  0.21777700  0.97319000  1
  C  C49  1  0.28222300  0.51322700  0.47319000  1
  C  C50  1  0.48677300  0.28222300  0.47319000  1
  C  C51  1  0.71777700  0.48677400  0.47319000  1
  C  C52  1  0.51322600  0.71777800  0.47319000  1
  C  C53  1  0.71748200  0.01146500  0.97308500  1
  C  C54  1  0.98853500  0.71748200  0.97308500  1
  C  C55  1  0.28251800  0.98853500  0.97308500  1
  C  C56  1  0.01146500  0.28251800  0.97308500  1
  C  C57  1  0.21748200  0.51146500  0.47308500  1
  C  C58  1  0.48853500  0.21748300  0.47308500  1
  C  C59  1  0.78251800  0.48853500  0.47308500  1
  C  C60  1  0.51146500  0.78251800  0.47308500  1
  C  C61  1  0.68475600  0.00903800  0.99868500  1
  C  C62  1  0.99096200  0.68475600  0.99868500  1
  C  C63  1  0.31524400  0.99096200  0.99868500  1
  C  C64  1  0.00903800  0.31524400  0.99868500  1
  C  C65  1  0.18475600  0.50903800  0.49868500  1
  C  C66  1  0.49096200  0.18475600  0.49868500  1
  C  C67  1  0.81524400  0.49096200  0.49868500  1
  C  C68  1  0.50903800  0.81524500  0.49868500  1
  C  C69  1  0.71877800  0.00857200  0.02347900  1
  C  C70  1  0.99142800  0.71877800  0.02347900  1
  C  C71  1  0.28122200  0.99142800  0.02347900  1
  C  C72  1  0.00857200  0.28122200  0.02347900  1
  C  C73  1  0.21877800  0.50857200  0.52347900  1
  C  C74  1  0.49142800  0.21877800  0.52347900  1
  C  C75  1  0.78122200  0.49142800  0.52347900  1
  C  C76  1  0.50857200  0.78122300  0.52347900  1
  C  C77  1  0.71245300  0.00306600  0.05510100  1
  C  C78  1  0.99693300  0.71245300  0.05510100  1
  C  C79  1  0.28754600  0.99693400  0.05510100  1
  C  C80  1  0.00306600  0.28754700  0.05510100  1
  C  C81  1  0.21245300  0.50306700  0.55510100  1
  C  C82  1  0.49693400  0.21245400  0.55510100  1
  C  C83  1  0.78754700  0.49693400  0.55510100  1
  C  C84  1  0.50306600  0.78754700  0.55510100  1
  C  C85  1  0.78494900  0.00404100  0.05536600  1
  C  C86  1  0.99595900  0.78494900  0.05536600  1
  C  C87  1  0.21505100  0.99595900  0.05536600  1
  C  C88  1  0.00404100  0.21505100  0.05536600  1
  C  C89  1  0.28494900  0.50404100  0.55536600  1
  C  C90  1  0.49595900  0.28494900  0.55536600  1
  C  C91  1  0.71505100  0.49596000  0.55536600  1
  C  C92  1  0.50404100  0.71505200  0.55536600  1
  C  C93  1  0.05533600  0.49741100  0.09986900  1
  C  C94  1  0.50258900  0.05533600  0.09986900  1
  C  C95  1  0.94466500  0.50258900  0.09986900  1
  C  C96  1  0.49741100  0.94466500  0.09986900  1
  C  C97  1  0.55533500  0.99741100  0.59986900  1
  C  C98  1  0.00258900  0.55533600  0.59986900  1
  C  C99  1  0.44466400  0.00258900  0.59986900  1
  C  C100  1  0.99741100  0.44466500  0.59986900  1
  C  C101  1  0.50000000  0.00000000  0.94469400  1
  C  C102  1  0.00000000  0.50000000  0.94469400  1
  C  C103  1  0.00000000  0.50000000  0.44469400  1
  C  C104  1  0.50000000  0.00000000  0.44469400  1
  C  C105  1  0.61730600  0.00565000  0.99909100  1
  C  C106  1  0.99435000  0.61730600  0.99909100  1
  C  C107  1  0.38269300  0.99435000  0.99909100  1
  C  C108  1  0.00565000  0.38269400  0.99909100  1
  C  C109  1  0.11730600  0.50565000  0.49909100  1
  C  C110  1  0.49435000  0.11730700  0.49909100  1
  C  C111  1  0.88269400  0.49435000  0.49909100  1
  C  C112  1  0.50565000  0.88269400  0.49909100  1
  C  C113  1  0.50000000  0.00000000  0.05353500  1
  C  C114  1  0.00000000  0.50000000  0.05353500  1
  C  C115  1  0.00000000  0.50000000  0.55353500  1
  C  C116  1  0.50000000  0.00000000  0.55353500  1
  C  C117  1  0.96513900  0.45819500  0.18967600  1
  C  C118  1  0.54180600  0.96513900  0.18967600  1
  C  C119  1  0.03486100  0.54180500  0.18967600  1
  C  C120  1  0.45819500  0.03486100  0.18967600  1
  C  C121  1  0.46513900  0.95819500  0.68967600  1
  C  C122  1  0.04180500  0.46513900  0.68967600  1
  C  C123  1  0.53486100  0.04180500  0.68967600  1
  C  C124  1  0.95819400  0.53486100  0.68967600  1
  C  C125  1  0.03623300  0.54154000  0.21938100  1
  C  C126  1  0.45846000  0.03623300  0.21938100  1
  C  C127  1  0.96376700  0.45846000  0.21938100  1
  C  C128  1  0.54154000  0.96376700  0.21938100  1
  C  C129  1  0.53623300  0.04154000  0.71938100  1
  C  C130  1  0.95846000  0.53623300  0.71938100  1
  C  C131  1  0.46376700  0.95846000  0.71938100  1
  C  C132  1  0.04154000  0.46376700  0.71938100  1
  C  C133  1  0.00000000  0.50000000  0.23427600  1
  C  C134  1  0.50000000  0.00000000  0.23427600  1
  C  C135  1  0.50000000  0.00000000  0.73427600  1
  C  C136  1  0.00000000  0.50000000  0.73427600  1
  C  C137  1  0.07329500  0.58283700  0.23429800  1
  C  C138  1  0.41716300  0.07329500  0.23429800  1
  C  C139  1  0.92670600  0.41716300  0.23429800  1
  C  C140  1  0.58283700  0.92670600  0.23429800  1
  C  C141  1  0.57329400  0.08283700  0.73429800  1
  C  C142  1  0.91716300  0.57329500  0.73429800  1
  C  C143  1  0.42670500  0.91716300  0.73429800  1
  C  C144  1  0.08283600  0.42670500  0.73429800  1
  C  C145  1  0.57430300  0.08193100  0.76389700  1
  C  C146  1  0.91806900  0.57430300  0.76389700  1
  C  C147  1  0.42569700  0.91806900  0.76389700  1
  C  C148  1  0.08193000  0.42569700  0.76389700  1
  C  C149  1  0.07430400  0.58193100  0.26389700  1
  C  C150  1  0.41807000  0.07430300  0.26389700  1
  C  C151  1  0.92569700  0.41806900  0.26389700  1
  C  C152  1  0.58193100  0.92569700  0.26389700  1
  C  C153  1  0.53731700  0.04056400  0.77881300  1
  C  C154  1  0.95943600  0.53731700  0.77881300  1
  C  C155  1  0.46268200  0.95943600  0.77881300  1
  C  C156  1  0.04056300  0.46268200  0.77881300  1
  C  C157  1  0.03731800  0.54056400  0.27881300  1
  C  C158  1  0.45943600  0.03731800  0.27881300  1
  C  C159  1  0.96268300  0.45943600  0.27881300  1
  C  C160  1  0.54056400  0.96268300  0.27881300  1
  C  C161  1  0.50000000  0.00000000  0.76391800  1
  C  C162  1  0.00000000  0.50000000  0.76391800  1
  C  C163  1  0.00000000  0.50000000  0.26391800  1
  C  C164  1  0.50000000  0.00000000  0.26391800  1
  C  C165  1  0.53773800  0.03922400  0.80851900  1
  C  C166  1  0.96077500  0.53773800  0.80851900  1
  C  C167  1  0.46226100  0.96077600  0.80851900  1
  C  C168  1  0.03922400  0.46226200  0.80851900  1
  C  C169  1  0.03773900  0.53922400  0.30851900  1
  C  C170  1  0.46077600  0.03773900  0.30851900  1
  C  C171  1  0.96226200  0.46077600  0.30851900  1
  C  C172  1  0.53922400  0.96226200  0.30851900  1
  C  C173  1  0.50942200  0.94542200  0.86873300  1
  C  C174  1  0.05457700  0.50942200  0.86873300  1
  C  C175  1  0.49057700  0.05457700  0.86873300  1
  C  C176  1  0.94542200  0.49057800  0.86873300  1
  C  C177  1  0.00942300  0.44542200  0.36873300  1
  C  C178  1  0.55457800  0.00942300  0.36873300  1
  C  C179  1  0.99057800  0.55457800  0.36873300  1
  C  C180  1  0.44542300  0.99057800  0.36873300  1
  C  C181  1  0.50838100  0.94524500  0.89834800  1
  C  C182  1  0.05475500  0.50838100  0.89834800  1
  C  C183  1  0.49161900  0.05475500  0.89834800  1
  C  C184  1  0.94524400  0.49161900  0.89834800  1
  C  C185  1  0.00838100  0.44524500  0.39834800  1
  C  C186  1  0.55475500  0.00838100  0.39834800  1
  C  C187  1  0.99161900  0.55475500  0.39834800  1
  C  C188  1  0.44524500  0.99161900  0.39834800  1
  C  C189  1  0.50000000  0.00000000  0.91326900  1
  C  C190  1  0.00000000  0.50000000  0.91326900  1
  C  C191  1  0.00000000  0.50000000  0.41326900  1
  C  C192  1  0.50000000  0.00000000  0.41326900  1
  C  C193  1  0.81106600  0.06056900  0.06956500  1
  C  C194  1  0.85012500  0.05321800  0.09284100  1
  C  C195  1  0.87281500  0.10433500  0.10721600  1
  C  C196  1  0.85689100  0.16318800  0.09830600  1
  C  C197  1  0.81898400  0.17090200  0.07472600  1
  C  C198  1  0.79598400  0.11984700  0.06035900  1
  C  C199  1  0.93943100  0.81106700  0.06956500  1
  C  C200  1  0.94678200  0.85012500  0.09284100  1
  C  C201  1  0.89566500  0.87281500  0.10721600  1
  C  C202  1  0.83681200  0.85689200  0.09830600  1
  C  C203  1  0.82909800  0.81898400  0.07472600  1
  C  C204  1  0.88015300  0.79598400  0.06035900  1
  C  C205  1  0.18893300  0.93943100  0.06956500  1
  C  C206  1  0.14987400  0.94678200  0.09284100  1
  C  C207  1  0.12718500  0.89566600  0.10721600  1
  C  C208  1  0.14310800  0.83681300  0.09830600  1
  C  C209  1  0.18101500  0.82909900  0.07472700  1
  C  C210  1  0.20401600  0.88015300  0.06035900  1
  C  C211  1  0.06056900  0.18893400  0.06956500  1
  C  C212  1  0.05321800  0.14987500  0.09284100  1
  C  C213  1  0.10433400  0.12718500  0.10721600  1
  C  C214  1  0.16318700  0.14310800  0.09830600  1
  C  C215  1  0.17090100  0.18101600  0.07472700  1
  C  C216  1  0.11984600  0.20401600  0.06035900  1
  C  C217  1  0.31106700  0.56057000  0.56956500  1
  C  C218  1  0.35012500  0.55321900  0.59284100  1
  C  C219  1  0.37281500  0.60433500  0.60721600  1
  C  C220  1  0.35689200  0.66318800  0.59830600  1
  C  C221  1  0.31898400  0.67090200  0.57472600  1
  C  C222  1  0.29598400  0.61984700  0.56035900  1
  C  C223  1  0.43943100  0.31106700  0.56956500  1
  C  C224  1  0.44678200  0.35012600  0.59284100  1
  C  C225  1  0.39566600  0.37281600  0.60721600  1
  C  C226  1  0.33681300  0.35689200  0.59830600  1
  C  C227  1  0.32909900  0.31898500  0.57472700  1
  C  C228  1  0.38015400  0.29598400  0.56035900  1
  C  C229  1  0.68893400  0.43943100  0.56956500  1
  C  C230  1  0.64987500  0.44678300  0.59284100  1
  C  C231  1  0.62718500  0.39566600  0.60721600  1
  C  C232  1  0.64310800  0.33681300  0.59830600  1
  C  C233  1  0.68101500  0.32909900  0.57472700  1
  C  C234  1  0.70401600  0.38015400  0.56035900  1
  C  C235  1  0.56056900  0.68893400  0.56956500  1
  C  C236  1  0.55321800  0.64987500  0.59284100  1
  C  C237  1  0.60433500  0.62718600  0.60721600  1
  C  C238  1  0.66318800  0.64310900  0.59830600  1
  C  C239  1  0.67090200  0.68101600  0.57472600  1
  C  C240  1  0.61984700  0.70401600  0.56035900  1
  Br  Br1  1  0.88733000  0.23386300  0.11856600  1
  Br  Br2  1  0.76613700  0.88733000  0.11856600  1
  Br  Br3  1  0.11266900  0.76613800  0.11856700  1
  Br  Br4  1  0.23386200  0.11267000  0.11856700  1
  Br  Br5  1  0.38733000  0.73386300  0.61856600  1
  Br  Br6  1  0.26613800  0.38733100  0.61856700  1
  Br  Br7  1  0.61267000  0.26613800  0.61856700  1
  Br  Br8  1  0.73386300  0.61267000  0.61856600  1
  N  N1  1  0.00000000  0.50000000  0.17523100  1
  N  N2  1  0.50000000  0.00000000  0.17523100  1
  N  N3  1  0.50000000  0.00000000  0.67523100  1
  N  N4  1  0.00000000  0.50000000  0.67523100  1
  N  N5  1  0.50000000  0.00000000  0.82297000  1
  N  N6  1  0.00000000  0.50000000  0.82297000  1
  N  N7  1  0.00000000  0.50000000  0.32297000  1
  N  N8  1  0.50000000  0.00000000  0.32297000  1
  O  O1  1  0.00988700  0.91041500  0.02329700  1
  O  O2  1  0.08958500  0.00988800  0.02329700  1
  O  O3  1  0.99011200  0.08958500  0.02329700  1
  O  O4  1  0.91041500  0.99011300  0.02329700  1
  O  O5  1  0.50988800  0.41041500  0.52329700  1
  O  O6  1  0.58958500  0.50988800  0.52329700  1
  O  O7  1  0.49011300  0.58958500  0.52329700  1
  O  O8  1  0.41041500  0.49011300  0.52329700  1
  O  O9  1  0.97728400  0.91286800  0.97569500  1
  O  O10  1  0.08713200  0.97728400  0.97569500  1
  O  O11  1  0.02271600  0.08713200  0.97569500  1
  O  O12  1  0.91286800  0.02271600  0.97569500  1
  O  O13  1  0.47728400  0.41286800  0.47569500  1
  O  O14  1  0.58713200  0.47728400  0.47569500  1
  O  O15  1  0.52271600  0.58713200  0.47569500  1
  O  O16  1  0.41286800  0.52271700  0.47569500  1
  O  O17  1  0.51489000  0.05198900  0.95814300  1
  O  O18  1  0.94801000  0.51489100  0.95814300  1
  O  O19  1  0.48510900  0.94801100  0.95814300  1
  O  O20  1  0.05198900  0.48510900  0.95814300  1
  O  O21  1  0.01489100  0.55199000  0.45814300  1
  O  O22  1  0.44801100  0.01489100  0.45814300  1
  O  O23  1  0.98511000  0.44801100  0.45814300  1
  O  O24  1  0.55198900  0.98511000  0.45814300  1
  O  O25  1  0.58606600  0.05541000  0.00715600  1
  O  O26  1  0.94459000  0.58606600  0.00715600  1
  O  O27  1  0.41393400  0.94459000  0.00715600  1
  O  O28  1  0.05541000  0.41393400  0.00715600  1
  O  O29  1  0.08606600  0.55541000  0.50715600  1
  O  O30  1  0.44459000  0.08606600  0.50715600  1
  O  O31  1  0.91393400  0.44459000  0.50715600  1
  O  O32  1  0.55541000  0.91393400  0.50715600  1
  O  O33  1  0.59082900  0.95316400  0.99107600  1
  O  O34  1  0.04683600  0.59082900  0.99107500  1
  O  O35  1  0.40917000  0.04683600  0.99107600  1
  O  O36  1  0.95316400  0.40917100  0.99107600  1
  O  O37  1  0.09082900  0.45316400  0.49107600  1
  O  O38  1  0.54683600  0.09083000  0.49107600  1
  O  O39  1  0.90917100  0.54683600  0.49107500  1
  O  O40  1  0.45316400  0.90917100  0.49107500  1
  O  O41  1  0.48039100  0.05039900  0.04008900  1
  O  O42  1  0.94960100  0.48039100  0.04008900  1
  O  O43  1  0.51960900  0.94960100  0.04008900  1
  O  O44  1  0.05039900  0.51960900  0.04008900  1
  O  O45  1  0.98039100  0.55039900  0.54008900  1
  O  O46  1  0.44960100  0.98039100  0.54008900  1
  O  O47  1  0.01960900  0.44960100  0.54008900  1
  O  O48  1  0.55039900  0.01960900  0.54008900  1
  O  O49  1  0.93271100  0.41508800  0.17515500  1
  O  O50  1  0.58491300  0.93271100  0.17515500  1
  O  O51  1  0.06729000  0.58491200  0.17515500  1
  O  O52  1  0.41508800  0.06729000  0.17515500  1
  O  O53  1  0.43271000  0.91508800  0.67515500  1
  O  O54  1  0.08491200  0.43271100  0.67515500  1
  O  O55  1  0.56728900  0.08491200  0.67515500  1
  O  O56  1  0.91508700  0.56728900  0.67515500  1
  O  O57  1  0.57705400  0.07616800  0.82303200  1
  O  O58  1  0.92383200  0.57705400  0.82303200  1
  O  O59  1  0.42294500  0.92383200  0.82303200  1
  O  O60  1  0.07616800  0.42294600  0.82303200  1
  O  O61  1  0.07705500  0.57616800  0.32303200  1
  O  O62  1  0.42383200  0.07705500  0.32303200  1
  O  O63  1  0.92294600  0.42383200  0.32303200  1
  O  O64  1  0.57616800  0.92294600  0.32303200  1
