# generated using pymatgen
data_V4H38C65O21
_symmetry_space_group_name_H-M   'P 1'
_cell_length_a   6.32774000
_cell_length_b   21.75902900
_cell_length_c   22.86133400
_cell_angle_alpha   113.40601000
_cell_angle_beta   90.68747000
_cell_angle_gamma   90.71777800
_symmetry_Int_Tables_number   1
_chemical_formula_structural   V4H38C65O21
_chemical_formula_sum   'V4 H38 C65 O21'
_cell_volume   2887.94005736
_cell_formula_units_Z   1
loop_
 _symmetry_equiv_pos_site_id
 _symmetry_equiv_pos_as_xyz
  1  'x, y, z'
loop_
 _atom_site_type_symbol
 _atom_site_label
 _atom_site_symmetry_multiplicity
 _atom_site_fract_x
 _atom_site_fract_y
 _atom_site_fract_z
 _atom_site_occupancy
  V  V1  1  0.01802800  0.49277400  0.49966500  1
  V  V2  1  0.51915700  0.50874300  0.50284000  1
  V  V3  1  0.79382600  0.01062900  0.00276900  1
  V  V4  1  0.29267500  0.99462400  0.99958700  1
  H  H1  1  0.73844300  0.96835400  0.16703800  1
  H  H2  1  0.70860600  0.90100900  0.23000000  1
  H  H3  1  0.20457200  0.77681000  0.12298600  1
  H  H4  1  0.23588100  0.84605000  0.06124300  1
  H  H5  1  0.23757700  0.74979300  0.19578100  1
  H  H6  1  0.19780700  0.68047400  0.25587500  1
  H  H7  1  0.57424000  0.75357600  0.30662200  1
  H  H8  1  0.61400800  0.82288800  0.24652600  1
  H  H9  1  0.60720300  0.72656100  0.37941400  1
  H  H10  1  0.57588400  0.65732900  0.44116600  1
  H  H11  1  0.07333100  0.53502000  0.33538700  1
  H  H12  1  0.10319700  0.60236100  0.27241700  1
  H  H13  1  0.07526000  0.68474400  0.63358500  1
  H  H14  1  0.54079500  0.61518500  0.70295700  1
  H  H15  1  0.24570200  0.78844300  0.69886000  1
  H  H16  1  0.56631100  0.71488800  0.80358200  1
  H  H17  1  0.27116000  0.88816300  0.79946700  1
  H  H18  1  0.63551700  0.33965500  0.35247800  1
  H  H19  1  0.98190000  0.36080600  0.31896100  1
  H  H20  1  0.81847500  0.24409500  0.28340100  1
  H  H21  1  0.99339900  0.25931000  0.21903700  1
  H  H22  1  0.82999500  0.14260600  0.18346900  1
  H  H23  1  0.17637600  0.16375200  0.14995000  1
  H  H24  1  0.22652000  0.13991800  0.94063400  1
  H  H25  1  0.17975600  0.20774000  0.87850800  1
  H  H26  1  0.72797400  0.12018900  0.77187900  1
  H  H27  1  0.76928000  0.05141100  0.83354600  1
  H  H28  1  0.61129300  0.14885700  0.70624100  1
  H  H29  1  0.57312700  0.21915500  0.64710400  1
  H  H30  1  0.20117700  0.35472500  0.79629400  1
  H  H31  1  0.23933900  0.28442700  0.85543100  1
  H  H32  1  0.08441500  0.38336700  0.73065000  1
  H  H33  1  0.04292200  0.45209400  0.66894300  1
  H  H34  1  0.58569200  0.36360800  0.56184500  1
  H  H35  1  0.63263800  0.29583800  0.62401300  1
  H  H36  1  0.88239300  0.82797700  0.95757900  1
  H  H37  1  0.91898600  0.75300500  0.88615400  1
  H  H38  1  0.67912400  0.76270300  0.93082000  1
  C  C1  1  0.30659000  0.41692000  0.40022400  1
  C  C2  1  0.28264900  0.45042500  0.57257400  1
  C  C3  1  0.78470100  0.58519500  0.60214800  1
  C  C4  1  0.81618400  0.55192000  0.43029000  1
  C  C5  1  0.84180600  0.92645400  0.15774900  1
  C  C6  1  0.82370900  0.88781900  0.19276200  1
  C  C7  1  0.95327000  0.83368600  0.18068800  1
  C  C8  1  0.10361400  0.81940800  0.13381200  1
  C  C9  1  0.12114400  0.85820600  0.09865400  1
  C  C10  1  0.98912000  0.91156200  0.11046000  1
  C  C11  1  0.09036400  0.75041900  0.21935300  1
  C  C12  1  0.06731700  0.71085600  0.25344600  1
  C  C13  1  0.88258400  0.71179800  0.28544400  1
  C  C14  1  0.72146000  0.75295200  0.28305400  1
  C  C15  1  0.74450400  0.79251000  0.24895800  1
  C  C16  1  0.92923600  0.79157200  0.21696300  1
  C  C17  1  0.70815800  0.68396200  0.36859000  1
  C  C18  1  0.69062600  0.64517000  0.40375600  1
  C  C19  1  0.82265500  0.59181500  0.39195800  1
  C  C20  1  0.96996800  0.57692000  0.34466900  1
  C  C21  1  0.98807900  0.61555000  0.30965100  1
  C  C22  1  0.85852300  0.66968300  0.32171900  1
  C  C23  1  0.80712000  0.64365100  0.66227100  1
  C  C24  1  0.00487500  0.85969000  0.84016600  1
  C  C25  1  0.13355700  0.79507600  0.73609700  1
  C  C26  1  0.14742100  0.85107300  0.79246800  1
  C  C27  1  0.84795100  0.81215900  0.83141500  1
  C  C28  1  0.83456800  0.75596100  0.77504400  1
  C  C29  1  0.97746900  0.74736000  0.72739600  1
  C  C30  1  0.96412400  0.69116200  0.67102400  1
  C  C31  1  0.66456700  0.65226800  0.70996700  1
  C  C32  1  0.67846000  0.70825300  0.76634500  1
  C  C33  1  0.30827700  0.35634000  0.34178500  1
  C  C34  1  0.50361900  0.14707200  0.16064400  1
  C  C35  1  0.67981000  0.22730300  0.25277300  1
  C  C36  1  0.68524400  0.17016700  0.19728400  1
  C  C37  1  0.31838100  0.18172100  0.17885100  1
  C  C38  1  0.31562800  0.24033200  0.23273600  1
  C  C39  1  0.49625100  0.26307200  0.26969900  1
  C  C40  1  0.49350500  0.32168600  0.32358100  1
  C  C41  1  0.12664800  0.33324300  0.30514800  1
  C  C42  1  0.13206900  0.27610200  0.24966300  1
  C  C43  1  0.33567900  0.13540000  0.90319000  1
  C  C44  1  0.31104200  0.17413600  0.86845600  1
  C  C45  1  0.45116000  0.16904700  0.82092300  1
  C  C46  1  0.61462100  0.12419100  0.80805100  1
  C  C47  1  0.63916000  0.08555400  0.84301100  1
  C  C48  1  0.50013400  0.09140200  0.89076500  1
  C  C49  1  0.52301100  0.19438300  0.72679700  1
  C  C50  1  0.50153700  0.23446000  0.69321800  1
  C  C51  1  0.38477200  0.29213100  0.71751500  1
  C  C52  1  0.28946100  0.30919900  0.77573800  1
  C  C53  1  0.31093100  0.26912200  0.80931700  1
  C  C54  1  0.42768500  0.21144900  0.78501900  1
  C  C55  1  0.19773500  0.37936100  0.69446900  1
  C  C56  1  0.17308700  0.41796800  0.65948500  1
  C  C57  1  0.31204900  0.41210600  0.61171200  1
  C  C58  1  0.47657200  0.36813400  0.59930000  1
  C  C59  1  0.50131600  0.32942800  0.63406000  1
  C  C60  1  0.36123900  0.33452100  0.68160300  1
  C  C61  1  0.52939600  0.05304500  0.92987500  1
  C  C62  1  0.50531300  0.08649500  0.10220000  1
  C  C63  1  0.99559400  0.95145900  0.07213000  1
  C  C64  1  0.02719700  0.91816600  0.90027600  1
  C  C65  1  0.80186600  0.78951400  0.91527200  1
  O  O1  1  0.39520300  0.43504700  0.52148400  1
  O  O2  1  0.18918100  0.41525300  0.44753500  1
  O  O3  1  0.97674000  0.51171500  0.42308700  1
  O  O4  1  0.10958800  0.48396000  0.57882000  1
  O  O5  1  0.90303400  0.58058700  0.55401500  1
  O  O6  1  0.47518500  0.45666700  0.41084800  1
  O  O7  1  0.29536300  0.55117900  0.51098100  1
  O  O8  1  0.61091100  0.54994700  0.59320700  1
  O  O9  1  0.69824800  0.57242400  0.48214800  1
  O  O10  1  0.79028000  0.44979300  0.48926000  1
  O  O11  1  0.33671000  0.04675200  0.09156800  1
  O  O12  1  0.70236400  0.01946400  0.92361600  1
  O  O13  1  0.90873600  0.92280900  0.94839600  1
  O  O14  1  0.62274000  0.08816700  0.05489800  1
  O  O15  1  0.83504700  0.99166700  0.07933800  1
  O  O16  1  0.41678100  0.06840900  0.98095100  1
  O  O17  1  0.51642000  0.95225100  0.99143600  1
  O  O18  1  0.11350600  0.93095000  0.02026700  1
  O  O19  1  0.20093000  0.95343700  0.90921800  1
  O  O20  1  0.02160300  0.05359500  0.01318100  1
  O  O21  1  0.70756200  0.82025500  0.87873200  1
