# generated using pymatgen
data_Zn2H13C29(NO3)3
_symmetry_space_group_name_H-M   'P 1'
_cell_length_a   14.53287200
_cell_length_b   11.00023400
_cell_length_c   9.84136900
_cell_angle_alpha   90.00017700
_cell_angle_beta   89.99661900
_cell_angle_gamma   90.00091200
_symmetry_Int_Tables_number   1
_chemical_formula_structural   Zn2H13C29(NO3)3
_chemical_formula_sum   'Zn2 H13 C29 N3 O9'
_cell_volume   1573.29038032
_cell_formula_units_Z   1
loop_
 _symmetry_equiv_pos_site_id
 _symmetry_equiv_pos_as_xyz
  1  'x, y, z'
loop_
 _atom_site_type_symbol
 _atom_site_label
 _atom_site_symmetry_multiplicity
 _atom_site_fract_x
 _atom_site_fract_y
 _atom_site_fract_z
 _atom_site_occupancy
  Zn  Zn1  1  0.50457300  0.51051400  0.65506000  1
  Zn  Zn2  1  0.50373100  0.50609200  0.34577700  1
  H  H1  1  0.53621200  0.11904400  0.29510800  1
  H  H2  1  0.54168300  0.19580500  0.78236400  1
  H  H3  1  0.47376800  0.09313200  0.97060700  1
  H  H4  1  0.39016000  0.90157300  0.93686500  1
  H  H5  1  0.38743200  0.80732000  0.71602300  1
  H  H6  1  0.52906000  0.89962900  0.28975000  1
  H  H7  1  0.61118900  0.62439100  0.13276900  1
  H  H8  1  0.38469500  0.33901200  0.24220000  1
  H  H9  1  0.27908000  0.21678100  0.11870500  1
  H  H10  1  0.27901800  0.22208700  0.87004900  1
  H  H11  1  0.38306200  0.34643400  0.75275700  1
  H  H12  1  0.77302400  0.69240500  0.87172800  1
  H  H13  1  0.75243200  0.54374600  0.90207000  1
  C  C1  1  0.51282700  0.26914700  0.50522100  1
  C  C2  1  0.32420800  0.50261600  0.50125200  1
  C  C3  1  0.49550800  0.74669300  0.49702000  1
  C  C4  1  0.68380300  0.51746100  0.49930600  1
  C  C5  1  0.22547000  0.50379200  0.50158400  1
  C  C6  1  0.14257400  0.50619900  0.50129800  1
  C  C7  1  0.04545700  0.50993400  0.50056200  1
  C  C8  1  0.96257900  0.51319600  0.49984100  1
  C  C9  1  0.86545100  0.51640000  0.49912900  1
  C  C10  1  0.78254300  0.51790600  0.49888700  1
  C  C11  1  0.50358900  0.11464900  0.75981500  1
  C  C12  1  0.46828600  0.05396600  0.87021100  1
  C  C13  1  0.42319600  0.94611300  0.85196900  1
  C  C14  1  0.42489100  0.89141100  0.72672900  1
  C  C15  1  0.47048900  0.94534100  0.61784600  1
  C  C16  1  0.49610100  0.06655500  0.62900800  1
  C  C17  1  0.51363100  0.13376700  0.51001500  1
  C  C18  1  0.52129100  0.07115200  0.38838700  1
  C  C19  1  0.51496300  0.94599700  0.38428500  1
  C  C20  1  0.48978100  0.88129000  0.49856000  1
  C  C21  1  0.38466600  0.35021600  0.13495500  1
  C  C22  1  0.32445000  0.27801700  0.06492200  1
  C  C23  1  0.32440800  0.28116800  0.92672500  1
  C  C24  1  0.38446600  0.35619900  0.85945100  1
  C  C25  1  0.44415200  0.43447500  0.92768600  1
  C  C26  1  0.44375400  0.43026100  0.06921800  1
  C  C27  1  0.56288000  0.57020500  0.07535800  1
  C  C28  1  0.56486400  0.57443900  0.93480100  1
  C  C29  1  0.63966600  0.64576100  0.87415200  1
  N  N1  1  0.50179300  0.50092400  0.14200700  1
  N  N2  1  0.50332300  0.50980100  0.85937500  1
  N  N3  1  0.73098600  0.63197600  0.92501200  1
  O  O1  1  0.50962300  0.32966000  0.61863000  1
  O  O2  1  0.51039300  0.32546300  0.38736800  1
  O  O3  1  0.36748300  0.50690400  0.61738100  1
  O  O4  1  0.36684700  0.50143600  0.38457400  1
  O  O5  1  0.50020700  0.69074400  0.61482400  1
  O  O6  1  0.49877300  0.68806600  0.37960800  1
  O  O7  1  0.64155700  0.51706000  0.61737400  1
  O  O8  1  0.64085900  0.51479000  0.38178200  1
  O  O9  1  0.62355300  0.72588400  0.79245600  1
