# generated using pymatgen
data_Fe2H15C37NO16
_symmetry_space_group_name_H-M   'P 1'
_cell_length_a   15.28103300
_cell_length_b   9.30461100
_cell_length_c   18.47519300
_cell_angle_alpha   90.12989500
_cell_angle_beta   103.83377800
_cell_angle_gamma   107.79642300
_symmetry_Int_Tables_number   1
_chemical_formula_structural   Fe2H15C37NO16
_chemical_formula_sum   'Fe2 H15 C37 N1 O16'
_cell_volume   2420.54889668
_cell_formula_units_Z   1
loop_
 _symmetry_equiv_pos_site_id
 _symmetry_equiv_pos_as_xyz
  1  'x, y, z'
loop_
 _atom_site_type_symbol
 _atom_site_label
 _atom_site_symmetry_multiplicity
 _atom_site_fract_x
 _atom_site_fract_y
 _atom_site_fract_z
 _atom_site_occupancy
  Fe  Fe1  1  0.48601700  0.99527300  0.83627600  1
  Fe  Fe2  1  0.51095000  0.99624300  0.16476600  1
  H  H1  1  0.81290000  0.11182300  0.17817500  1
  H  H2  1  0.96486300  0.13184400  0.15136900  1
  H  H3  1  0.82513800  0.98725400  0.92316500  1
  H  H4  1  0.05829300  0.14087500  0.05580400  1
  H  H5  1  0.93852600  0.87554300  0.93914400  1
  H  H6  1  0.03785200  0.91278800  0.84367400  1
  H  H7  1  0.18964600  0.92317200  0.81972700  1
  H  H8  1  0.48893900  0.73826000  0.62699600  1
  H  H9  1  0.47034100  0.27442600  0.59115000  1
  H  H10  1  0.51244200  0.25476600  0.37584300  1
  H  H11  1  0.53201700  0.71914600  0.41199900  1
  H  H12  1  0.49188000  0.45332500  0.80766600  1
  H  H13  1  0.51422000  0.54167600  0.19603600  1
  H  H14  1  0.46352500  0.63243700  0.50000300  1
  H  H15  1  0.53820800  0.36078700  0.50285300  1
  C  C1  1  0.81483000  0.08591300  0.12163000  1
  C  C2  1  0.90049300  0.09586400  0.10676000  1
  C  C3  1  0.90355600  0.05180200  0.03643100  1
  C  C4  1  0.82130900  0.00960500  0.97945400  1
  C  C5  1  0.73516800  0.00356000  0.99325800  1
  C  C6  1  0.73155200  0.03515900  0.06593400  1
  C  C7  1  0.99520400  0.05587600  0.02317100  1
  C  C8  1  0.00185600  0.95720900  0.97353200  1
  C  C9  1  0.09995100  0.93347500  0.88997000  1
  C  C10  1  0.18546600  0.93822800  0.87669300  1
  C  C11  1  0.26657100  0.97228400  0.93456400  1
  C  C12  1  0.26087200  0.99141900  0.00807600  1
  C  C13  1  0.17265800  0.97950500  0.02098200  1
  C  C14  1  0.09394600  0.95963900  0.96161200  1
  C  C15  1  0.47705500  0.20465000  0.73064800  1
  C  C16  1  0.35691000  0.99628400  0.91475200  1
  C  C17  1  0.65223300  0.97792800  0.92909500  1
  C  C18  1  0.48869300  0.73055600  0.77379200  1
  C  C19  1  0.51517800  0.26354000  0.22947700  1
  C  C20  1  0.34478000  0.01434000  0.07208600  1
  C  C21  1  0.64151800  0.00401600  0.08704700  1
  C  C22  1  0.52600900  0.78937700  0.27233500  1
  C  C23  1  0.48923900  0.60934900  0.72284500  1
  C  C24  1  0.48751100  0.62975200  0.64835400  1
  C  C25  1  0.48509300  0.51207800  0.60088100  1
  C  C26  1  0.47879700  0.37122100  0.62747500  1
  C  C27  1  0.48334600  0.35228300  0.70194300  1
  C  C28  1  0.49035100  0.47145900  0.74970800  1
  C  C29  1  0.48632500  0.53897900  0.52252000  1
  C  C30  1  0.51537300  0.45420500  0.48033000  1
  C  C31  1  0.51469200  0.36365600  0.35464400  1
  C  C32  1  0.51458900  0.38472200  0.28047000  1
  C  C33  1  0.51500400  0.52337300  0.25387100  1
  C  C34  1  0.52119100  0.64232500  0.30146800  1
  C  C35  1  0.52428000  0.62272800  0.37571300  1
  C  C36  1  0.51718000  0.48145500  0.40210400  1
  C  C37  1  0.15901700  0.97019100  0.09539200  1
  N  N1  1  0.14801000  0.96256800  0.15526200  1
  O  O1  1  0.52493900  0.19837700  0.79906100  1
  O  O2  1  0.42859500  0.11829600  0.94276800  1
  O  O3  1  0.41743800  0.08125200  0.69111300  1
  O  O4  1  0.36164200  0.91018600  0.86016900  1
  O  O5  1  0.57531400  0.00467400  0.93663100  1
  O  O6  1  0.66010500  0.95042700  0.86166200  1
  O  O7  1  0.48623200  0.86284400  0.75044600  1
  O  O8  1  0.48901300  0.70595900  0.84376100  1
  O  O9  1  0.50743900  0.12618000  0.25031300  1
  O  O10  1  0.52343000  0.29245600  0.16149200  1
  O  O11  1  0.41907900  0.97872400  0.06473400  1
  O  O12  1  0.34406700  0.06258200  0.13859300  1
  O  O13  1  0.58145300  0.91450900  0.31269900  1
  O  O14  1  0.63358600  0.09110000  0.13953600  1
  O  O15  1  0.47913500  0.79340000  0.20332100  1
  O  O16  1  0.57345900  0.87619100  0.06182500  1
