# generated using pymatgen
data_Cu3H20(C16O7)2
_symmetry_space_group_name_H-M   'P 1'
_cell_length_a   30.32870300
_cell_length_b   21.71741000
_cell_length_c   21.62542300
_cell_angle_alpha   90.00000000
_cell_angle_beta   134.52553300
_cell_angle_gamma   90.00000000
_symmetry_Int_Tables_number   1
_chemical_formula_structural   Cu3H20(C16O7)2
_chemical_formula_sum   'Cu12 H80 C128 O56'
_cell_volume   10154.96102067
_cell_formula_units_Z   4
loop_
 _symmetry_equiv_pos_site_id
 _symmetry_equiv_pos_as_xyz
  1  'x, y, z'
loop_
 _atom_site_type_symbol
 _atom_site_label
 _atom_site_symmetry_multiplicity
 _atom_site_fract_x
 _atom_site_fract_y
 _atom_site_fract_z
 _atom_site_occupancy
  Cu  Cu1  1  0.99796000  0.50087400  0.05739100  1
  Cu  Cu2  1  0.49796000  0.00087400  0.05739100  1
  Cu  Cu3  1  0.00008800  0.49910400  0.93628900  1
  Cu  Cu4  1  0.50008800  0.99910400  0.93628900  1
  Cu  Cu5  1  0.93663400  0.99637100  0.93970800  1
  Cu  Cu6  1  0.43663400  0.49637100  0.93970800  1
  Cu  Cu7  1  0.05969500  0.00347500  0.06027800  1
  Cu  Cu8  1  0.55969500  0.50347500  0.06027800  1
  Cu  Cu9  1  0.49680600  0.55766800  0.49598500  1
  Cu  Cu10  1  0.50079300  0.43825100  0.50484200  1
  Cu  Cu11  1  0.99680600  0.05766800  0.49598500  1
  Cu  Cu12  1  0.00079300  0.93825100  0.50484200  1
  H  H1  1  0.00649100  0.69483900  0.90228100  1
  H  H2  1  0.98542400  0.30224200  0.88770400  1
  H  H3  1  0.50649100  0.19483900  0.90228100  1
  H  H4  1  0.48542400  0.80224200  0.88770400  1
  H  H5  1  0.00785800  0.80788300  0.90455700  1
  H  H6  1  0.98329700  0.18939400  0.89020400  1
  H  H7  1  0.50785800  0.30788300  0.90455700  1
  H  H8  1  0.48329700  0.68939400  0.89020400  1
  H  H9  1  0.05181000  0.80481200  0.18675100  1
  H  H10  1  0.03818600  0.19574000  0.18009700  1
  H  H11  1  0.55181000  0.30481200  0.18675100  1
  H  H12  1  0.53818600  0.69574000  0.18009700  1
  H  H13  1  0.96095200  0.69494400  0.09614600  1
  H  H14  1  0.96000600  0.31479300  0.10418500  1
  H  H15  1  0.46095200  0.19494400  0.09614600  1
  H  H16  1  0.46000600  0.81479300  0.10418500  1
  H  H17  1  0.04780100  0.69268000  0.18268900  1
  H  H18  1  0.04625800  0.30750800  0.18183300  1
  H  H19  1  0.54780100  0.19268000  0.18268900  1
  H  H20  1  0.54625800  0.80750800  0.18183300  1
  H  H21  1  0.19557800  0.43649600  0.11341400  1
  H  H22  1  0.69557800  0.93649600  0.11341400  1
  H  H23  1  0.30906500  0.43431600  0.23005800  1
  H  H24  1  0.80906500  0.93431600  0.23005800  1
  H  H25  1  0.30307000  0.61132300  0.38899100  1
  H  H26  1  0.30274700  0.54156500  0.44064200  1
  H  H27  1  0.80307000  0.11132300  0.38899100  1
  H  H28  1  0.80274700  0.04156500  0.44064200  1
  H  H29  1  0.19068000  0.61009800  0.27589200  1
  H  H30  1  0.19028400  0.54061700  0.32786000  1
  H  H31  1  0.69068000  0.11009800  0.27589200  1
  H  H32  1  0.69028400  0.04061700  0.32786000  1
  H  H33  1  0.80475200  0.55663600  0.71838500  1
  H  H34  1  0.30475200  0.05663600  0.71838500  1
  H  H35  1  0.69113100  0.55685300  0.60670800  1
  H  H36  1  0.19113100  0.05685300  0.60670800  1
  H  H37  1  0.69302100  0.39200000  0.78607000  1
  H  H38  1  0.68991200  0.46559200  0.82931900  1
  H  H39  1  0.19302100  0.89200000  0.78607000  1
  H  H40  1  0.18991200  0.96559200  0.82931900  1
  H  H41  1  0.80539500  0.39528400  0.89859900  1
  H  H42  1  0.80230400  0.46853100  0.94238400  1
  H  H43  1  0.30539500  0.89528400  0.89859900  1
  H  H44  1  0.30230400  0.96853100  0.94238400  1
  H  H45  1  0.07677600  0.06557000  0.88247600  1
  H  H46  1  0.57677600  0.56557000  0.88247600  1
  H  H47  1  0.57579900  0.56592300  0.76801200  1
  H  H48  1  0.07579900  0.06592300  0.76801200  1
  H  H49  1  0.41508200  0.38514600  0.61293700  1
  H  H50  1  0.36140300  0.45358000  0.55753400  1
  H  H51  1  0.91508200  0.88514600  0.61293700  1
  H  H52  1  0.86140300  0.95358000  0.55753400  1
  H  H53  1  0.91377900  0.88814200  0.72399300  1
  H  H54  1  0.85954500  0.95617500  0.66813000  1
  H  H55  1  0.41377900  0.38814200  0.72399300  1
  H  H56  1  0.35954500  0.45617500  0.66813000  1
  H  H57  1  0.09257600  0.95702300  0.28688500  1
  H  H58  1  0.59257600  0.45702300  0.28688500  1
  H  H59  1  0.59215700  0.45533000  0.40009700  1
  H  H60  1  0.09215700  0.95533000  0.40009700  1
  H  H61  1  0.38393100  0.57966300  0.19409600  1
  H  H62  1  0.35441800  0.49793800  0.16762900  1
  H  H63  1  0.88393100  0.07966300  0.19409600  1
  H  H64  1  0.85441800  0.99793800  0.16762900  1
  H  H65  1  0.88292600  0.07638600  0.08027700  1
  H  H66  1  0.85269300  0.99514900  0.05345300  1
  H  H67  1  0.38292600  0.57638600  0.08027700  1
  H  H68  1  0.35269300  0.49514900  0.05345300  1
  H  H69  1  0.86840200  0.87474100  0.05803800  1
  H  H70  1  0.81309100  0.81368100  0.98958100  1
  H  H71  1  0.82434800  0.87365700  0.94350300  1
  H  H72  1  0.85503900  0.17898200  0.08807200  1
  H  H73  1  0.79980600  0.16919900  0.97136900  1
  H  H74  1  0.81081100  0.24410600  0.01727400  1
  H  H75  1  0.36840200  0.37474100  0.05803800  1
  H  H76  1  0.31309100  0.31368100  0.98958100  1
  H  H77  1  0.32434800  0.37365700  0.94350300  1
  H  H78  1  0.35503900  0.67898200  0.08807200  1
  H  H79  1  0.29980600  0.66919900  0.97136900  1
  H  H80  1  0.31081100  0.74410600  0.01727400  1
  C  C1  1  0.11760400  0.49615500  0.11545700  1
  C  C2  1  0.61760400  0.99615500  0.11545700  1
  C  C3  1  0.00311200  0.61822700  0.99906300  1
  C  C4  1  0.99459700  0.38179800  0.99421300  1
  C  C5  1  0.50311200  0.11822700  0.99906300  1
  C  C6  1  0.49459700  0.88179800  0.99421300  1
  C  C7  1  0.88038600  0.50435900  0.87824200  1
  C  C8  1  0.38038600  0.00435900  0.87824200  1
  C  C9  1  0.00673100  0.71955700  0.05514000  1
  C  C10  1  0.99422600  0.28201500  0.04929100  1
  C  C11  1  0.50673100  0.21955700  0.05514000  1
  C  C12  1  0.49422600  0.78201500  0.04929100  1
  C  C13  1  0.00592600  0.68562700  0.00080900  1
  C  C14  1  0.99218100  0.31437600  0.99284600  1
  C  C15  1  0.50592600  0.18562700  0.00080900  1
  C  C16  1  0.49218100  0.81437600  0.99284600  1
  C  C17  1  0.00724600  0.71861900  0.94690400  1
  C  C18  1  0.98720700  0.27982400  0.93402700  1
  C  C19  1  0.50724600  0.21861900  0.94690400  1
  C  C20  1  0.48720700  0.77982400  0.93402700  1
  C  C21  1  0.00825600  0.78296100  0.94821300  1
  C  C22  1  0.98547600  0.21558500  0.93480100  1
  C  C23  1  0.50825600  0.28296100  0.94821300  1
  C  C24  1  0.48547600  0.71558500  0.93480100  1
  C  C25  1  0.00869800  0.81509600  0.00404800  1
  C  C26  1  0.98764600  0.18494000  0.99318700  1
  C  C27  1  0.50869800  0.31509600  0.00404800  1
  C  C28  1  0.48764600  0.68494000  0.99318700  1
  C  C29  1  0.00836700  0.78077800  0.05674500  1
  C  C30  1  0.99064400  0.22082700  0.04822000  1
  C  C31  1  0.50836700  0.28077800  0.05674500  1
  C  C32  1  0.49064400  0.72082700  0.04822000  1
  C  C33  1  0.00807200  0.78604800  0.12471600  1
  C  C34  1  0.99539800  0.21841300  0.12130400  1
  C  C35  1  0.50807200  0.28604800  0.12471600  1
  C  C36  1  0.49539800  0.71841300  0.12130400  1
  C  C37  1  0.00512900  0.71418100  0.12219600  1
  C  C38  1  0.99991900  0.29009800  0.12293300  1
  C  C39  1  0.50512900  0.21418100  0.12219600  1
  C  C40  1  0.49991900  0.79009800  0.12293300  1
  C  C41  1  0.21805400  0.52406600  0.26048500  1
  C  C42  1  0.71805400  0.02406600  0.26048500  1
  C  C43  1  0.18507500  0.49382400  0.18328400  1
  C  C44  1  0.68507500  0.99382400  0.18328400  1
  C  C45  1  0.21898800  0.46158500  0.17271100  1
  C  C46  1  0.71898800  0.96158500  0.17271100  1
  C  C47  1  0.28348100  0.45995100  0.23925200  1
  C  C48  1  0.78348100  0.95995100  0.23925200  1
  C  C49  1  0.31478000  0.49287500  0.31532900  1
  C  C50  1  0.81478000  0.99287500  0.31532900  1
  C  C51  1  0.27933600  0.52498600  0.32186800  1
  C  C52  1  0.77933600  0.02498600  0.32186800  1
  C  C53  1  0.28319200  0.56559800  0.38063000  1
  C  C54  1  0.78319200  0.06559800  0.38063000  1
  C  C55  1  0.21102200  0.56482900  0.30813600  1
  C  C56  1  0.71102200  0.06482900  0.30813600  1
  C  C57  1  0.77849500  0.47731600  0.82221400  1
  C  C58  1  0.27849500  0.97731600  0.82221400  1
  C  C59  1  0.81282600  0.50522600  0.81065100  1
  C  C60  1  0.31282600  0.00522600  0.81065100  1
  C  C61  1  0.78021200  0.53362200  0.73115100  1
  C  C62  1  0.28021200  0.03362200  0.73115100  1
  C  C63  1  0.71562900  0.53406000  0.66786500  1
  C  C64  1  0.21562900  0.03406000  0.66786500  1
  C  C65  1  0.68297400  0.50362800  0.68183800  1
  C  C66  1  0.18297400  0.00362800  0.68183800  1
  C  C67  1  0.71721300  0.47520600  0.76051900  1
  C  C68  1  0.21721300  0.97520600  0.76051900  1
  C  C69  1  0.71162900  0.43884000  0.81277400  1
  C  C70  1  0.21162900  0.93884000  0.81277400  1
  C  C71  1  0.78377100  0.44092100  0.88520300  1
  C  C72  1  0.28377100  0.94092100  0.88520300  1
  C  C73  1  0.99768600  0.00448900  0.88094100  1
  C  C74  1  0.49768600  0.50448900  0.88094100  1
  C  C75  1  0.00522700  0.88212000  0.00274200  1
  C  C76  1  0.99103800  0.11779700  0.99892800  1
  C  C77  1  0.50522700  0.38212000  0.00274200  1
  C  C78  1  0.49103800  0.61779700  0.99892800  1
  C  C79  1  0.99882800  0.99372500  0.11914900  1
  C  C80  1  0.49882800  0.49372500  0.11914900  1
  C  C81  1  0.49959300  0.49311900  0.38463500  1
  C  C82  1  0.99959300  0.99311900  0.38463500  1
  C  C83  1  0.38219500  0.49430800  0.38423800  1
  C  C84  1  0.88219500  0.99430800  0.38423800  1
  C  C85  1  0.49781200  0.50271900  0.61607200  1
  C  C86  1  0.99781200  0.00271900  0.61607200  1
  C  C87  1  0.61545600  0.50170000  0.61572200  1
  C  C88  1  0.11545600  0.00170000  0.61572200  1
  C  C89  1  0.95464700  0.97490100  0.73698100  1
  C  C90  1  0.45464700  0.47490100  0.73698100  1
  C  C91  1  0.99753100  0.00663400  0.81323600  1
  C  C92  1  0.49753100  0.50663400  0.81323600  1
  C  C93  1  0.04182000  0.03941300  0.82387100  1
  C  C94  1  0.54182000  0.53941300  0.82387100  1
  C  C95  1  0.54109300  0.53987400  0.75856800  1
  C  C96  1  0.04109300  0.03987400  0.75856800  1
  C  C97  1  0.49790700  0.50521900  0.68369000  1
  C  C98  1  0.99790700  0.00521900  0.68369000  1
  C  C99  1  0.45580600  0.47296200  0.67682300  1
  C  C100  1  0.95580600  0.97296200  0.67682300  1
  C  C101  1  0.40206700  0.43087700  0.61887100  1
  C  C102  1  0.90206700  0.93087700  0.61887100  1
  C  C103  1  0.90100700  0.93275200  0.68997700  1
  C  C104  1  0.40100700  0.43275200  0.68997700  1
  C  C105  1  0.94899300  0.00717600  0.17210100  1
  C  C106  1  0.44899300  0.50717600  0.17210100  1
  C  C107  1  0.99943200  0.99049300  0.18724900  1
  C  C108  1  0.49943200  0.49049300  0.18724900  1
  C  C109  1  0.05151400  0.97150500  0.27099400  1
  C  C110  1  0.55151400  0.47150500  0.27099400  1
  C  C111  1  0.55124900  0.47020700  0.33530600  1
  C  C112  1  0.05124900  0.97020700  0.33530600  1
  C  C113  1  0.49995600  0.49054500  0.31757100  1
  C  C114  1  0.99995600  0.99054500  0.31757100  1
  C  C115  1  0.44989900  0.50897300  0.23426000  1
  C  C116  1  0.94989900  0.00897300  0.23426000  1
  C  C117  1  0.38572100  0.53225400  0.17691500  1
  C  C118  1  0.88572100  0.03225400  0.17691500  1
  C  C119  1  0.88474000  0.03031600  0.10378900  1
  C  C120  1  0.38474000  0.53031600  0.10378900  1
  C  C121  1  0.89677100  0.80733100  0.02016600  1
  C  C122  1  0.84747900  0.84473400  0.00161900  1
  C  C123  1  0.88343100  0.21515800  0.02876100  1
  C  C124  1  0.83413900  0.20083000  0.02616700  1
  C  C125  1  0.39677100  0.30733100  0.02016600  1
  C  C126  1  0.34747900  0.34473400  0.00161900  1
  C  C127  1  0.38343100  0.71515800  0.02876100  1
  C  C128  1  0.33413900  0.70083000  0.02616700  1
  O  O1  1  0.08797800  0.49787900  0.13923400  1
  O  O2  1  0.58797800  0.99787900  0.13923400  1
  O  O3  1  0.08953300  0.49138000  0.03424100  1
  O  O4  1  0.58953300  0.99138000  0.03424100  1
  O  O5  1  0.00113900  0.59024500  0.05081900  1
  O  O6  1  0.99958000  0.41121900  0.05194000  1
  O  O7  1  0.50113900  0.09024500  0.05081900  1
  O  O8  1  0.49958000  0.91121900  0.05194000  1
  O  O9  1  0.00776700  0.58840800  0.95114900  1
  O  O10  1  0.99660700  0.40974000  0.94239200  1
  O  O11  1  0.50776700  0.08840800  0.95114900  1
  O  O12  1  0.49660700  0.90974000  0.94239200  1
  O  O13  1  0.90820800  0.49916100  0.95915900  1
  O  O14  1  0.40820800  0.99916100  0.95915900  1
  O  O15  1  0.91008900  0.50262000  0.85464500  1
  O  O16  1  0.41008900  0.00262000  0.85464500  1
  O  O17  1  0.94446600  0.00020100  0.85750200  1
  O  O18  1  0.44446600  0.50020100  0.85750200  1
  O  O19  1  0.05056300  0.01159100  0.96182300  1
  O  O20  1  0.55056300  0.51159100  0.96182300  1
  O  O21  1  0.95030700  0.90756300  0.94962400  1
  O  O22  1  0.93967500  0.08626700  0.94176700  1
  O  O23  1  0.45030700  0.40756300  0.94962400  1
  O  O24  1  0.43967500  0.58626700  0.94176700  1
  O  O25  1  0.05651100  0.91398700  0.04861200  1
  O  O26  1  0.04605900  0.09228900  0.05109300  1
  O  O27  1  0.55651100  0.41398700  0.04861200  1
  O  O28  1  0.54605900  0.59228900  0.05109300  1
  O  O29  1  0.94540400  0.99771300  0.03821800  1
  O  O30  1  0.44540400  0.49771300  0.03821800  1
  O  O31  1  0.05184000  0.99873400  0.14238000  1
  O  O32  1  0.55184000  0.49873400  0.14238000  1
  O  O33  1  0.47877100  0.54389500  0.39081300  1
  O  O34  1  0.52033600  0.44483300  0.43609700  1
  O  O35  1  0.97877100  0.04389500  0.39081300  1
  O  O36  1  0.02033600  0.94483300  0.43609700  1
  O  O37  1  0.40920300  0.54603500  0.42858900  1
  O  O38  1  0.41292600  0.44414300  0.39822400  1
  O  O39  1  0.90920300  0.04603500  0.42858900  1
  O  O40  1  0.91292600  0.94414300  0.39822400  1
  O  O41  1  0.51542900  0.55234900  0.60254100  1
  O  O42  1  0.48060900  0.45074900  0.57216500  1
  O  O43  1  0.01542900  0.05234900  0.60254100  1
  O  O44  1  0.98060900  0.95074900  0.57216500  1
  O  O45  1  0.58501900  0.55021800  0.56466400  1
  O  O46  1  0.58806200  0.45144600  0.60996900  1
  O  O47  1  0.08501900  0.05021800  0.56466400  1
  O  O48  1  0.08806200  0.95144600  0.60996900  1
  O  O49  1  0.95614700  0.81470800  0.09720000  1
  O  O50  1  0.88276000  0.77094000  0.96579100  1
  O  O51  1  0.94255800  0.19792600  0.09889600  1
  O  O52  1  0.86967100  0.24267900  0.96804500  1
  O  O53  1  0.45614700  0.31470800  0.09720000  1
  O  O54  1  0.38276000  0.27094000  0.96579100  1
  O  O55  1  0.44255800  0.69792600  0.09889600  1
  O  O56  1  0.36967100  0.74267900  0.96804500  1
