# Generated by REPEAT Assigner based on pymatgen
data_DB0-m3_o38_o38_f0_fof.sym.11
_audit_creation_date              2022-05-24
_audit_creation_method            REPEAT_Assigner
_cell_length_a                    16.966044
_cell_length_b                    17.009144
_cell_length_c                    16.920098
_cell_angle_alpha                 67.538138
_cell_angle_beta                  67.565144
_cell_angle_gamma                 67.688934
_cell_volume                      4011.502441
_symmetry_space_group_name_H-M    P1
_symmetry_Int_Tables_number       1
loop_
    _symmetry_equiv_pos_site_id
    _symmetry_equiv_pos_as_xyz
    1  x,y,z
loop_
    _atom_site_type_symbol
    _atom_site_label
    _atom_site_fract_x
    _atom_site_fract_y
    _atom_site_fract_z
    _atom_type_partial_charge
    O   O1   0.988314  0.134268  0.516700  -0.534021
    O   O2   0.011687  0.865730  0.483300  -0.533974
    O   O3   0.135701  0.516525  0.985240  -0.510554
    O   O4   0.864300  0.483474  0.014760  -0.510627
    O   O5   0.517536  0.982528  0.136015  -0.519084
    O   O6   0.482465  0.017470  0.863985  -0.519087
    O   O7   0.482943  0.865328  0.014238  -0.522013
    O   O8   0.517058  0.134671  0.985762  -0.522042
    O   O9   0.015919  0.482889  0.863761  -0.514574
    O   O10  0.984082  0.517109  0.136239  -0.514632
    O   O11  0.864355  0.019691  0.480274  -0.488855
    O   O12  0.135646  0.980308  0.519726  -0.488861
    C   C1   0.592987  0.028011  0.590634  0.207901
    C   C2   0.407014  0.971988  0.409366  0.207833
    C   C3   0.023442  0.593463  0.592924  0.247624
    C   C4   0.976559  0.406536  0.407076  0.247731
    C   C5   0.593117  0.593419  0.023805  0.210602
    C   C6   0.406883  0.406580  0.976195  0.210600
    O   O13  0.866216  0.030149  0.610665  -0.611160
    O   O14  0.133785  0.969849  0.389335  -0.611091
    O   O15  0.027603  0.611632  0.866687  -0.600893
    O   O16  0.972397  0.388367  0.133313  -0.600871
    O   O17  0.612926  0.867375  0.024626  -0.618317
    O   O18  0.387075  0.132624  0.975374  -0.618292
    O   O19  0.387576  0.972351  0.133702  -0.619514
    O   O20  0.612425  0.027648  0.866298  -0.619538
    O   O21  0.132510  0.387755  0.973931  -0.597621
    O   O22  0.867491  0.612244  0.026070  -0.597627
    O   O23  0.978634  0.132324  0.386006  -0.607020
    O   O24  0.021367  0.867674  0.613994  -0.607042
    C   C7   0.978750  0.174800  0.436375  0.429320
    C   C8   0.021251  0.825198  0.563625  0.429286
    C   C9   0.176188  0.437734  0.972667  0.433679
    C   C10  0.823813  0.562264  0.027334  0.433748
    C   C11  0.438043  0.971085  0.176941  0.449825
    C   C12  0.561958  0.028914  0.823059  0.449840
    C   C13  0.562679  0.824627  0.024837  0.449039
    C   C14  0.437321  0.175371  0.975163  0.449054
    C   C15  0.029152  0.561476  0.823085  0.441005
    C   C16  0.970849  0.438522  0.176915  0.441026
    C   C17  0.823074  0.032997  0.559220  0.452387
    C   C18  0.176927  0.967001  0.440780  0.452277
    Zn  Zn1  0.001936  0.002220  0.587647  1.230939
    Zn  Zn2  0.998065  0.997778  0.412353  1.230846
    Zn  Zn3  0.002998  0.586525  0.002714  1.226767
    Zn  Zn4  0.997003  0.413473  0.997285  1.226781
    Zn  Zn5  0.587182  0.002316  0.002453  1.242550
    Zn  Zn6  0.412819  0.997682  0.997547  1.242516
    H   H1   0.562826  0.876868  0.614133  0.115424
    H   H2   0.437175  0.123131  0.385867  0.115427
    H   H3   0.873615  0.611534  0.562862  0.104109
    H   H4   0.126385  0.388464  0.437138  0.104059
    H   H5   0.521827  0.464950  0.146716  0.101827
    H   H6   0.478173  0.535048  0.853284  0.101819
    H   H7   0.481589  0.852144  0.536786  0.102728
    H   H8   0.518412  0.147855  0.463214  0.102721
    H   H9   0.441360  0.384592  0.125560  0.116093
    H   H10  0.558640  0.615407  0.874440  0.116088
    H   H11  0.852745  0.530948  0.482334  0.101014
    H   H12  0.147256  0.469050  0.517665  0.101060
    C   C19  0.545354  0.013952  0.543545  0.133921
    C   C20  0.454647  0.986047  0.456455  0.134002
    C   C21  0.011801  0.545426  0.544779  0.126013
    C   C22  0.988200  0.454572  0.455221  0.125650
    C   C23  0.544824  0.545433  0.012013  0.155929
    C   C24  0.455177  0.454565  0.987987  0.155895
    C   C25  0.510591  0.082868  0.479179  -0.068311
    C   C26  0.489410  0.917131  0.520820  -0.068349
    C   C27  0.082554  0.482492  0.510082  -0.086221
    C   C28  0.917447  0.517507  0.489918  -0.085925
    C   C29  0.532482  0.564956  0.929784  -0.139642
    C   C30  0.467519  0.435043  0.070216  -0.139644
    C   C31  0.465091  0.068910  0.435850  -0.132617
    C   C32  0.534910  0.931089  0.564150  -0.132585
    C   C33  0.487551  0.519754  0.917786  -0.079079
    C   C34  0.512449  0.480244  0.082214  -0.079114
    C   C35  0.070743  0.437228  0.465151  -0.110632
    C   C36  0.929258  0.562770  0.534849  -0.110941
    C   C37  0.553637  0.026974  0.678828  -0.356383
    C   C38  0.446364  0.973025  0.321172  -0.356358
    C   C39  0.019027  0.682074  0.554753  -0.396647
    C   C40  0.980974  0.317924  0.445247  -0.396605
    C   C41  0.678293  0.551685  0.031921  -0.311491
    C   C42  0.321708  0.448314  0.968079  -0.311454
    C   C43  0.322134  0.962792  0.451774  -0.274002
    C   C44  0.677866  0.037206  0.548226  -0.273980
    C   C45  0.445924  0.318765  0.977549  -0.357028
    C   C46  0.554077  0.681234  0.022451  -0.357046
    C   C47  0.965787  0.449029  0.322660  -0.332304
    C   C48  0.034214  0.550969  0.677341  -0.332102
    C   C49  0.599840  0.034468  0.726940  0.352643
    C   C50  0.400161  0.965531  0.273060  0.352661
    C   C51  0.026076  0.729918  0.601397  0.391436
    C   C52  0.973925  0.270081  0.398603  0.391398
    C   C53  0.727631  0.599733  0.034290  0.336375
    C   C54  0.272369  0.400266  0.965710  0.336410
    C   C55  0.273319  0.959294  0.403712  0.296699
    C   C56  0.726682  0.040704  0.596288  0.296574
    C   C57  0.399224  0.270664  0.970956  0.358662
    C   C58  0.600777  0.729335  0.029044  0.358683
    C   C59  0.964187  0.400848  0.273089  0.340343
    C   C60  0.035814  0.599151  0.726911  0.340342
    C   C61  0.686293  0.040743  0.684926  -0.378982
    C   C62  0.313708  0.959255  0.315073  -0.379063
    C   C63  0.033582  0.687808  0.687513  -0.403385
    C   C64  0.966419  0.312190  0.312487  -0.403364
    C   C65  0.687539  0.687846  0.034233  -0.391675
    C   C66  0.312462  0.312153  0.965767  -0.391689
    H   H13  0.723817  0.042914  0.722780  0.213611
    H   H14  0.276184  0.957085  0.277220  0.213624
    H   H15  0.035177  0.725412  0.725513  0.222334
    H   H16  0.964824  0.274587  0.274487  0.222321
    H   H17  0.725442  0.725518  0.035828  0.216375
    H   H18  0.274559  0.274480  0.964172  0.216371
    N   N1   0.465426  0.018433  0.718219  0.617476
    O   O25  0.400265  0.082754  0.692640  -0.332469
    O   O26  0.452679  0.941133  0.765082  -0.315035
    N   N2   0.534574  0.981566  0.281781  0.617490
    O   O27  0.547321  0.058866  0.234918  -0.315044
    O   O28  0.599736  0.917245  0.307360  -0.332480
    N   N3   0.007481  0.722201  0.467443  0.647885
    O   O29  0.069764  0.697677  0.400324  -0.330940
    O   O30  0.929335  0.769857  0.457538  -0.331745
    N   N4   0.992520  0.277797  0.532557  0.647893
    O   O31  0.070667  0.230141  0.542462  -0.331746
    O   O32  0.930237  0.302321  0.599676  -0.330950
    N   N5   0.714322  0.459990  0.036014  0.594151
    O   O33  0.728668  0.402325  0.109716  -0.322613
    O   O34  0.725591  0.433069  0.969108  -0.327584
    N   N6   0.285679  0.540009  0.963987  0.593999
    O   O35  0.274410  0.566930  0.030893  -0.327515
    O   O36  0.271333  0.597674  0.890284  -0.322580
    N   N7   0.285776  0.958978  0.543978  0.572253
    O   O37  0.270216  0.886090  0.602070  -0.330618
    O   O38  0.274675  0.025529  0.570944  -0.310321
    N   N8   0.714224  0.041021  0.456022  0.572234
    O   O39  0.725326  0.974470  0.429056  -0.310312
    O   O40  0.729785  0.113909  0.397930  -0.330612
    N   N9   0.534420  0.279835  0.985004  0.606679
    O   O41  0.599171  0.306047  0.919929  -0.328421
    O   O42  0.547838  0.232740  0.062307  -0.307611
    N   N10  0.465581  0.720164  0.014996  0.606660
    O   O43  0.452163  0.767258  0.937693  -0.307618
    O   O44  0.400830  0.693952  0.080070  -0.328412
    N   N11  0.958145  0.541603  0.287588  0.611595
    O   O45  0.884136  0.596634  0.272143  -0.330228
    O   O46  0.022820  0.571760  0.276032  -0.327278
    N   N12  0.041856  0.458395  0.712412  0.611225
    O   O47  0.977181  0.428238  0.723968  -0.327161
    O   O48  0.115865  0.403365  0.727857  -0.330137
