# Generated by REPEAT Assigner based on pymatgen
data_DB0-m3_o20_o25_f0_nbo.sym.138
_audit_creation_date              2022-05-24
_audit_creation_method            REPEAT_Assigner
_cell_length_a                    42.346179
_cell_length_b                    29.032317
_cell_length_c                    29.528517
_cell_angle_alpha                 90.000000
_cell_angle_beta                  135.103330
_cell_angle_gamma                 90.000000
_cell_volume                      25623.468061
_symmetry_space_group_name_H-M    P1
_symmetry_Int_Tables_number       1
loop_
    _symmetry_equiv_pos_site_id
    _symmetry_equiv_pos_as_xyz
    1  x,y,z
loop_
    _atom_site_type_symbol
    _atom_site_label
    _atom_site_fract_x
    _atom_site_fract_y
    _atom_site_fract_z
    _atom_type_partial_charge
    O   O1    0.519250  0.568411  0.551246  -0.666272
    O   O2    0.517091  0.431138  0.547697  -0.680290
    O   O3    0.019250  0.068411  0.551246  -0.666284
    O   O4    0.017091  0.931138  0.547697  -0.680289
    O   O5    0.505377  0.567905  0.460035  -0.681438
    O   O6    0.503265  0.430759  0.456501  -0.664110
    O   O7    0.005377  0.067905  0.460035  -0.681447
    O   O8    0.003265  0.930759  0.456501  -0.664110
    C   C1    0.512413  0.589519  0.505609  0.779798
    C   C2    0.509757  0.409608  0.501841  0.772153
    C   C3    0.012413  0.089519  0.505609  0.779818
    C   C4    0.009757  0.909608  0.501841  0.772153
    O   O9    0.454643  0.501597  0.501207  -0.666510
    O   O10   0.954643  0.001597  0.501207  -0.666509
    O   O11   0.438932  0.499279  0.408396  -0.638166
    O   O12   0.938932  0.999279  0.408396  -0.638187
    C   C5    0.427021  0.500638  0.438877  0.593246
    C   C6    0.927021  0.000638  0.438877  0.593162
    Zn  Zn1   0.522129  0.499600  0.565133  1.319609
    Zn  Zn2   0.022129  0.999600  0.565133  1.319608
    Zn  Zn3   0.500556  0.499504  0.442734  1.327689
    Zn  Zn4   0.000556  0.999504  0.442734  1.327721
    O   O13   0.583741  0.499748  0.599399  -0.658453
    O   O14   0.083741  0.999748  0.599399  -0.658441
    O   O15   0.568051  0.497475  0.506706  -0.663057
    O   O16   0.068051  0.997475  0.506706  -0.663062
    C   C7    0.595746  0.498333  0.569037  0.683729
    C   C8    0.095746  0.998333  0.569037  0.683722
    C   C9    0.235244  0.543125  0.273690  -0.362036
    C   C10   0.232958  0.469417  0.271229  -0.421327
    C   C11   0.735244  0.043125  0.273690  -0.361456
    C   C12   0.732958  0.969417  0.271229  -0.420997
    C   C13   0.266868  0.542075  0.265863  -0.363931
    C   C14   0.264606  0.468447  0.263475  -0.414248
    C   C15   0.766868  0.042075  0.265863  -0.364420
    C   C16   0.764606  0.968447  0.263475  -0.414598
    C   C17   0.380833  0.501715  0.400843  0.235631
    C   C18   0.880833  0.001715  0.400843  0.235911
    C   C19   0.119111  0.507919  0.126275  0.296014
    C   C20   0.619111  0.007919  0.126275  0.295726
    C   C21   0.261925  0.505290  0.323604  -0.094262
    C   C22   0.761925  0.005290  0.323604  -0.094690
    C   C23   0.293332  0.504310  0.315585  1.017213
    C   C24   0.793332  0.004310  0.315585  1.017831
    C   C25   0.206569  0.507243  0.221664  1.039270
    C   C26   0.706569  0.007243  0.221664  1.038321
    C   C27   0.238044  0.506172  0.213727  -0.065521
    C   C28   0.738044  0.006172  0.213727  -0.065009
    C   C29   0.341281  0.502830  0.364397  -0.690779
    C   C30   0.841281  0.002830  0.364397  -0.691160
    C   C31   0.158729  0.508321  0.169648  -0.730308
    C   C32   0.658729  0.008321  0.169648  -0.729729
    C   C33   0.509919  0.638871  0.503279  -0.095805
    C   C34   0.507119  0.360283  0.499898  -0.092267
    C   C35   0.009919  0.138871  0.503279  -0.095817
    C   C36   0.007119  0.860283  0.499898  -0.092271
    C   C37   0.506854  0.680254  0.500663  -0.001617
    C   C38   0.504316  0.318893  0.497838  -0.006027
    C   C39   0.006854  0.180254  0.500663  -0.001613
    C   C40   0.004316  0.818893  0.497838  -0.006027
    C   C41   0.502696  0.728698  0.497258  -0.001776
    C   C42   0.500756  0.270416  0.495240  0.000178
    C   C43   0.002696  0.228698  0.497258  -0.001770
    C   C44   0.000756  0.770416  0.495240  0.000187
    C   C45   0.499176  0.770040  0.494458  0.046923
    C   C46   0.497879  0.229030  0.493177  0.046270
    C   C47   0.999176  0.270040  0.494458  0.046917
    C   C48   0.997879  0.729030  0.493177  0.046256
    C   C49   0.495577  0.818529  0.491683  -0.058979
    C   C50   0.495105  0.180495  0.491266  -0.058452
    C   C51   0.995577  0.318529  0.491683  -0.058978
    C   C52   0.995105  0.680495  0.491266  -0.058434
    C   C53   0.493433  0.859971  0.490130  -0.020686
    C   C54   0.493664  0.139028  0.490407  -0.021775
    C   C55   0.993433  0.359971  0.490130  -0.020684
    C   C56   0.993664  0.639028  0.490407  -0.021797
    C   C57   0.642029  0.496127  0.607132  -0.016632
    C   C58   0.142029  0.996127  0.607132  -0.016632
    C   C59   0.681613  0.493918  0.643597  -0.039295
    C   C60   0.181613  0.993918  0.643597  -0.039298
    C   C61   0.727991  0.491505  0.691016  0.013800
    C   C62   0.227991  0.991505  0.691016  0.013807
    C   C63   0.767614  0.490109  0.735035  0.050478
    C   C64   0.267614  0.990109  0.735035  0.050469
    C   C65   0.813509  0.489664  0.788904  -0.080559
    C   C66   0.313509  0.989664  0.788904  -0.080546
    C   C67   0.852729  0.490477  0.835693  0.029873
    C   C68   0.352729  0.990477  0.835693  0.029853
    O   O17   0.981747  0.537975  0.046124  -0.710849
    O   O18   0.983801  0.458563  0.048662  -0.699115
    O   O19   0.481747  0.037975  0.046124  -0.710865
    O   O20   0.483801  0.958563  0.048662  -0.699127
    C   C69   0.982105  0.498362  0.068386  0.814420
    C   C70   0.482105  0.998362  0.068386  0.814423
    O   O21   0.050225  0.544489  0.050298  -0.605472
    O   O22   0.054005  0.464887  0.056625  -0.628253
    O   O23   0.550225  0.044489  0.050298  -0.605462
    O   O24   0.554005  0.964887  0.056625  -0.628235
    C   C71   0.072262  0.505753  0.075153  0.513825
    C   C72   0.572262  0.005753  0.075153  0.513871
    Zn  Zn5   0.982932  0.551369  0.979844  1.341551
    Zn  Zn6   0.988705  0.447187  0.985997  1.337776
    Zn  Zn7   0.482932  0.051369  0.979844  1.341546
    Zn  Zn8   0.488705  0.947187  0.985997  1.337769
    O   O25   0.987979  0.540050  0.917295  -0.695806
    O   O26   0.990041  0.460579  0.919841  -0.714589
    O   O27   0.487979  0.040050  0.917295  -0.695796
    O   O28   0.490041  0.960579  0.919841  -0.714584
    O   O29   0.917635  0.533663  0.908980  -0.637597
    O   O30   0.921417  0.454146  0.915316  -0.618380
    O   O31   0.417635  0.033663  0.908980  -0.637608
    O   O32   0.421417  0.954146  0.915316  -0.618385
    C   C73   0.989876  0.500230  0.897809  0.817805
    C   C74   0.489876  0.000230  0.897809  0.817793
    C   C75   0.899300  0.492826  0.890223  0.610730
    C   C76   0.399300  0.992826  0.890223  0.610762
    O   O33   0.454197  0.998209  0.383984  -0.680976
    O   O34   0.954197  0.498209  0.383984  -0.680977
    O   O35   0.531230  0.000713  0.460559  -0.677974
    O   O36   0.031230  0.500713  0.460559  -0.677988
    C   C77   0.492236  0.999420  0.400096  0.749727
    C   C78   0.992236  0.499420  0.400096  0.749734
    O   O37   0.453730  0.930446  0.452129  -0.634852
    O   O38   0.455065  0.067906  0.453414  -0.653856
    O   O39   0.953730  0.430446  0.452129  -0.634856
    O   O40   0.955065  0.567906  0.453414  -0.653856
    O   O41   0.530855  0.931124  0.526868  -0.648797
    O   O42   0.532198  0.068533  0.528163  -0.632450
    O   O43   0.030855  0.431124  0.526868  -0.648816
    O   O44   0.032198  0.568533  0.528163  -0.632455
    C   C79   0.492508  0.909376  0.489678  0.676811
    C   C80   0.493532  0.089624  0.490708  0.680653
    C   C81   0.992508  0.409376  0.489678  0.676825
    C   C82   0.993532  0.589624  0.490708  0.680679
    Zn  Zn9   0.442382  0.999290  0.439671  1.324103
    Zn  Zn10  0.942382  0.499290  0.439671  1.324102
    Zn  Zn11  0.543531  0.999714  0.540670  1.337922
    Zn  Zn12  0.043531  0.499714  0.540670  1.337931
    O   O45   0.454652  0.998280  0.519722  -0.669985
    O   O46   0.954652  0.498280  0.519722  -0.669989
    O   O47   0.531680  0.000784  0.596347  -0.688755
    O   O48   0.031680  0.500784  0.596347  -0.688769
    C   C83   0.493560  0.999582  0.580122  0.743777
    C   C84   0.993560  0.499582  0.580122  0.743790
    C   C85   0.982654  0.498630  0.118649  -0.141899
    C   C86   0.482654  0.998630  0.118649  -0.141883
    C   C87   0.983854  0.498812  0.161322  0.064441
    C   C88   0.483854  0.998812  0.161322  0.064428
    C   C89   0.985726  0.498992  0.212074  -0.018817
    C   C90   0.485726  0.998992  0.212074  -0.018814
    C   C91   0.487451  0.999122  0.255263  0.008787
    C   C92   0.987451  0.499122  0.255263  0.008784
    C   C93   0.489455  0.999252  0.306143  0.007124
    C   C94   0.989455  0.499252  0.306143  0.007128
    C   C95   0.490948  0.999340  0.349101  -0.082388
    C   C96   0.990948  0.499340  0.349101  -0.082393
    C   C97   0.991350  0.500025  0.849646  -0.152664
    C   C98   0.491350  0.000025  0.849646  -0.152661
    C   C99   0.992311  0.499919  0.809177  0.069746
    C   C100  0.492311  0.999919  0.809177  0.069739
    C   C101  0.993219  0.499835  0.761242  -0.026741
    C   C102  0.493219  0.999835  0.761242  -0.026727
    C   C103  0.493811  0.999779  0.720388  0.016531
    C   C104  0.993811  0.499779  0.720388  0.016549
    C   C105  0.494246  0.999720  0.671963  0.004878
    C   C106  0.994246  0.499720  0.671963  0.004858
    C   C107  0.494255  0.999665  0.630513  -0.079300
    C   C108  0.994255  0.499665  0.630513  -0.079285
    C   C109  0.283635  0.584488  0.259829  0.737157
    O   O49   0.257193  0.610126  0.214191  -0.538655
    N   N1    0.330107  0.595569  0.307098  -0.710979
    H   H1    0.333982  0.626062  0.292723  0.333448
    H   H2    0.339287  0.602260  0.349899  0.300392
    C   C110  0.278680  0.425054  0.254632  0.800530
    O   O50   0.250703  0.401273  0.207348  -0.583650
    N   N2    0.324342  0.410847  0.301204  -0.739492
    H   H3    0.326300  0.380133  0.284924  0.344270
    H   H4    0.332997  0.403600  0.343503  0.307832
    C   C111  0.783635  0.084488  0.259829  0.737256
    O   O51   0.757193  0.110126  0.214191  -0.538666
    N   N3    0.830107  0.095569  0.307098  -0.710995
    H   H5    0.833982  0.126062  0.292723  0.333448
    H   H6    0.839287  0.102260  0.349899  0.300391
    C   C112  0.778680  0.925054  0.254632  0.800592
    O   O52   0.750703  0.901273  0.207348  -0.583662
    N   N4    0.824342  0.910847  0.301204  -0.739523
    H   H7    0.826300  0.880133  0.284924  0.344281
    H   H8    0.832997  0.903600  0.343503  0.307835
    C   C113  0.220672  0.586477  0.281686  0.789918
    O   O53   0.248345  0.610805  0.328438  -0.558067
    N   N5    0.174818  0.600004  0.234799  -0.737853
    H   H9    0.172433  0.630823  0.250417  0.341555
    H   H10   0.166081  0.606885  0.192360  0.292608
    C   C114  0.215924  0.426973  0.276673  0.840965
    O   O54   0.242154  0.401091  0.322075  -0.602102
    N   N6    0.169430  0.416012  0.228836  -0.741746
    H   H11   0.165305  0.385432  0.242758  0.344511
    H   H12   0.160592  0.409492  0.186251  0.296666
    C   C115  0.720672  0.086477  0.281686  0.789786
    O   O55   0.748345  0.110805  0.328438  -0.558051
    N   N7    0.674818  0.100004  0.234799  -0.737796
    H   H13   0.672433  0.130823  0.250417  0.341536
    H   H14   0.666081  0.106885  0.192360  0.292595
    C   C116  0.715924  0.926973  0.276673  0.841031
    O   O56   0.742154  0.901091  0.322075  -0.602136
    N   N8    0.669430  0.916012  0.228836  -0.741736
    H   H15   0.665305  0.885432  0.242758  0.344501
    H   H16   0.660592  0.909492  0.186251  0.296642
    C   C117  0.226960  0.506395  0.153144  0.724412
    O   O57   0.257051  0.507808  0.155880  -0.512523
    N   N9    0.181621  0.504413  0.092202  -0.777795
    H   H17   0.181927  0.505507  0.057179  0.350980
    H   H18   0.168860  0.472404  0.088879  0.296388
    C   C118  0.726960  0.006395  0.153144  0.724343
    O   O58   0.757051  0.007808  0.155880  -0.512522
    N   N10   0.681621  0.004413  0.092202  -0.777819
    H   H19   0.681927  0.005507  0.057179  0.350990
    H   H20   0.668860  0.972404  0.088879  0.296400
    C   C119  0.273824  0.504567  0.384735  0.702513
    O   O59   0.244383  0.507403  0.383256  -0.514680
    N   N11   0.319309  0.500138  0.444811  -0.736361
    H   H21   0.319769  0.500558  0.480621  0.334961
    H   H22   0.330437  0.467775  0.445579  0.296405
    C   C120  0.773824  0.004567  0.384735  0.702631
    O   O60   0.744383  0.007403  0.383256  -0.514712
    N   N12   0.819309  0.000138  0.444811  -0.736404
    H   H23   0.819769  0.000558  0.480621  0.334971
    H   H24   0.830437  0.967775  0.445579  0.296411
