# generated using pymatgen
data_Zn2H23C34(NO3)3
_symmetry_space_group_name_H-M   'P 1'
_cell_length_a   8.51877000
_cell_length_b   12.98917100
_cell_length_c   14.19103000
_cell_angle_alpha   90.63317400
_cell_angle_beta   93.35631400
_cell_angle_gamma   86.46148700
_symmetry_Int_Tables_number   1
_chemical_formula_structural   Zn2H23C34(NO3)3
_chemical_formula_sum   'Zn2 H23 C34 N3 O9'
_cell_volume   1564.53696788
_cell_formula_units_Z   1
loop_
 _symmetry_equiv_pos_site_id
 _symmetry_equiv_pos_as_xyz
  1  'x, y, z'
loop_
 _atom_site_type_symbol
 _atom_site_label
 _atom_site_symmetry_multiplicity
 _atom_site_fract_x
 _atom_site_fract_y
 _atom_site_fract_z
 _atom_site_occupancy
  Zn  Zn1  1  0.49377500  0.51092800  0.89410700  1
  Zn  Zn2  1  0.51154600  0.48734000  0.10354800  1
  H  H1  1  0.01820800  0.56922100  0.04112600  1
  H  H2  1  0.70908100  0.83000200  0.99726100  1
  H  H3  1  0.68648600  0.98380200  0.02642500  1
  H  H4  1  0.65418300  0.16392700  0.00866400  1
  H  H5  1  0.98711000  0.42904400  0.95650900  1
  H  H6  1  0.29624100  0.16827700  0.00043800  1
  H  H7  1  0.31884500  0.01447500  0.97129700  1
  H  H8  1  0.35114200  0.83434900  0.98903900  1
  H  H9  1  0.71539500  0.38197900  0.43456700  1
  H  H10  1  0.73161100  0.44015600  0.58342600  1
  H  H11  1  0.45954500  0.66869400  0.54924600  1
  H  H12  1  0.66093200  0.62870800  0.58615300  1
  H  H13  1  0.71803500  0.57223600  0.43847000  1
  H  H14  1  0.54385000  0.65073800  0.39994800  1
  H  H15  1  0.30113700  0.41182400  0.56245700  1
  H  H16  1  0.24626600  0.54833900  0.56824900  1
  H  H17  1  0.27253000  0.43479800  0.40221100  1
  H  H18  1  0.58739900  0.35052200  0.60751900  1
  H  H19  1  0.28531200  0.57262700  0.41301600  1
  H  H20  1  0.45724400  0.26868200  0.49564000  1
  H  H21  1  0.41275900  0.12130700  0.41365700  1
  H  H22  1  0.58870300  0.08190800  0.35404600  1
  H  H23  1  0.41547600  0.13433700  0.28721300  1
  C  C1  1  0.12932300  0.70689400  0.01677700  1
  C  C2  1  0.00153900  0.65114600  0.03058200  1
  C  C3  1  0.85252600  0.69675000  0.02121200  1
  C  C4  1  0.82942800  0.80104500  0.00850400  1
  C  C5  1  0.95750400  0.86222300  0.00725800  1
  C  C6  1  0.10771200  0.81334000  0.00598500  1
  C  C7  1  0.93766200  0.97024700  0.00373500  1
  C  C8  1  0.06766500  0.02803000  0.99397600  1
  C  C9  1  0.21463500  0.97636300  0.98556400  1
  C  C10  1  0.23443100  0.87097200  0.99350400  1
  C  C11  1  0.79069300  0.02191400  0.01215200  1
  C  C12  1  0.77089500  0.12730500  0.00420100  1
  C  C13  1  0.89761100  0.18493400  0.99170500  1
  C  C14  1  0.04782000  0.13605200  0.99044100  1
  C  C15  1  0.87599800  0.29137600  0.98088400  1
  C  C16  1  0.00378100  0.34712200  0.96706900  1
  C  C17  1  0.15279400  0.30152000  0.97645100  1
  C  C18  1  0.17589300  0.19723000  0.98918500  1
  C  C19  1  0.28559100  0.36641600  0.98380200  1
  C  C20  1  0.28026500  0.64666300  0.00996400  1
  C  C21  1  0.71972700  0.63185400  0.01385900  1
  C  C22  1  0.72506000  0.35160700  0.98769300  1
  C  C23  1  0.60986000  0.41829500  0.56464400  1
  C  C24  1  0.55297500  0.60562800  0.54593500  1
  C  C25  1  0.58887800  0.58413800  0.44405000  1
  C  C26  1  0.49620200  0.50857200  0.58716900  1
  C  C27  1  0.59463300  0.39467000  0.45935800  1
  C  C28  1  0.51010000  0.48758300  0.41062600  1
  C  C29  1  0.33955700  0.49680200  0.43673100  1
  C  C30  1  0.33441100  0.48959800  0.54291700  1
  C  C31  1  0.51636000  0.47829200  0.30805700  1
  C  C32  1  0.48933400  0.51918600  0.68963900  1
  C  C33  1  0.54497000  0.24488300  0.36614100  1
  C  C34  1  0.48667300  0.13916100  0.35491100  1
  N  N1  1  0.51937000  0.47403000  0.22669300  1
  N  N2  1  0.48596700  0.52421700  0.77096100  1
  N  N3  1  0.50620200  0.30436800  0.44111100  1
  O  O1  1  0.34220500  0.38994700  0.06859500  1
  O  O2  1  0.33270000  0.40541900  0.90639300  1
  O  O3  1  0.32386400  0.61886000  0.92542600  1
  O  O4  1  0.34313100  0.60283800  0.08741400  1
  O  O5  1  0.66311700  0.60832100  0.92906200  1
  O  O6  1  0.67262800  0.59284600  0.09127100  1
  O  O7  1  0.68146000  0.37941400  0.07222500  1
  O  O8  1  0.66219100  0.39543200  0.91024900  1
  O  O9  1  0.62521800  0.27747400  0.30600800  1
