# generated using pymatgen
data_Zn4H36C80N7O16
_symmetry_space_group_name_H-M   'P 1'
_cell_length_a   29.62519100
_cell_length_b   33.09296700
_cell_length_c   29.33159100
_cell_angle_alpha   84.87079800
_cell_angle_beta   61.22806300
_cell_angle_gamma   63.68015400
_symmetry_Int_Tables_number   1
_chemical_formula_structural   Zn4H36C80N7O16
_chemical_formula_sum   'Zn8 H72 C160 N14 O32'
_cell_volume   22309.84767374
_cell_formula_units_Z   2
loop_
 _symmetry_equiv_pos_site_id
 _symmetry_equiv_pos_as_xyz
  1  'x, y, z'
loop_
 _atom_site_type_symbol
 _atom_site_label
 _atom_site_symmetry_multiplicity
 _atom_site_fract_x
 _atom_site_fract_y
 _atom_site_fract_z
 _atom_site_occupancy
  Zn  Zn1  1  0.05175300  0.00055400  0.47779800  1
  Zn  Zn2  1  0.93137300  0.02591000  0.56513000  1
  Zn  Zn3  1  0.39396800  0.00644600  0.49836100  1
  Zn  Zn4  1  0.41286000  0.02556700  0.58368600  1
  Zn  Zn5  1  0.71379700  0.52588200  0.59415500  1
  Zn  Zn6  1  0.69637000  0.50212000  0.50996300  1
  Zn  Zn7  1  0.08065600  0.52874400  0.56313300  1
  Zn  Zn8  1  0.20170500  0.50588700  0.47899700  1
  H  H1  1  0.95210200  0.79557100  0.07208600  1
  H  H2  1  0.08995100  0.82504200  0.04205800  1
  H  H3  1  0.88590100  0.85682400  0.14596500  1
  H  H4  1  0.02431600  0.88483400  0.11755700  1
  H  H5  1  0.02635700  0.98449200  0.34782200  1
  H  H6  1  0.85084900  0.06630400  0.46642900  1
  H  H7  1  0.99351800  0.97663800  0.28904800  1
  H  H8  1  0.81786500  0.06010000  0.40816600  1
  H  H9  1  0.56481800  0.97902100  0.36549000  1
  H  H10  1  0.55783200  0.05239500  0.48333500  1
  H  H11  1  0.66150100  0.97029500  0.30346900  1
  H  H12  1  0.65220600  0.04519200  0.42235800  1
  H  H13  1  0.26773600  0.50229600  0.58174500  1
  H  H14  1  0.08762100  0.57675400  0.69397300  1
  H  H15  1  0.29247500  0.51720700  0.64269200  1
  H  H16  1  0.11225700  0.59309800  0.75621800  1
  H  H17  1  0.00549200  0.77917200  0.98136100  1
  H  H18  1  0.13850800  0.74656700  0.02019100  1
  H  H19  1  0.07159900  0.71670000  0.90878400  1
  H  H20  1  0.20538600  0.68554400  0.94604600  1
  H  H21  1  0.55311200  0.47373700  0.61658700  1
  H  H22  1  0.53561100  0.56628900  0.72351800  1
  H  H23  1  0.45431600  0.48881200  0.67330300  1
  H  H24  1  0.43438500  0.58347400  0.78056700  1
  H  H25  1  0.30299500  0.93586900  0.62440400  1
  H  H26  1  0.20169800  0.07902200  0.67387600  1
  H  H27  1  0.09996300  0.11418200  0.70333700  1
  H  H28  1  0.02276300  0.11070500  0.69649500  1
  H  H29  1  0.99710400  0.06996400  0.65744500  1
  H  H30  1  0.10277100  0.92764900  0.60193700  1
  H  H31  1  0.18469900  0.88675900  0.61412900  1
  H  H32  1  0.26062100  0.88990000  0.62345400  1
  H  H33  1  0.98945000  0.14493800  0.44650500  1
  H  H34  1  0.90891900  0.16014300  0.61370200  1
  H  H35  1  0.85106800  0.23462500  0.66525700  1
  H  H36  1  0.79938400  0.31735500  0.67118100  1
  H  H37  1  0.77168200  0.38246200  0.62964500  1
  H  H38  1  0.84098800  0.36597800  0.46333700  1
  H  H39  1  0.91357300  0.29303000  0.41055800  1
  H  H40  1  0.97008700  0.21088900  0.40417300  1
  H  H41  1  0.00494700  0.67519000  0.57095700  1
  H  H42  1  0.17639000  0.63978500  0.44479700  1
  H  H43  1  0.20348400  0.69773000  0.40885200  1
  H  H44  1  0.18033500  0.77842400  0.41065600  1
  H  H45  1  0.11402300  0.85600900  0.44905700  1
  H  H46  1  0.94243300  0.89183600  0.57517200  1
  H  H47  1  0.91316000  0.83404300  0.60709600  1
  H  H48  1  0.93631700  0.75331500  0.60528800  1
  H  H49  1  0.60251000  0.63999000  0.48866400  1
  H  H50  1  0.62822200  0.67041200  0.61033600  1
  H  H51  1  0.59681000  0.74694200  0.64097700  1
  H  H52  1  0.55139500  0.82833200  0.63676100  1
  H  H53  1  0.50555500  0.88838500  0.59977200  1
  H  H54  1  0.47903700  0.85904600  0.47819700  1
  H  H55  1  0.51058700  0.78196100  0.44737700  1
  H  H56  1  0.55608700  0.70048200  0.45157000  1
  H  H57  1  0.26123900  0.38333600  0.54778100  1
  H  H58  1  0.13288500  0.37380100  0.52812900  1
  H  H59  1  0.13488600  0.30063200  0.52313700  1
  H  H60  1  0.18078700  0.21815400  0.52256900  1
  H  H61  1  0.25558300  0.15120800  0.52843200  1
  H  H62  1  0.37337700  0.16483200  0.56219400  1
  H  H63  1  0.37094500  0.23697000  0.56772500  1
  H  H64  1  0.32927900  0.31840100  0.56229100  1
  H  H65  1  0.05951500  0.57391200  0.41583100  1
  H  H66  1  0.13167800  0.43007900  0.40768900  1
  H  H67  1  0.08991500  0.38934400  0.39169800  1
  H  H68  1  0.00175300  0.39211600  0.40186900  1
  H  H69  1  0.90041200  0.43693900  0.43229400  1
  H  H70  1  0.82703700  0.58129500  0.44505300  1
  H  H71  1  0.88724100  0.61824600  0.41841700  1
  H  H72  1  0.97615800  0.61527400  0.40634900  1
  C  C1  1  0.96833900  0.09954900  0.52764100  1
  C  C2  1  0.02465500  0.00193600  0.59241300  1
  C  C3  1  0.95913000  0.02351900  0.44992100  1
  C  C4  1  0.01437900  0.92691100  0.51572900  1
  C  C5  1  0.50006000  0.01715100  0.46807100  1
  C  C6  1  0.46012400  0.92776400  0.53816400  1
  C  C7  1  0.34587800  0.10429600  0.54482100  1
  C  C8  1  0.30825800  0.01280500  0.61317900  1
  C  C9  1  0.93057700  0.85036800  0.12330100  1
  C  C10  1  0.96835200  0.81556600  0.08081000  1
  C  C11  1  0.02622400  0.80547500  0.05133600  1
  C  C12  1  0.04545200  0.83111300  0.06503000  1
  C  C13  1  0.00783400  0.86557800  0.10786800  1
  C  C14  1  0.95014900  0.87538000  0.13741200  1
  C  C15  1  0.96194100  0.99759400  0.32727900  1
  C  C16  1  0.98057000  0.00206400  0.36067900  1
  C  C17  1  0.94068800  0.02545500  0.41141700  1
  C  C18  1  0.88256200  0.04739100  0.42714200  1
  C  C19  1  0.86398800  0.04377600  0.39362000  1
  C  C20  1  0.90334700  0.01726700  0.34431900  1
  C  C21  1  0.63858400  0.98912900  0.34256600  1
  C  C22  1  0.58373800  0.99417300  0.37768100  1
  C  C23  1  0.55502200  0.01598700  0.42877200  1
  C  C24  1  0.57989700  0.03481200  0.44373700  1
  C  C25  1  0.63379100  0.03077600  0.40858000  1
  C  C26  1  0.66419200  0.00686200  0.35821300  1
  C  C27  1  0.89602800  0.95989600  0.24790000  1
  C  C28  1  0.91057400  0.91096600  0.18414800  1
  C  C29  1  0.81714200  0.95566600  0.25303700  1
  C  C30  1  0.80308500  0.00401500  0.31646600  1
  C  C31  1  0.88158900  0.00549200  0.31473500  1
  C  C32  1  0.72462100  0.99766600  0.32449900  1
  C  C33  1  0.80225000  0.51296300  0.47777000  1
  C  C34  1  0.64793100  0.60136600  0.55113400  1
  C  C35  1  0.76556400  0.42685300  0.55063600  1
  C  C36  1  0.60741700  0.51535000  0.62658100  1
  C  C37  1  0.17421100  0.43061800  0.53071700  1
  C  C38  1  0.16267100  0.53077900  0.59432800  1
  C  C39  1  0.11868100  0.50540800  0.44825700  1
  C  C40  1  0.10886100  0.60403700  0.51152600  1
  C  C41  1  0.24707700  0.53042200  0.65526200  1
  C  C42  1  0.23316900  0.52202900  0.62003100  1
  C  C43  1  0.17607900  0.53858800  0.63349700  1
  C  C44  1  0.13266100  0.56333900  0.68299700  1
  C  C45  1  0.14657400  0.57273300  0.71817400  1
  C  C46  1  0.20400600  0.55640800  0.70424900  1
  C  C47  1  0.08685100  0.72283900  0.93301700  1
  C  C48  1  0.04894100  0.75833500  0.97475100  1
  C  C49  1  0.06683200  0.76776500  0.00644100  1
  C  C50  1  0.12346600  0.74102600  0.99544900  1
  C  C51  1  0.16156100  0.70585800  0.95337100  1
  C  C52  1  0.14351300  0.69644900  0.92189400  1
  C  C53  1  0.47124200  0.50587100  0.68572200  1
  C  C54  1  0.52776700  0.49708400  0.65311500  1
  C  C55  1  0.55085100  0.51929900  0.66586300  1
  C  C56  1  0.51805500  0.54839100  0.71325100  1
  C  C57  1  0.46066700  0.55812700  0.74560400  1
  C  C58  1  0.43653600  0.53799300  0.73093100  1
  C  C59  1  0.20208100  0.61245500  0.80893400  1
  C  C60  1  0.22106500  0.56754000  0.73878400  1
  C  C61  1  0.29629700  0.55923000  0.75120200  1
  C  C62  1  0.27896100  0.60577800  0.81834800  1
  C  C63  1  0.18422800  0.65924800  0.87680900  1
  C  C64  1  0.37380500  0.55441000  0.75733800  1
  C  C65  1  0.26080900  0.96532700  0.64324000  1
  C  C66  1  0.25717100  0.00756600  0.64932500  1
  C  C67  1  0.20398500  0.04575200  0.67107000  1
  C  C68  1  0.15610300  0.04242600  0.67870900  1
  C  C69  1  0.16179400  0.00082100  0.66542300  1
  C  C70  1  0.21341800  0.96190600  0.65032600  1
  C  C71  1  0.10475000  0.08147100  0.69284200  1
  C  C72  1  0.06123600  0.07951000  0.68893100  1
  C  C73  1  0.06945300  0.03860200  0.67032700  1
  C  C74  1  0.11868200  0.99895000  0.66072200  1
  C  C75  1  0.12803500  0.95831600  0.64021700  1
  C  C76  1  0.17739400  0.91868000  0.63001800  1
  C  C77  1  0.22011100  0.92044900  0.63533900  1
  C  C78  1  0.03202100  0.03817200  0.65547200  1
  C  C79  1  0.04569600  0.99859200  0.62885900  1
  C  C80  1  0.09164200  0.95827400  0.62394800  1
  C  C81  1  0.96356900  0.16672000  0.48423900  1
  C  C82  1  0.95230600  0.14781400  0.52977100  1
  C  C83  1  0.91767600  0.17529000  0.57813000  1
  C  C84  1  0.89226800  0.22193800  0.58122100  1
  C  C85  1  0.89979800  0.24091600  0.53596100  1
  C  C86  1  0.93596100  0.21338500  0.48741200  1
  C  C87  1  0.85689400  0.24943800  0.62970100  1
  C  C88  1  0.82775100  0.29595900  0.63304000  1
  C  C89  1  0.83288000  0.31475500  0.58800100  1
  C  C90  1  0.86908300  0.28724600  0.53944800  1
  C  C91  1  0.87304300  0.30581100  0.49453600  1
  C  C92  1  0.91010200  0.27850800  0.44589800  1
  C  C93  1  0.94200200  0.23231300  0.44229100  1
  C  C94  1  0.80056500  0.36088800  0.59161500  1
  C  C95  1  0.80227700  0.37887100  0.54698500  1
  C  C96  1  0.83877700  0.35151400  0.49843600  1
  C  C97  1  0.03716200  0.68491300  0.54257500  1
  C  C98  1  0.09233300  0.65218800  0.50807900  1
  C  C99  1  0.13306700  0.66507800  0.47208200  1
  C  C100  1  0.11927500  0.71055000  0.47176000  1
  C  C101  1  0.06468500  0.74320100  0.50720900  1
  C  C102  1  0.02343400  0.73043300  0.54222400  1
  C  C103  1  0.16059900  0.72324800  0.43674300  1
  C  C104  1  0.14759300  0.76864500  0.43778400  1
  C  C105  1  0.09329300  0.80126300  0.47386100  1
  C  C106  1  0.05169500  0.78859900  0.50828200  1
  C  C107  1  0.99742700  0.82124100  0.54433300  1
  C  C108  1  0.95582700  0.80855900  0.57878100  1
  C  C109  1  0.96884200  0.76313200  0.57773800  1
  C  C110  1  0.08090500  0.84652100  0.47592300  1
  C  C111  1  0.02689400  0.87916500  0.51255400  1
  C  C112  1  0.98495200  0.86654400  0.54643400  1
  C  C113  1  0.59789900  0.66434200  0.51478400  1
  C  C114  1  0.61835600  0.64983800  0.54977500  1
  C  C115  1  0.61235900  0.68127300  0.58279100  1
  C  C116  1  0.58650800  0.72702100  0.58054000  1
  C  C117  1  0.56646200  0.74151600  0.54535900  1
  C  C118  1  0.57197000  0.71023400  0.51259000  1
  C  C119  1  0.58109500  0.75819900  0.61334100  1
  C  C120  1  0.55559800  0.80398100  0.61093600  1
  C  C121  1  0.53558900  0.81850000  0.57571200  1
  C  C122  1  0.54099700  0.78732900  0.54291700  1
  C  C123  1  0.52090200  0.80195100  0.50776200  1
  C  C124  1  0.52631100  0.77069900  0.47500600  1
  C  C125  1  0.55187500  0.72483700  0.47739900  1
  C  C126  1  0.50985900  0.86430200  0.57358000  1
  C  C127  1  0.48938800  0.87906700  0.53866100  1
  C  C128  1  0.49510500  0.84784100  0.50557200  1
  C  C129  1  0.24211300  0.36308900  0.54496600  1
  C  C130  1  0.19467600  0.38315800  0.53787800  1
  C  C131  1  0.16955000  0.35788000  0.53464800  1
  C  C132  1  0.19391600  0.31166100  0.53622700  1
  C  C133  1  0.24127100  0.29165500  0.54374500  1
  C  C134  1  0.26461200  0.31760700  0.54917000  1
  C  C135  1  0.17181600  0.28523800  0.52928300  1
  C  C136  1  0.19770200  0.23879600  0.52890400  1
  C  C137  1  0.24489800  0.21889300  0.53665600  1
  C  C138  1  0.26596800  0.24553900  0.54500700  1
  C  C139  1  0.31227900  0.22601100  0.55394400  1
  C  C140  1  0.33450000  0.25226200  0.56088000  1
  C  C141  1  0.31108300  0.29802400  0.55784100  1
  C  C142  1  0.27142100  0.17236100  0.53564100  1
  C  C143  1  0.31720600  0.15312300  0.54536400  1
  C  C144  1  0.33692700  0.18003400  0.55536500  1
  C  C145  1  0.06193300  0.54201900  0.40605800  1
  C  C146  1  0.10090000  0.50190600  0.41122700  1
  C  C147  1  0.10254500  0.46120400  0.40148300  1
  C  C148  1  0.05926400  0.46154600  0.39507900  1
  C  C149  1  0.01542200  0.50257200  0.39742800  1
  C  C150  1  0.01842400  0.54258600  0.40011600  1
  C  C151  1  0.05568900  0.42159800  0.39353900  1
  C  C152  1  0.00596000  0.42317100  0.39934600  1
  C  C153  1  0.95980700  0.46471600  0.40713500  1
  C  C154  1  0.96539900  0.50422600  0.40388500  1
  C  C155  1  0.91861200  0.54592300  0.41349200  1
  C  C156  1  0.92377400  0.58553100  0.41107600  1
  C  C157  1  0.97390100  0.58383900  0.40419000  1
  C  C158  1  0.90631400  0.46728600  0.42412700  1
  C  C159  1  0.85853200  0.50932600  0.43947900  1
  C  C160  1  0.86501500  0.54843200  0.43150700  1
  N  N1  1  0.93188800  0.92869900  0.20383400  1
  N  N2  1  0.91769400  0.97537500  0.26959100  1
  N  N3  1  0.85316900  0.92426200  0.20913700  1
  N  N4  1  0.83871300  0.97355600  0.27207100  1
  N  N5  1  0.82446700  0.01972800  0.33761000  1
  N  N6  1  0.76003500  0.96739100  0.27949800  1
  N  N7  1  0.74653500  0.01584000  0.34245000  1
  N  N8  1  0.18294500  0.60035600  0.78152000  1
  N  N9  1  0.16474400  0.64603000  0.85073600  1
  N  N10  1  0.27740400  0.54713200  0.72423800  1
  N  N11  1  0.25900000  0.59224000  0.79318900  1
  N  N12  1  0.24145100  0.63920100  0.86030800  1
  N  N13  1  0.35314000  0.54055600  0.73352800  1
  N  N14  1  0.33658000  0.58735400  0.79999500  1
  O  O1  1  0.01912000  0.06926000  0.49106000  1
  O  O2  1  0.96972100  0.01530800  0.60928100  1
  O  O3  1  0.06146700  0.99513100  0.54190800  1
  O  O4  1  0.92900800  0.08737400  0.56035500  1
  O  O5  1  0.92149700  0.03160000  0.50048200  1
  O  O6  1  0.05468100  0.93856100  0.48388100  1
  O  O7  1  0.96301100  0.95785500  0.55057300  1
  O  O8  1  0.01386800  0.00999600  0.43394100  1
  O  O9  1  0.46903000  0.00944600  0.45319500  1
  O  O10  1  0.45267900  0.95694200  0.57163900  1
  O  O11  1  0.43968000  0.94213100  0.50571300  1
  O  O12  1  0.48324600  0.02412900  0.51831500  1
  O  O13  1  0.36872700  0.08950500  0.57538200  1
  O  O14  1  0.32608900  0.00549800  0.56286000  1
  O  O15  1  0.33722900  0.02234400  0.62932300  1
  O  O16  1  0.35152400  0.07555800  0.51210800  1
  O  O17  1  0.78477400  0.52175100  0.52787700  1
  O  O18  1  0.65489900  0.57094200  0.51942300  1
  O  O19  1  0.66905600  0.58856000  0.58318000  1
  O  O20  1  0.77192900  0.50403700  0.46303100  1
  O  O21  1  0.74558400  0.43944900  0.51771800  1
  O  O22  1  0.63713200  0.52575900  0.64075500  1
  O  O23  1  0.62604000  0.50466500  0.57651100  1
  O  O24  1  0.75490500  0.45716900  0.58503000  1
  O  O25  1  0.11952800  0.46013900  0.55959000  1
  O  O26  1  0.20287900  0.51895900  0.54442300  1
  O  O27  1  0.11085300  0.53606900  0.60878700  1
  O  O28  1  0.21222100  0.44382400  0.49747300  1
  O  O29  1  0.17145100  0.49826700  0.43298300  1
  O  O30  1  0.07083300  0.59156900  0.54661100  1
  O  O31  1  0.16273200  0.57370600  0.48142200  1
  O  O32  1  0.07882200  0.51787200  0.49810200  1
