# generated using pymatgen
data_ZnH10C20N3O8
_symmetry_space_group_name_H-M   'P 1'
_cell_length_a   15.22152400
_cell_length_b   14.01897300
_cell_length_c   10.98576100
_cell_angle_alpha   90.00000000
_cell_angle_beta   89.99958200
_cell_angle_gamma   90.00000000
_symmetry_Int_Tables_number   1
_chemical_formula_structural   ZnH10C20N3O8
_chemical_formula_sum   'Zn2 H20 C40 N6 O16'
_cell_volume   2344.25301154
_cell_formula_units_Z   2
loop_
 _symmetry_equiv_pos_site_id
 _symmetry_equiv_pos_as_xyz
  1  'x, y, z'
loop_
 _atom_site_type_symbol
 _atom_site_label
 _atom_site_symmetry_multiplicity
 _atom_site_fract_x
 _atom_site_fract_y
 _atom_site_fract_z
 _atom_site_occupancy
  Zn  Zn1  1  0.50041300  0.60831600  0.49850000  1
  Zn  Zn2  1  0.49940300  0.39127200  0.49842100  1
  H  H1  1  0.35846100  0.58656700  0.22132900  1
  H  H2  1  0.64437700  0.42350200  0.77330700  1
  H  H3  1  0.35445800  0.58047900  0.77677800  1
  H  H4  1  0.64268900  0.41044900  0.21764900  1
  H  H5  1  0.06095500  0.64506600  0.44569400  1
  H  H6  1  0.93816100  0.35004900  0.46780800  1
  H  H7  1  0.93743800  0.64851800  0.55445600  1
  H  H8  1  0.06342400  0.35535300  0.57188500  1
  H  H9  1  0.21907400  0.64615800  0.44807100  1
  H  H10  1  0.78033700  0.34945900  0.47305300  1
  H  H11  1  0.77957500  0.64895800  0.54518100  1
  H  H12  1  0.22118800  0.35446500  0.55959900  1
  H  H13  1  0.36873500  0.06534000  0.42890000  1
  H  H14  1  0.63020500  0.93415900  0.42585400  1
  H  H15  1  0.63084100  0.06587300  0.56813000  1
  H  H16  1  0.36989100  0.93371900  0.57146700  1
  H  H17  1  0.37064400  0.23905500  0.42919900  1
  H  H18  1  0.62829400  0.76039500  0.42643100  1
  H  H19  1  0.62843000  0.23954600  0.56744400  1
  H  H20  1  0.37231900  0.75995400  0.57091000  1
  C  C1  1  0.32788900  0.49975700  0.49732200  1
  C  C2  1  0.67195200  0.49981800  0.50151800  1
  C  C3  1  0.50143800  0.49991700  0.25961700  1
  C  C4  1  0.49835200  0.49968500  0.73694700  1
  C  C5  1  0.36302000  0.58752600  0.12357500  1
  C  C6  1  0.63869000  0.41761800  0.87064000  1
  C  C7  1  0.35934600  0.58238300  0.87443200  1
  C  C8  1  0.63911100  0.41284000  0.11989600  1
  C  C9  1  0.29466600  0.63048900  0.06199000  1
  C  C10  1  0.70694200  0.37346300  0.93051700  1
  C  C11  1  0.29294600  0.62842200  0.93633300  1
  C  C12  1  0.70590100  0.36857900  0.05602600  1
  C  C13  1  0.43067700  0.54260500  0.93552500  1
  C  C14  1  0.56881800  0.45599800  0.06004800  1
  C  C15  1  0.43231600  0.54428100  0.06178800  1
  C  C16  1  0.56806400  0.45678900  0.93374800  1
  C  C17  1  0.49891800  0.49963800  0.87111400  1
  C  C18  1  0.50092900  0.50003500  0.12497700  1
  C  C19  1  0.09456500  0.58109900  0.47432400  1
  C  C20  1  0.90497400  0.41609900  0.48859100  1
  C  C21  1  0.90452200  0.58256200  0.53234100  1
  C  C22  1  0.09588100  0.41913200  0.54016700  1
  C  C23  1  0.18515600  0.58150600  0.47317300  1
  C  C24  1  0.81439800  0.41584100  0.48930500  1
  C  C25  1  0.81394300  0.58278200  0.52857300  1
  C  C26  1  0.18638500  0.41870100  0.53447200  1
  C  C27  1  0.23158900  0.49994000  0.50106900  1
  C  C28  1  0.76828800  0.49947700  0.50632500  1
  C  C29  1  0.04862500  0.49997900  0.50849800  1
  C  C30  1  0.95135600  0.49951600  0.51016900  1
  C  C31  1  0.42661900  0.10225000  0.46094900  1
  C  C32  1  0.57274100  0.89727300  0.45936400  1
  C  C33  1  0.57286900  0.10254000  0.53593300  1
  C  C34  1  0.42744700  0.89702600  0.53791800  1
  C  C35  1  0.42782900  0.20061600  0.46049700  1
  C  C36  1  0.57153600  0.79891200  0.45907300  1
  C  C37  1  0.57138100  0.20089000  0.53614900  1
  C  C38  1  0.42895000  0.79867000  0.53822000  1
  C  C39  1  0.49982400  0.05215300  0.49848000  1
  C  C40  1  0.50000100  0.94738800  0.49857500  1
  N  N1  1  0.49957100  0.24852900  0.49817300  1
  N  N2  1  0.50026300  0.75105000  0.49847500  1
  N  N3  1  0.77078800  0.31498700  0.12050100  1
  N  N4  1  0.22590100  0.67673900  0.86904200  1
  N  N5  1  0.77998900  0.33879700  0.86168900  1
  N  N6  1  0.22447000  0.67189400  0.12999900  1
  O  O1  1  0.36952500  0.58180300  0.49650800  1
  O  O2  1  0.63028000  0.41781700  0.49982700  1
  O  O3  1  0.63130100  0.58227700  0.50090800  1
  O  O4  1  0.36851200  0.41730000  0.49790300  1
  O  O5  1  0.50262100  0.58212700  0.31708400  1
  O  O6  1  0.49798600  0.41728900  0.67984600  1
  O  O7  1  0.49956100  0.58209600  0.67989100  1
  O  O8  1  0.49949400  0.41766900  0.31701000  1
  O  O9  1  0.79055800  0.33788300  0.23170700  1
  O  O10  1  0.79726100  0.23333400  0.07786300  1
  O  O11  1  0.20624300  0.64825900  0.75976200  1
  O  O12  1  0.19709700  0.75915400  0.90598900  1
  O  O13  1  0.76826800  0.31042600  0.75018900  1
  O  O14  1  0.85962200  0.35246700  0.90095500  1
  O  O15  1  0.14337400  0.65282100  0.10166800  1
  O  O16  1  0.24132700  0.71632800  0.23116600  1
