# generated using pymatgen
data_Fe2H42C67(NO2)8
_symmetry_space_group_name_H-M   'P 1'
_cell_length_a   17.28226400
_cell_length_b   17.16677300
_cell_length_c   17.30303600
_cell_angle_alpha   105.96309700
_cell_angle_beta   91.00670100
_cell_angle_gamma   107.52063100
_symmetry_Int_Tables_number   1
_chemical_formula_structural   Fe2H42C67(NO2)8
_chemical_formula_sum   'Fe2 H42 C67 N8 O16'
_cell_volume   4678.27477679
_cell_formula_units_Z   1
loop_
 _symmetry_equiv_pos_site_id
 _symmetry_equiv_pos_as_xyz
  1  'x, y, z'
loop_
 _atom_site_type_symbol
 _atom_site_label
 _atom_site_symmetry_multiplicity
 _atom_site_fract_x
 _atom_site_fract_y
 _atom_site_fract_z
 _atom_site_occupancy
  Fe  Fe1  1  0.51952600  0.01102100  0.35414300  1
  Fe  Fe2  1  0.46078700  0.99354200  0.66539600  1
  H  H1  1  0.00545600  0.92284400  0.22780800  1
  H  H2  1  0.71594700  0.91359600  0.98377300  1
  H  H3  1  0.97838900  0.09042000  0.78824800  1
  H  H4  1  0.26377900  0.04441900  0.99992900  1
  H  H5  1  0.93110900  0.91357000  0.01483000  1
  H  H6  1  0.05008700  0.07340900  0.99227800  1
  H  H7  1  0.06035700  0.03126800  0.69756300  1
  H  H8  1  0.28538100  0.00256200  0.85835400  1
  H  H9  1  0.33494200  0.03873400  0.11264900  1
  H  H10  1  0.26777800  0.93510200  0.30996000  1
  H  H11  1  0.12443800  0.91294700  0.27392400  1
  H  H12  1  0.93370300  0.00309900  0.30876300  1
  H  H13  1  0.64683400  0.93786200  0.88301400  1
  H  H14  1  0.71401600  0.07281100  0.70700900  1
  H  H15  1  0.85807600  0.09849800  0.74398500  1
  H  H16  1  0.17497800  0.99867900  0.63183000  1
  H  H17  1  0.49393500  0.28549100  0.44693200  1
  H  H18  1  0.50831400  0.30557500  0.73485500  1
  H  H19  1  0.49070900  0.57808000  0.33384800  1
  H  H20  1  0.49404600  0.69885500  0.28813900  1
  H  H21  1  0.47658700  0.71940600  0.57547700  1
  H  H22  1  0.51168600  0.97066000  0.08992200  1
  H  H23  1  0.55896200  0.93835800  0.99914600  1
  H  H24  1  0.48543200  0.85884700  0.03378900  1
  H  H25  1  0.62561200  0.86060700  0.06745500  1
  H  H26  1  0.57888700  0.89387500  0.15691100  1
  H  H27  1  0.65139500  0.04922100  0.16274800  1
  H  H28  1  0.69527200  0.01720100  0.07719300  1
  H  H29  1  0.81589100  0.14758100  0.55223900  1
  H  H30  1  0.91878800  0.19049100  0.52813100  1
  H  H31  1  0.84875800  0.25126200  0.53494700  1
  H  H32  1  0.86494300  0.18203500  0.39188300  1
  H  H33  1  0.76171200  0.14504600  0.41660900  1
  H  H34  1  0.78708900  0.01363800  0.43390300  1
  H  H35  1  0.89074700  0.05714000  0.42298000  1
  H  H36  1  0.68558400  0.59877500  0.77493000  1
  H  H37  1  0.61980300  0.58060100  0.85303700  1
  H  H38  1  0.71714400  0.56157700  0.85434900  1
  H  H39  1  0.60928300  0.42566500  0.80595100  1
  H  H40  1  0.66666667  0.44544600  0.72283400  1
  H  H41  1  0.56230300  0.51389800  0.69191100  1
  H  H42  1  0.49780900  0.46245500  0.75612300  1
  C  C1  1  0.20689600  0.99500500  0.12700600  1
  C  C2  1  0.14956600  0.96250800  0.17230800  1
  C  C3  1  0.07528100  0.96016800  0.13971300  1
  C  C4  1  0.16583400  0.00898600  0.06554400  1
  C  C5  1  0.00523600  0.93973900  0.17208500  1
  C  C6  1  0.92947700  0.94978200  0.14278400  1
  C  C7  1  0.87253500  0.97103000  0.19152900  1
  C  C8  1  0.80830000  0.96982300  0.14403200  1
  C  C9  1  0.82881800  0.94739100  0.06446500  1
  C  C10  1  0.78152900  0.93876200  0.98929200  1
  C  C11  1  0.81628400  0.97333000  0.93322600  1
  C  C12  1  0.77512700  0.98969700  0.87352500  1
  C  C13  1  0.83276700  0.03310900  0.83504700  1
  C  C14  1  0.90761000  0.03868700  0.86899700  1
  C  C15  1  0.97844300  0.06774700  0.84064600  1
  C  C16  1  0.05376500  0.05428800  0.86558500  1
  C  C17  1  0.11006000  0.03657200  0.81413700  1
  C  C18  1  0.17093400  0.02769400  0.85806800  1
  C  C19  1  0.15058400  0.03984500  0.93648400  1
  C  C20  1  0.19934400  0.03457500  0.00421900  1
  C  C21  1  0.10955500  0.02549100  0.73262900  1
  C  C22  1  0.17452000  0.00644600  0.69590000  1
  C  C23  1  0.23840400  0.99859500  0.74037200  1
  C  C24  1  0.23662400  0.00859200  0.82287800  1
  C  C25  1  0.28888400  0.01027400  0.14695800  1
  C  C26  1  0.31066300  0.98826800  0.21361700  1
  C  C27  1  0.25096200  0.95147200  0.25750400  1
  C  C28  1  0.16969100  0.93952400  0.23795300  1
  C  C29  1  0.87854200  0.99670600  0.27390600  1
  C  C30  1  0.81417400  0.01631700  0.31135800  1
  C  C31  1  0.74203700  0.00611000  0.26457400  1
  C  C32  1  0.74152000  0.98966400  0.17962100  1
  C  C33  1  0.69305800  0.97271300  0.85292800  1
  C  C34  1  0.67137200  0.00383400  0.79283300  1
  C  C35  1  0.73099600  0.04954600  0.75463200  1
  C  C36  1  0.81258900  0.06342600  0.77458200  1
  C  C37  1  0.66666667  0.00306800  0.30580500  1
  C  C38  1  0.49474100  0.85339500  0.37318000  1
  C  C39  1  0.39608900  0.00650800  0.24232700  1
  C  C40  1  0.48411900  0.13885200  0.46960500  1
  C  C41  1  0.49271600  0.21836800  0.53327000  1
  C  C42  1  0.49933700  0.29110800  0.51068200  1
  C  C43  1  0.50800900  0.36867600  0.56763700  1
  C  C44  1  0.51823600  0.37475800  0.64939000  1
  C  C45  1  0.50572600  0.30086100  0.67137600  1
  C  C46  1  0.49218400  0.22228500  0.61459700  1
  C  C47  1  0.48667500  0.56760700  0.48546000  1
  C  C48  1  0.50156900  0.44010900  0.53914700  1
  C  C49  1  0.48812400  0.63566700  0.37752900  1
  C  C50  1  0.48988800  0.70494000  0.35160000  1
  C  C51  1  0.48946600  0.78109600  0.40563900  1
  C  C52  1  0.48389700  0.78549600  0.48702700  1
  C  C53  1  0.47855800  0.71422400  0.51192700  1
  C  C54  1  0.48281900  0.63987700  0.45777200  1
  C  C55  1  0.58599500  0.98757900  0.76621100  1
  C  C56  1  0.49028200  0.86543700  0.54909600  1
  C  C57  1  0.30884200  0.98510300  0.69919800  1
  C  C58  1  0.48066000  0.14748500  0.64471900  1
  C  C59  1  0.67311900  0.99639500  0.12978300  1
  C  C60  1  0.60345800  0.91212000  0.10351200  1
  C  C61  1  0.53550500  0.92069700  0.05326300  1
  C  C62  1  0.82862000  0.05378700  0.40199900  1
  C  C63  1  0.82490700  0.14461900  0.42726800  1
  C  C64  1  0.85406100  0.18605300  0.51651200  1
  C  C65  1  0.54640000  0.45839100  0.71564100  1
  C  C66  1  0.62372100  0.46584300  0.76448800  1
  C  C67  1  0.66406600  0.55780300  0.81489200  1
  N  N1  1  0.08506700  0.98803900  0.07372300  1
  N  N2  1  0.90251900  0.93506400  0.06514200  1
  N  N3  1  0.89776000  0.00328700  0.93033900  1
  N  N4  1  0.07886400  0.05681600  0.94073900  1
  N  N5  1  0.46606800  0.49570200  0.58194400  1
  N  N6  1  0.45968600  0.55935500  0.55606300  1
  N  N7  1  0.51906200  0.51005000  0.44093700  1
  N  N8  1  0.52627400  0.44695900  0.46733000  1
  O  O1  1  0.60713300  0.02733900  0.28230200  1
  O  O2  1  0.49247800  0.84061800  0.29472200  1
  O  O3  1  0.65675400  0.97053800  0.36637500  1
  O  O4  1  0.50713900  0.93145600  0.42038200  1
  O  O5  1  0.41274000  0.95883700  0.28354400  1
  O  O6  1  0.45161800  0.07713900  0.23991600  1
  O  O7  1  0.54709400  0.12914700  0.43121400  1
  O  O8  1  0.41449300  0.07630900  0.45264100  1
  O  O9  1  0.56806900  0.04233400  0.73514300  1
  O  O10  1  0.53127500  0.91365400  0.76070100  1
  O  O11  1  0.42851500  0.87414300  0.58997800  1
  O  O12  1  0.55960400  0.92839400  0.56594600  1
  O  O13  1  0.47389900  0.15655600  0.72186000  1
  O  O14  1  0.37376300  0.98332000  0.73840800  1
  O  O15  1  0.47674200  0.07176200  0.59748300  1
  O  O16  1  0.31108600  0.98453400  0.62330500  1
