# Generated by REPEAT Assigner based on pymatgen
data_DB0-m3_o152_o156_f0_fsc.sym.86
_audit_creation_date              2022-05-24
_audit_creation_method            REPEAT_Assigner
_cell_length_a                    8.511939
_cell_length_b                    13.040172
_cell_length_c                    17.455564
_cell_angle_alpha                 90.615007
_cell_angle_beta                  93.317796
_cell_angle_gamma                 86.478173
_cell_volume                      1930.567331
_symmetry_space_group_name_H-M    P1
_symmetry_Int_Tables_number       1
loop_
    _symmetry_equiv_pos_site_id
    _symmetry_equiv_pos_as_xyz
    1  x,y,z
loop_
    _atom_site_type_symbol
    _atom_site_label
    _atom_site_fract_x
    _atom_site_fract_y
    _atom_site_fract_z
    _atom_type_partial_charge
    C   C1   0.144662  0.707578  0.011350  -0.153166
    C   C2   0.890678  0.290783  0.990789  -0.165237
    C   C3   0.016737  0.651822  0.021472  -0.127582
    C   C4   0.018615  0.346526  0.980665  -0.133997
    C   C5   0.867544  0.696794  0.013609  -0.038476
    C   C6   0.167799  0.301541  0.988531  -0.021691
    C   C7   0.844131  0.800974  0.004583  -0.326501
    C   C8   0.191192  0.197365  0.997564  -0.325851
    C   C9   0.972329  0.862318  0.004998  0.173079
    C   C10  0.062985  0.136031  0.997139  0.185438
    C   C11  0.122993  0.813891  0.004128  0.128006
    C   C12  0.912326  0.184466  0.998005  0.114546
    C   C13  0.952428  0.970126  0.003944  0.018162
    C   C14  0.082878  0.028225  0.998187  0.018673
    C   C15  0.230361  0.977109  0.991645  -0.185209
    C   C16  0.804943  0.021246  0.010477  -0.187525
    C   C17  0.250059  0.871885  0.996093  -0.239190
    C   C18  0.785252  0.126474  0.006030  -0.246124
    H   H1   0.034009  0.570540  0.030577  0.133088
    H   H2   0.001363  0.427809  0.971559  0.134433
    H   H3   0.723610  0.829823  0.996051  0.134426
    H   H4   0.311708  0.168511  0.006110  0.135498
    H   H5   0.700085  0.982775  0.020161  0.140340
    H   H6   0.335213  0.015579  0.981946  0.136384
    H   H7   0.668239  0.162745  0.009334  0.120652
    H   H8   0.367074  0.835618  0.992783  0.120624
    O   O1   0.356987  0.393466  0.061211  -0.704023
    O   O2   0.678392  0.604847  0.940909  -0.721739
    O   O3   0.347170  0.402900  0.929067  -0.721342
    O   O4   0.688162  0.595445  0.073090  -0.758856
    C   C19  0.300334  0.366742  0.992996  0.855466
    C   C20  0.735020  0.631578  0.009142  0.909744
    O   O5   0.338672  0.615870  0.938875  -0.714996
    O   O6   0.696717  0.382517  0.063289  -0.734181
    O   O7   0.358981  0.606339  0.070879  -0.701274
    O   O8   0.676357  0.392020  0.931244  -0.758650
    C   C21  0.295937  0.647340  0.006971  0.847830
    C   C22  0.739419  0.351041  0.995173  0.922568
    Zn  Zn1  0.508476  0.507045  0.915688  1.049264
    Zn  Zn2  0.526839  0.491304  0.086452  1.035900
    C   C23  0.502929  0.601714  0.776201  -0.279317
    C   C24  0.530477  0.396765  0.225892  -0.280238
    N   N1   0.499205  0.513290  0.815215  0.191717
    N   N2   0.535978  0.485071  0.186925  0.200341
    C   C25  0.495571  0.422588  0.777767  -0.263017
    C   C26  0.537277  0.575897  0.224294  -0.272354
    C   C27  0.508009  0.689684  0.656118  -0.319612
    C   C28  0.518657  0.309249  0.345720  -0.323982
    C   C29  0.503457  0.599877  0.696877  0.238288
    C   C30  0.525563  0.398881  0.305057  0.236786
    C   C31  0.500257  0.507360  0.658224  -0.092521
    C   C32  0.524731  0.491596  0.343553  -0.083405
    C   C33  0.495477  0.418360  0.698979  0.256485
    C   C34  0.530923  0.580472  0.302842  0.256426
    C   C35  0.491685  0.325030  0.661412  -0.218409
    C   C36  0.527768  0.674131  0.340093  -0.220109
    C   C37  0.510896  0.775994  0.535909  -0.426877
    C   C38  0.499805  0.223908  0.465165  -0.419630
    C   C39  0.510334  0.686218  0.576986  0.259182
    C   C40  0.510535  0.313087  0.424586  0.254406
    C   C41  0.509550  0.593051  0.538760  -0.117628
    C   C42  0.509872  0.406264  0.462773  -0.101565
    C   C43  0.508600  0.772934  0.456806  0.376735
    C   C44  0.485826  0.227575  0.543474  0.368072
    C   C45  0.516419  0.679104  0.418815  -0.048817
    C   C46  0.492137  0.320658  0.582209  -0.044734
    C   C47  0.504118  0.503478  0.579459  0.065264
    C   C48  0.517065  0.495711  0.422159  0.047606
    C   C49  0.502088  0.410066  0.541485  0.073425
    C   C50  0.514596  0.589341  0.459928  0.086431
    H   H9   0.507271  0.673844  0.807128  0.175100
    H   H10  0.527503  0.324547  0.195009  0.174500
    H   H11  0.509296  0.762641  0.686075  0.149024
    H   H12  0.518155  0.236239  0.315810  0.153188
    H   H13  0.491759  0.256028  0.695049  0.148443
    H   H14  0.536506  0.742567  0.306738  0.150774
    H   H15  0.508199  0.849140  0.565528  0.170919
    H   H16  0.497709  0.151095  0.435358  0.168371
    H   H17  0.494366  0.352280  0.809835  0.180724
    H   H18  0.538992  0.646158  0.192212  0.182705
    N   N3   0.494369  0.865545  0.415204  -0.643831
    C   C51  0.357016  0.878933  0.372757  0.764511
    O   O9   0.271418  0.807755  0.363083  -0.529761
    C   C52  0.308119  0.980502  0.337734  -0.560575
    H   H19  0.531987  0.930640  0.442606  0.316227
    H   H20  0.404638  0.033414  0.345626  0.127893
    H   H21  0.201572  0.013708  0.364787  0.147789
    H   H22  0.280705  0.969805  0.275380  0.177053
    N   N4   0.461951  0.136463  0.582950  -0.639978
    C   C53  0.318211  0.135623  0.611777  0.795925
    O   O10  0.236043  0.215192  0.615983  -0.541565
    C   C54  0.257403  0.037627  0.637566  -0.606044
    H   H23  0.501072  0.068225  0.558374  0.309619
    H   H24  0.348149  0.973588  0.633188  0.139115
    H   H25  0.150720  0.020324  0.601395  0.160193
    H   H26  0.226199  0.046021  0.698219  0.182225
