# generated using pymatgen
data_ZnH6C9NO4
_symmetry_space_group_name_H-M   'P 1'
_cell_length_a   11.23562900
_cell_length_b   10.94819600
_cell_length_c   9.77106900
_cell_angle_alpha   90.00405100
_cell_angle_beta   102.01481400
_cell_angle_gamma   89.99699900
_symmetry_Int_Tables_number   1
_chemical_formula_structural   ZnH6C9NO4
_chemical_formula_sum   'Zn2 H12 C18 N2 O8'
_cell_volume   1175.60803067
_cell_formula_units_Z   2
loop_
 _symmetry_equiv_pos_site_id
 _symmetry_equiv_pos_as_xyz
  1  'x, y, z'
loop_
 _atom_site_type_symbol
 _atom_site_label
 _atom_site_symmetry_multiplicity
 _atom_site_fract_x
 _atom_site_fract_y
 _atom_site_fract_z
 _atom_site_occupancy
  Zn  Zn1  1  0.50138800  0.49991900  0.65603300  1
  Zn  Zn2  1  0.49861200  0.50008100  0.34396700  1
  H  H1  1  0.88624300  0.50006700  0.37452800  1
  H  H2  1  0.11375700  0.49993300  0.62547100  1
  H  H3  1  0.63330500  0.63633400  0.15923600  1
  H  H4  1  0.36669500  0.36366700  0.84076400  1
  H  H5  1  0.91996900  0.49991100  0.69404500  1
  H  H6  1  0.08003100  0.50008900  0.30595500  1
  H  H7  1  0.63612200  0.63610600  0.90848800  1
  H  H8  1  0.36387800  0.36389400  0.09151200  1
  H  H9  1  0.49750800  0.11014700  0.28016400  1
  H  H10  1  0.50249200  0.88985300  0.71983600  1
  H  H11  1  0.49750000  0.88935000  0.28050400  1
  H  H12  1  0.50250000  0.11065100  0.71949600  1
  C  C1  1  0.50000600  0.26080400  0.49965200  1
  C  C2  1  0.49999400  0.73919600  0.50034800  1
  C  C3  1  0.26197200  0.50001600  0.44467100  1
  C  C4  1  0.73802800  0.49998400  0.55532900  1
  C  C5  1  0.57373900  0.57563800  0.08908800  1
  C  C6  1  0.42626100  0.42436200  0.91091200  1
  C  C7  1  0.57555700  0.57533100  0.94839100  1
  C  C8  1  0.42444300  0.42466900  0.05160900  1
  C  C9  1  0.12861800  0.50003300  0.41412600  1
  C  C10  1  0.87138200  0.49996700  0.58587400  1
  C  C11  1  0.06671200  0.49998700  0.51676600  1
  C  C12  1  0.93328800  0.50001300  0.48323400  1
  C  C13  1  0.49861100  0.06283600  0.37746200  1
  C  C14  1  0.50138800  0.93716500  0.62253700  1
  C  C15  1  0.49860700  0.93687900  0.37767500  1
  C  C16  1  0.50139300  0.06312100  0.62232500  1
  C  C17  1  0.49999500  0.87322900  0.50021200  1
  C  C18  1  0.50000500  0.12677100  0.49978700  1
  N  N1  1  0.50186500  0.49958300  0.86096200  1
  N  N2  1  0.49813500  0.50041700  0.13903800  1
  O  O1  1  0.50135200  0.31800300  0.61801200  1
  O  O2  1  0.49864800  0.68199700  0.38198700  1
  O  O3  1  0.49865500  0.31803600  0.38127500  1
  O  O4  1  0.50134500  0.68196400  0.61872500  1
  O  O5  1  0.32001300  0.49994400  0.57579200  1
  O  O6  1  0.67998700  0.50005700  0.42420800  1
  O  O7  1  0.31739800  0.50007900  0.33894600  1
  O  O8  1  0.68260200  0.49992200  0.66105400  1
