# Generated by REPEAT Assigner based on pymatgen
data_DB0-m9_o1_o11_f0_sra.sym.5
_audit_creation_date              2022-05-24
_audit_creation_method            REPEAT_Assigner
_cell_length_a                    6.823990
_cell_length_b                    13.900616
_cell_length_c                    16.122398
_cell_angle_alpha                 90.319221
_cell_angle_beta                  89.967561
_cell_angle_gamma                 90.006477
_cell_volume                      1529.308959
_symmetry_space_group_name_H-M    P1
_symmetry_Int_Tables_number       1
loop_
    _symmetry_equiv_pos_site_id
    _symmetry_equiv_pos_as_xyz
    1  x,y,z
loop_
    _atom_site_type_symbol
    _atom_site_label
    _atom_site_fract_x
    _atom_site_fract_y
    _atom_site_fract_z
    _atom_type_partial_charge
    O   O1   0.514795  0.581000  0.410099  -0.473054
    O   O2   0.171875  0.600861  0.584949  -0.520763
    O   O3   0.014267  0.420245  0.589716  -0.535907
    C   C1   0.346555  0.617071  0.616446  0.505561
    O   O4   0.172284  0.599478  0.414670  -0.509252
    O   O5   0.014667  0.418778  0.410205  -0.501449
    C   C2   0.347114  0.615040  0.383239  0.497482
    O   O6   0.514365  0.582658  0.589671  -0.500896
    O   O7   0.340246  0.442556  0.500102  -0.514555
    V   V1   0.065852  0.512233  0.499887  1.466006
    O   O8   0.672191  0.400318  0.415187  -0.528855
    C   C3   0.846874  0.384071  0.383674  0.504999
    O   O9   0.671720  0.401942  0.585481  -0.502030
    C   C4   0.846810  0.386232  0.616661  0.627343
    V   V2   0.565846  0.489103  0.500085  1.419394
    O   O10  0.840442  0.558783  0.499869  -0.536521
    C   C5   0.710660  0.206495  0.784179  0.169694
    C   C6   0.880109  0.182555  0.819609  -0.213072
    H   H1   0.017488  0.213191  0.799838  0.138686
    C   C7   0.700836  0.276038  0.715605  -0.087020
    C   C8   0.860690  0.317802  0.684746  -0.259426
    H   H2   0.559090  0.293496  0.689369  0.118539
    H   H3   0.004965  0.302607  0.708583  0.154400
    C   C9   0.045089  0.223966  0.217709  -0.188710
    H   H4   0.185154  0.205273  0.190730  0.159424
    C   C10  0.035630  0.290089  0.281686  -0.125294
    H   H5   0.168278  0.323140  0.304876  0.113760
    C   C11  0.856973  0.314098  0.316035  0.090432
    C   C12  0.687806  0.271869  0.286419  -0.162072
    H   H6   0.547720  0.290655  0.313331  0.149007
    C   C13  0.697256  0.205771  0.222405  -0.169010
    H   H7   0.564584  0.172826  0.199129  0.140151
    C   C14  0.875924  0.181821  0.188019  0.127787
    C   C15  0.187687  0.727229  0.715665  -0.183539
    H   H8   0.047538  0.709348  0.688419  0.148355
    C   C16  0.197402  0.791399  0.781117  -0.088245
    H   H9   0.064879  0.823921  0.805030  0.113386
    C   C17  0.376088  0.814068  0.816087  -0.029550
    C   C18  0.545094  0.772626  0.785473  -0.125496
    H   H10  0.685220  0.790411  0.812786  0.142358
    C   C19  0.535380  0.708459  0.720032  -0.133022
    H   H11  0.667880  0.675842  0.696191  0.110437
    C   C20  0.356695  0.685719  0.685107  0.099735
    C   C21  0.188360  0.724871  0.285241  -0.198796
    H   H12  0.048327  0.706958  0.312474  0.147945
    C   C22  0.197941  0.789419  0.220757  -0.155628
    H   H13  0.065462  0.822216  0.197473  0.161734
    C   C23  0.376585  0.812299  0.186080  0.114368
    C   C24  0.545679  0.770600  0.215823  0.115536
    C   C25  0.536114  0.706045  0.280327  -0.218352
    H   H14  0.668640  0.673364  0.303696  0.142205
    C   C26  0.357447  0.683248  0.315054  0.106063
    O   O11  0.218520  0.916197  0.912343  -0.557929
    O   O12  0.561299  0.897363  0.087033  -0.283445
    O   O13  0.718552  0.078147  0.092877  -0.536014
    C   C27  0.386619  0.881063  0.118305  0.255029
    O   O14  0.561072  0.897923  0.916758  -0.606501
    O   O15  0.718404  0.078652  0.913310  -0.271202
    C   C28  0.386331  0.882216  0.885112  0.677116
    O   O16  0.218781  0.915232  0.091824  -0.345372
    O   O17  0.392771  0.055145  0.003203  -0.486861
    V   V3   0.667283  0.985620  0.002490  1.308254
    O   O18  0.060868  0.097081  0.918622  -0.340058
    C   C29  0.886576  0.113084  0.887107  0.341360
    O   O19  0.061134  0.095928  0.088887  -0.577210
    C   C30  0.886187  0.112376  0.119983  0.519698
    V   V4   0.167293  0.008646  0.002807  1.344510
    O   O20  0.892682  0.939027  0.002156  -0.479285
    Cl  Cl1  0.493240  0.153706  0.819984  -0.143539
    Cl  Cl2  0.772491  0.799757  0.171789  -0.142822
