# Generated by REPEAT Assigner based on pymatgen
data_DB0-m3_o11_o25_f0_pcu.sym.126
_audit_creation_date              2022-05-24
_audit_creation_method            REPEAT_Assigner
_cell_length_a                    15.989769
_cell_length_b                    11.155399
_cell_length_c                    9.904350
_cell_angle_alpha                 89.997361
_cell_angle_beta                  89.994619
_cell_angle_gamma                 90.003405
_cell_volume                      1766.661315
_symmetry_space_group_name_H-M    P1
_symmetry_Int_Tables_number       1
loop_
    _symmetry_equiv_pos_site_id
    _symmetry_equiv_pos_as_xyz
    1  x,y,z
loop_
    _atom_site_type_symbol
    _atom_site_label
    _atom_site_fract_x
    _atom_site_fract_y
    _atom_site_fract_z
    _atom_type_partial_charge
    O   O1   0.482319  0.338181  0.610109  -0.680498
    O   O2   0.479232  0.342340  0.377905  -0.588422
    C   C1   0.480940  0.283827  0.492852  0.772165
    O   O3   0.358770  0.518560  0.622224  -0.716948
    O   O4   0.355845  0.523005  0.389567  -0.712686
    C   C2   0.318423  0.521009  0.507093  0.894474
    Zn  Zn1  0.483992  0.515616  0.653415  1.081441
    Zn  Zn2  0.479635  0.521803  0.346246  1.027973
    O   O5   0.484829  0.695200  0.622381  -0.666423
    O   O6   0.481721  0.699369  0.388862  -0.644474
    O   O7   0.607874  0.515350  0.610625  -0.672896
    O   O8   0.604926  0.519798  0.377010  -0.652092
    C   C3   0.483685  0.753170  0.506770  0.778988
    C   C4   0.645168  0.516894  0.492606  0.811589
    C   C5   0.953814  0.422211  0.561346  -0.148896
    C   C6   0.010766  0.422851  0.438312  -0.163935
    H   H1   0.037111  0.342744  0.387446  0.065742
    H   H2   0.928307  0.341521  0.612174  0.064772
    H   H3   0.934297  0.518822  0.266742  0.066426
    C   C7   0.228686  0.521223  0.508980  -0.152414
    C   C8   0.734904  0.517062  0.490710  -0.135302
    C   C9   0.006533  0.519547  0.627164  -0.182711
    C   C10  0.061863  0.520174  0.504072  0.713024
    C   C11  0.952821  0.615766  0.561362  -0.156273
    C   C12  0.901726  0.518441  0.495601  0.697045
    C   C13  0.009777  0.616406  0.438325  -0.164327
    C   C14  0.957056  0.519068  0.372509  -0.171034
    C   C15  0.153329  0.520941  0.507835  -0.406685
    C   C16  0.810261  0.517556  0.491845  -0.409790
    H   H4   0.035284  0.697096  0.387498  0.067939
    H   H5   0.926475  0.695873  0.612229  0.063737
    H   H6   0.029291  0.519791  0.732930  0.070080
    C   C17  0.489124  0.948445  0.395726  -0.103353
    C   C18  0.486137  0.884646  0.510382  -0.308049
    H   H7   0.491557  0.901363  0.300197  0.106892
    H   H8   0.488477  0.926573  0.608643  0.142028
    C   C19  0.495045  0.080825  0.388677  0.273710
    C   C20  0.477877  0.151808  0.494978  -0.401230
    H   H9   0.458874  0.113169  0.590088  0.167617
    C   C21  0.526600  0.590517  0.925597  0.045294
    N   N1   0.488358  0.510810  0.855172  -0.223932
    H   H10  0.558261  0.663675  0.874893  0.141364
    H   H11  0.468308  0.435440  0.905142  0.233953
    C   C22  0.532613  0.581399  0.074333  0.123663
    N   N2   0.476231  0.527887  0.144482  -0.230987
    H   H12  0.584192  0.625260  0.125290  0.117010
    H   H13  0.423209  0.500994  0.094413  0.237612
    C   C23  0.524243  0.131052  0.260062  -0.165551
    C   C24  0.475487  0.128018  0.143780  0.291044
    C   C25  0.387482  0.082572  0.142723  -0.329781
    C   C26  0.508223  0.170477  0.023923  -0.272500
    C   C27  0.588185  0.216293  0.019033  -0.061400
    C   C28  0.636252  0.219745  0.134215  -0.187442
    C   C29  0.604458  0.176833  0.254097  -0.041563
    H   H14  0.362996  0.062711  0.244747  0.092039
    H   H15  0.384246  0.000248  0.080162  0.084532
    H   H16  0.346537  0.151780  0.096969  0.084423
    H   H17  0.470730  0.168455  0.933124  0.131894
    H   H18  0.613142  0.249569  0.924769  0.090028
    H   H19  0.699095  0.255321  0.130408  0.117862
    H   H20  0.642949  0.178019  0.343818  0.095236
