# generated using pymatgen
data_Fe2H22C49O16
_symmetry_space_group_name_H-M   'P 1'
_cell_length_a   13.17971500
_cell_length_b   15.18027500
_cell_length_c   12.96460100
_cell_angle_alpha   100.83625700
_cell_angle_beta   100.72201200
_cell_angle_gamma   69.88783500
_symmetry_Int_Tables_number   1
_chemical_formula_structural   Fe2H22C49O16
_chemical_formula_sum   'Fe2 H22 C49 O16'
_cell_volume   2371.43362481
_cell_formula_units_Z   1
loop_
 _symmetry_equiv_pos_site_id
 _symmetry_equiv_pos_as_xyz
  1  'x, y, z'
loop_
 _atom_site_type_symbol
 _atom_site_label
 _atom_site_symmetry_multiplicity
 _atom_site_fract_x
 _atom_site_fract_y
 _atom_site_fract_z
 _atom_site_occupancy
  Fe  Fe1  1  0.48993200  0.01161400  0.20296200  1
  Fe  Fe2  1  0.49290000  0.00669600  0.75289200  1
  H  H1  1  0.10514300  0.98996100  0.71406900  1
  H  H2  1  0.93364300  0.97348800  0.69826300  1
  H  H3  1  0.78656800  0.96662000  0.77300600  1
  H  H4  1  0.20112800  0.03651600  0.18169800  1
  H  H5  1  0.05471200  0.02841100  0.25618800  1
  H  H6  1  0.88269500  0.01223900  0.24030700  1
  H  H7  1  0.44690600  0.14186700  0.48264300  1
  H  H8  1  0.19141300  0.34526400  0.32232800  1
  H  H9  1  0.19037300  0.33645300  0.64902600  1
  H  H10  1  0.13317400  0.51424600  0.40185900  1
  H  H11  1  0.95794100  0.63809700  0.38610700  1
  H  H12  1  0.00199300  0.36165500  0.55623800  1
  H  H13  1  0.76735400  0.66651300  0.29626000  1
  H  H14  1  0.52709900  0.87535700  0.47058700  1
  H  H15  1  0.77847900  0.66638200  0.62711200  1
  H  H16  1  0.88072600  0.45142900  0.69887200  1
  H  H17  1  0.73028300  0.42085400  0.75427500  1
  H  H18  1  0.55587000  0.40730500  0.72134500  1
  H  H19  1  0.51947900  0.36128300  0.58567500  1
  H  H20  1  0.46236500  0.48602600  0.63195300  1
  H  H21  1  0.54714100  0.46387500  0.44956500  1
  H  H22  1  0.69851300  0.49298900  0.39301000  1
  C  C1  1  0.20811600  0.00911900  0.85924000  1
  C  C2  1  0.11399500  0.99777200  0.79947400  1
  C  C3  1  0.03018100  0.99456500  0.84637800  1
  C  C4  1  0.93897300  0.98175600  0.78356000  1
  C  C5  1  0.85358700  0.97880600  0.82791100  1
  C  C6  1  0.21701600  0.01771100  0.97003600  1
  C  C7  1  0.13056100  0.01449800  0.01720400  1
  C  C8  1  0.03720300  0.00309400  0.95459800  1
  C  C9  1  0.95037700  0.00073600  0.99991600  1
  C  C10  1  0.85665200  0.99015900  0.93732500  1
  C  C11  1  0.76941200  0.98870700  0.98452900  1
  C  C12  1  0.13397600  0.02488600  0.12662700  1
  C  C13  1  0.04904300  0.02094800  0.17091800  1
  C  C14  1  0.95764100  0.00861200  0.10811100  1
  C  C15  1  0.87391300  0.00508200  0.15492600  1
  C  C16  1  0.77897400  0.99581500  0.09511800  1
  C  C17  1  0.69158900  0.99713400  0.15344600  1
  C  C18  1  0.60126700  0.83415700  0.28510100  1
  C  C19  1  0.31512000  0.03135400  0.03744300  1
  C  C20  1  0.35934000  0.18902900  0.29430600  1
  C  C21  1  0.61463000  0.82673900  0.65777000  1
  C  C22  1  0.66935600  0.97916200  0.91746500  1
  C  C23  1  0.36833300  0.17856600  0.66621100  1
  C  C24  1  0.29514900  0.00842900  0.80055100  1
  C  C25  1  0.32717000  0.24330100  0.39512100  1
  C  C26  1  0.23210500  0.31840200  0.39586900  1
  C  C27  1  0.18453500  0.35434100  0.48767000  1
  C  C28  1  0.23044300  0.31159900  0.57859800  1
  C  C29  1  0.32604000  0.23549000  0.57798800  1
  C  C30  1  0.37588700  0.20422700  0.48679500  1
  C  C31  1  0.06560000  0.50729400  0.43213100  1
  C  C32  1  0.96580300  0.57686000  0.42189000  1
  C  C33  1  0.87803900  0.57044800  0.46045300  1
  C  C34  1  0.89124400  0.49204700  0.50914900  1
  C  C35  1  0.99266200  0.42390600  0.52165800  1
  C  C36  1  0.07995600  0.43105600  0.48319700  1
  C  C37  1  0.73091900  0.69463300  0.36858100  1
  C  C38  1  0.64106900  0.77588100  0.37212600  1
  C  C39  1  0.59521600  0.81072800  0.46526100  1
  C  C40  1  0.64440100  0.77150600  0.55661600  1
  C  C41  1  0.73621400  0.69323300  0.55397700  1
  C  C42  1  0.77709200  0.65169400  0.45945000  1
  C  C43  1  0.79913700  0.47617900  0.54286200  1
  C  C44  1  0.80775700  0.45414300  0.64352000  1
  C  C45  1  0.72255700  0.43718900  0.67497300  1
  C  C46  1  0.62850500  0.44110000  0.60550300  1
  C  C47  1  0.53600200  0.42276900  0.63836400  1
  C  C48  1  0.62026500  0.46163300  0.50451800  1
  C  C49  1  0.70531400  0.47878800  0.47307800  1
  O  O1  1  0.59017900  0.01466000  0.10840800  1
  O  O2  1  0.64188700  0.80677800  0.19497500  1
  O  O3  1  0.71461600  0.98534600  0.25385300  1
  O  O4  1  0.53328200  0.91987500  0.30602700  1
  O  O5  1  0.36655200  0.97562300  0.11006100  1
  O  O6  1  0.34634900  0.10321000  0.03063700  1
  O  O7  1  0.46262200  0.14042800  0.28846200  1
  O  O8  1  0.28347900  0.16696400  0.22484800  1
  O  O9  1  0.51278200  0.88015700  0.66335200  1
  O  O10  1  0.69272900  0.84326800  0.72864800  1
  O  O11  1  0.62099900  0.03566500  0.84496000  1
  O  O12  1  0.63225400  0.91106800  0.92548200  1
  O  O13  1  0.27524300  0.00872500  0.69757400  1
  O  O14  1  0.45216600  0.10134400  0.65351300  1
  O  O15  1  0.39293600  0.00512300  0.84868000  1
  O  O16  1  0.31598100  0.19719500  0.74851700  1
