# Generated by REPEAT Assigner based on pymatgen
data_DB0-m2_o1_o16_f0_pcu.sym.82
_audit_creation_date              2022-05-24
_audit_creation_method            REPEAT_Assigner
_cell_length_a                    9.448301
_cell_length_b                    10.860016
_cell_length_c                    13.593156
_cell_angle_alpha                 89.996104
_cell_angle_beta                  74.522327
_cell_angle_gamma                 90.019491
_cell_volume                      1344.193747
_symmetry_space_group_name_H-M    P1
_symmetry_Int_Tables_number       1
loop_
    _symmetry_equiv_pos_site_id
    _symmetry_equiv_pos_as_xyz
    1  x,y,z
loop_
    _atom_site_type_symbol
    _atom_site_label
    _atom_site_fract_x
    _atom_site_fract_y
    _atom_site_fract_z
    _atom_type_partial_charge
    O   O1   0.376952  0.691109  0.501623  -0.545557
    O   O2   0.618516  0.692951  0.503530  -0.523680
    C   C1   0.498147  0.750076  0.500104  0.527805
    O   O3   0.324469  0.506157  0.653544  -0.626853
    O   O4   0.567296  0.518975  0.650385  -0.525303
    C   C2   0.429339  0.505798  0.700580  0.668116
    Cu  Cu1  0.357170  0.511848  0.505312  0.854377
    Cu  Cu2  0.641843  0.514239  0.501959  0.874939
    O   O5   0.380228  0.333287  0.500936  -0.530716
    O   O6   0.622256  0.334961  0.506550  -0.575620
    O   O7   0.430308  0.507914  0.356830  -0.569437
    O   O8   0.675467  0.515778  0.353803  -0.606106
    C   C3   0.502000  0.276371  0.502424  0.611116
    C   C4   0.570367  0.509183  0.307499  0.714099
    C   C5   0.783238  0.418316  0.045969  -0.177813
    H   H1   0.830750  0.430824  0.189462  0.103197
    H   H2   0.823661  0.361380  0.855370  0.151972
    H   H3   0.890255  0.380895  0.009116  0.096257
    C   C6   0.611734  0.490847  0.196433  -0.124971
    C   C7   0.241489  0.512953  0.863438  0.028594
    C   C8   0.195332  0.525323  0.967141  -0.138294
    C   C9   0.294035  0.520099  0.024539  -0.184593
    C   C10  0.440894  0.493088  0.979170  0.066614
    C   C11  0.485770  0.474331  0.873423  0.143421
    C   C12  0.542437  0.479687  0.037626  -0.015282
    C   C13  0.681093  0.434937  0.991198  0.232212
    C   C14  0.718271  0.402968  0.889911  -0.281141
    C   C15  0.623451  0.424092  0.831043  -0.118145
    C   C16  0.509444  0.508108  0.141540  -0.101329
    C   C17  0.749626  0.447081  0.147949  -0.087398
    C   C18  0.387604  0.497057  0.813937  -0.234051
    H   H4   0.406291  0.547043  0.182641  0.095593
    H   H5   0.160702  0.515173  0.821676  0.109264
    H   H6   0.247855  0.529462  0.105408  0.134518
    H   H7   0.080480  0.540697  0.003947  0.122782
    H   H8   0.657343  0.391242  0.753666  0.113711
    C   C19  0.630780  0.949065  0.472858  -0.109503
    H   H9   0.733566  0.900163  0.452353  0.132050
    C   C20  0.632350  0.076120  0.476265  -0.059390
    H   H10  0.736639  0.123431  0.460325  0.087286
    C   C21  0.502253  0.141310  0.498550  -0.055635
    C   C22  0.371242  0.077888  0.513811  -0.059390
    H   H11  0.267838  0.126427  0.529347  0.088603
    C   C23  0.369983  0.950993  0.511991  -0.168837
    H   H12  0.265942  0.904668  0.525043  0.143388
    C   C24  0.499410  0.885481  0.495074  0.040629
    C   C25  0.903194  0.596452  0.561535  0.260108
    C   C26  0.048066  0.589740  0.568137  0.150757
    N   N1   0.143861  0.510437  0.508171  -0.102315
    C   C27  0.095782  0.435299  0.444758  0.012009
    H   H13  0.170919  0.372089  0.395596  0.115214
    C   C28  0.949580  0.435905  0.443550  -0.082892
    H   H14  0.912409  0.372183  0.394627  0.161561
    N   N2   0.854649  0.517373  0.500435  -0.093959
    N   N3   0.806043  0.685251  0.619549  -0.442757
    C   C29  0.848693  0.804046  0.604088  0.744507
    O   O9   0.940646  0.833562  0.526260  -0.591033
    C   C30  0.781567  0.900842  0.680689  -0.526822
    H   H15  0.744857  0.662116  0.691668  0.294573
    H   H16  0.712156  0.858877  0.751570  0.103381
    H   H17  0.713091  0.963726  0.648768  0.155517
    H   H18  0.869775  0.956029  0.699092  0.151912
    N   N4   0.095929  0.666050  0.637502  -0.193165
    C   C31  0.017997  0.659712  0.736133  0.508739
    O   O10  0.938013  0.571924  0.766538  -0.473600
    C   C32  0.038485  0.755012  0.810354  -0.387785
    H   H19  0.135435  0.751889  0.613613  0.205548
    H   H20  0.155247  0.757403  0.811822  0.098402
    H   H21  0.969088  0.731820  0.887671  0.122197
    H   H22  0.007207  0.847021  0.788301  0.088402
