# generated using pymatgen
data_Zn2H37C59N3O8
_symmetry_space_group_name_H-M   'P 1'
_cell_length_a   13.42008000
_cell_length_b   15.30340300
_cell_length_c   11.84535200
_cell_angle_alpha   90.00000000
_cell_angle_beta   90.14438600
_cell_angle_gamma   90.00000000
_symmetry_Int_Tables_number   1
_chemical_formula_structural   Zn2H37C59N3O8
_chemical_formula_sum   'Zn2 H37 C59 N3 O8'
_cell_volume   2432.70647888
_cell_formula_units_Z   1
loop_
 _symmetry_equiv_pos_site_id
 _symmetry_equiv_pos_as_xyz
  1  'x, y, z'
loop_
 _atom_site_type_symbol
 _atom_site_label
 _atom_site_symmetry_multiplicity
 _atom_site_fract_x
 _atom_site_fract_y
 _atom_site_fract_z
 _atom_site_occupancy
  Zn  Zn1  1  0.88791200  0.50772000  0.50078900  1
  Zn  Zn2  1  0.11029000  0.50850000  0.50262000  1
  H  H1  1  0.84308300  0.29823400  0.74866200  1
  H  H2  1  0.84537200  0.73421200  0.72104500  1
  H  H3  1  0.16133100  0.30713100  0.73842300  1
  H  H4  1  0.15523600  0.68566000  0.77564800  1
  H  H5  1  0.85262900  0.17053600  0.87168400  1
  H  H6  1  0.85595900  0.86188700  0.84395400  1
  H  H7  1  0.86153800  0.20574400  0.07698600  1
  H  H8  1  0.86917700  0.80420500  0.06641700  1
  H  H9  1  0.14822100  0.27142100  0.32142500  1
  H  H10  1  0.13796800  0.75577400  0.34200500  1
  H  H11  1  0.85617400  0.33339400  0.20106300  1
  H  H12  1  0.86285000  0.67682100  0.19129000  1
  H  H13  1  0.15100700  0.14294200  0.20113000  1
  H  H14  1  0.14186100  0.88388800  0.22089000  1
  H  H15  1  0.01336500  0.00559800  0.79556200  1
  H  H16  1  0.00931600  0.01054500  0.20928300  1
  H  H17  1  0.24564000  0.50739500  0.68089600  1
  H  H18  1  0.74129300  0.50897000  0.32440800  1
  H  H19  1  0.58515600  0.51010200  0.22898100  1
  H  H20  1  0.42247100  0.50693800  0.69276800  1
  H  H21  1  0.57785500  0.50608100  0.69213500  1
  H  H22  1  0.25550300  0.51013600  0.32636700  1
  H  H23  1  0.75422300  0.50586300  0.67871700  1
  H  H24  1  0.13590200  0.08279800  0.66038000  1
  H  H25  1  0.25955100  0.07703600  0.60229600  1
  H  H26  1  0.19883800  0.18085900  0.61305400  1
  H  H27  1  0.39165800  0.07042000  0.72594400  1
  H  H28  1  0.46651700  0.09259600  0.91195100  1
  H  H29  1  0.37280500  0.16839500  0.06062600  1
  H  H30  1  0.20382200  0.22140900  0.02204300  1
  H  H31  1  0.17020700  0.93312700  0.72321600  1
  H  H32  1  0.21993300  0.83181600  0.66832300  1
  H  H33  1  0.29938400  0.92526000  0.68266700  1
  H  H34  1  0.41185600  0.91097900  0.82874900  1
  H  H35  1  0.45989400  0.85635100  0.01494300  1
  H  H36  1  0.34184900  0.76892100  0.12607000  1
  H  H37  1  0.17437300  0.73949000  0.05159500  1
  C  C1  1  0.00165000  0.31236700  0.73527800  1
  C  C2  1  0.99961100  0.70061000  0.73990600  1
  C  C3  1  0.01357400  0.08609100  0.94255700  1
  C  C4  1  0.01435100  0.92811800  0.94540200  1
  C  C5  1  0.09839500  0.20471100  0.83400500  1
  C  C6  1  0.09514500  0.79549200  0.85997000  1
  C  C7  1  0.91527900  0.27369400  0.77393200  1
  C  C8  1  0.91552500  0.74979700  0.76126600  1
  C  C9  1  0.09256200  0.27841800  0.76769900  1
  C  C10  1  0.08839100  0.72309100  0.79118100  1
  C  C11  1  0.01171600  0.16699200  0.87559600  1
  C  C12  1  0.01076000  0.84590000  0.88068500  1
  C  C13  1  0.92061700  0.20152500  0.84376400  1
  C  C14  1  0.92157200  0.82230400  0.83042100  1
  C  C15  1  0.00289100  0.31278000  0.26778800  1
  C  C16  1  0.00128300  0.70647900  0.27307400  1
  C  C17  1  0.01096600  0.08726000  0.05977800  1
  C  C18  1  0.01173800  0.92990800  0.06268300  1
  C  C19  1  0.92582500  0.22159500  0.12802600  1
  C  C20  1  0.92942200  0.79266200  0.12520100  1
  C  C21  1  0.08555000  0.25903900  0.26624300  1
  C  C22  1  0.07921600  0.76501300  0.28059000  1
  C  C23  1  0.92229300  0.29308200  0.19945000  1
  C  C24  1  0.92518600  0.72137200  0.19672500  1
  C  C25  1  0.00916500  0.16842800  0.12592100  1
  C  C26  1  0.00843900  0.85051200  0.13181900  1
  C  C27  1  0.08719700  0.18602500  0.19839700  1
  C  C28  1  0.08110100  0.83790900  0.21274600  1
  C  C29  1  0.01403300  0.00650400  0.88676500  1
  C  C30  1  0.01220600  0.00928700  0.11810000  1
  C  C31  1  0.99830300  0.62935800  0.65710200  1
  C  C32  1  0.99930600  0.38487300  0.65440500  1
  C  C33  1  0.99931200  0.63158000  0.34966500  1
  C  C34  1  0.00027500  0.38659800  0.34670500  1
  C  C35  1  0.29365300  0.50948500  0.40680700  1
  C  C36  1  0.28812800  0.50795600  0.60354700  1
  C  C37  1  0.39058400  0.50765600  0.60943600  1
  C  C38  1  0.44702700  0.50821000  0.51125200  1
  C  C39  1  0.39656400  0.50920300  0.40923900  1
  C  C40  1  0.60877700  0.50673800  0.60851500  1
  C  C41  1  0.55131500  0.50781100  0.51091000  1
  C  C42  1  0.60048500  0.50852300  0.40854200  1
  C  C43  1  0.54688800  0.50954400  0.30916800  1
  C  C44  1  0.71109200  0.50654400  0.60161800  1
  C  C45  1  0.70353300  0.50828800  0.40488100  1
  C  C46  1  0.19757200  0.16840800  0.85605700  1
  C  C47  1  0.25192700  0.12885300  0.77046600  1
  C  C48  1  0.20868700  0.11674200  0.65505700  1
  C  C49  1  0.34831600  0.10129100  0.79156400  1
  C  C50  1  0.39098800  0.11399300  0.89617800  1
  C  C51  1  0.33835600  0.15600300  0.97960800  1
  C  C52  1  0.24255500  0.18409400  0.95886200  1
  C  C53  1  0.19380000  0.81769900  0.90445100  1
  C  C54  1  0.26242500  0.86179500  0.83831800  1
  C  C55  1  0.23616900  0.88979400  0.72136200  1
  C  C56  1  0.35758700  0.87647500  0.87913100  1
  C  C57  1  0.38523100  0.84518900  0.98366400  1
  C  C58  1  0.31903500  0.79653100  0.04608600  1
  C  C59  1  0.22433700  0.78149100  0.00536300  1
  N  N1  1  0.24098100  0.50881300  0.50332300  1
  N  N2  1  0.44680700  0.50984100  0.31113300  1
  N  N3  1  0.75721300  0.50734200  0.50097800  1
  O  O1  1  0.08420000  0.60162300  0.61894100  1
  O  O2  1  0.08481200  0.41351800  0.61649100  1
  O  O3  1  0.91261100  0.59856600  0.62098000  1
  O  O4  1  0.91330400  0.41572500  0.61934100  1
  O  O5  1  0.91302700  0.60273900  0.38642000  1
  O  O6  1  0.91377500  0.41417700  0.38457600  1
  O  O7  1  0.08514800  0.60072200  0.38467600  1
  O  O8  1  0.08574600  0.41793200  0.38233800  1
