# generated using pymatgen
data_Zn2H12C29N3O8F3
_symmetry_space_group_name_H-M   'P 1'
_cell_length_a   8.53589500
_cell_length_b   11.31655700
_cell_length_c   13.40772600
_cell_angle_alpha   90.83940300
_cell_angle_beta   90.06075300
_cell_angle_gamma   107.89203900
_symmetry_Int_Tables_number   1
_chemical_formula_structural   Zn2H12C29N3O8F3
_chemical_formula_sum   'Zn2 H12 C29 N3 O8 F3'
_cell_volume   1232.35503838
_cell_formula_units_Z   1
loop_
 _symmetry_equiv_pos_site_id
 _symmetry_equiv_pos_as_xyz
  1  'x, y, z'
loop_
 _atom_site_type_symbol
 _atom_site_label
 _atom_site_symmetry_multiplicity
 _atom_site_fract_x
 _atom_site_fract_y
 _atom_site_fract_z
 _atom_site_occupancy
  Zn  Zn1  1  0.00249100  0.49664000  0.88766100  1
  Zn  Zn2  1  0.99580100  0.50113700  0.11039800  1
  H  H1  1  0.71662700  0.02001900  0.07994600  1
  H  H2  1  0.05923400  0.89233600  0.04208000  1
  H  H3  1  0.28050300  0.96892700  0.94365100  1
  H  H4  1  0.53887000  0.59087200  0.95336600  1
  H  H5  1  0.42319400  0.90258500  0.07343000  1
  H  H6  1  0.46050200  0.41168500  0.03257400  1
  H  H7  1  0.57450300  0.08660100  0.94368500  1
  H  H8  1  0.07644000  0.69754300  0.24854500  1
  H  H9  1  0.91944300  0.30249900  0.73985900  1
  H  H10  1  0.08595300  0.70860300  0.42630500  1
  H  H11  1  0.09660700  0.70607400  0.57937800  1
  H  H12  1  0.90613800  0.30794800  0.25164700  1
  C  C1  1  0.57799400  0.68625600  0.97871600  1
  C  C2  1  0.74286700  0.74626800  0.99369900  1
  C  C3  1  0.79516200  0.87027300  0.02116600  1
  C  C4  1  0.67878800  0.92670000  0.04921300  1
  C  C5  1  0.51276900  0.86068000  0.04569900  1
  C  C6  1  0.46199300  0.74196200  0.00563600  1
  C  C7  1  0.97192300  0.93951400  0.02062000  1
  C  C8  1  0.02565500  0.05656800  0.98862800  1
  C  C9  1  0.25579700  0.25210800  0.00447100  1
  C  C10  1  0.42101200  0.31402200  0.01416900  1
  C  C11  1  0.53649900  0.25567400  0.99344100  1
  C  C12  1  0.48519400  0.13201800  0.96514600  1
  C  C13  1  0.31894900  0.06589100  0.96543300  1
  C  C14  1  0.20274300  0.12542500  0.98644200  1
  C  C15  1  0.28894500  0.66618700  0.00382200  1
  C  C16  1  0.14482300  0.32738100  0.00287600  1
  C  C17  1  0.70978300  0.33104400  0.99445300  1
  C  C18  1  0.85328100  0.67042900  0.99516300  1
  C  C19  1  0.94455500  0.39576700  0.29177300  1
  C  C20  1  0.03937000  0.61230600  0.29001300  1
  C  C21  1  0.04504000  0.61749200  0.39268000  1
  C  C22  1  0.00028200  0.50867200  0.44702600  1
  C  C23  1  0.94870700  0.39712900  0.39475100  1
  C  C24  1  0.05653700  0.61429200  0.60946500  1
  C  C25  1  0.00532800  0.50717500  0.55112100  1
  C  C26  1  0.95714500  0.39436100  0.59892500  1
  C  C27  1  0.90596100  0.28542400  0.54343300  1
  C  C28  1  0.05682200  0.60693000  0.71166900  1
  C  C29  1  0.95910300  0.39043300  0.70222300  1
  N  N1  1  0.99015600  0.50259100  0.24111000  1
  N  N2  1  0.90308200  0.28876300  0.44328900  1
  N  N3  1  0.00849300  0.49620900  0.75687800  1
  O  O1  1  0.21855000  0.62625700  0.08898500  1
  O  O2  1  0.22035900  0.62590700  0.91708600  1
  O  O3  1  0.11582600  0.36849500  0.91581200  1
  O  O4  1  0.10458100  0.36819400  0.08812200  1
  O  O5  1  0.77972900  0.37132900  0.90895900  1
  O  O6  1  0.77823700  0.37142800  0.08132300  1
  O  O7  1  0.88227300  0.62909900  0.08198800  1
  O  O8  1  0.89362400  0.62948000  0.91023600  1
  F  F1  1  0.85851600  0.17422200  0.58937100  1
  F  F2  1  0.10430200  0.71354600  0.76654900  1
  F  F3  1  0.91577900  0.11337200  0.95779200  1
