# Generated by REPEAT Assigner based on pymatgen
data_DB0-m2_o19_o29_f0_nbo.sym.40_sqe
_audit_creation_date              2022-05-24
_audit_creation_method            REPEAT_Assigner
_cell_length_a                    23.423617
_cell_length_b                    23.423617
_cell_length_c                    55.307709
_cell_angle_alpha                 90.000000
_cell_angle_beta                  90.000000
_cell_angle_gamma                 90.000000
_cell_volume                      30345.450619
_symmetry_space_group_name_H-M    P1
_symmetry_Int_Tables_number       1
loop_
    _symmetry_equiv_pos_site_id
    _symmetry_equiv_pos_as_xyz
    1  x,y,z
loop_
    _atom_site_type_symbol
    _atom_site_label
    _atom_site_fract_x
    _atom_site_fract_y
    _atom_site_fract_z
    _atom_type_partial_charge
    O   O1    0.017732  0.920750  0.019521  -0.640511
    O   O2    0.079250  0.017732  0.019521  -0.640520
    O   O3    0.982268  0.079250  0.019521  -0.640542
    O   O4    0.920750  0.982268  0.019521  -0.640534
    O   O5    0.017732  0.079250  0.980479  -0.640563
    O   O6    0.079250  0.982268  0.980478  -0.640540
    O   O7    0.982268  0.920750  0.980478  -0.640532
    O   O8    0.920750  0.017732  0.980479  -0.640556
    O   O9    0.517732  0.420750  0.519521  -0.640499
    O   O10   0.579250  0.517732  0.519521  -0.640480
    O   O11   0.482268  0.579250  0.519521  -0.640462
    O   O12   0.420750  0.482268  0.519521  -0.640472
    O   O13   0.517732  0.579250  0.480478  -0.640467
    O   O14   0.579250  0.482268  0.480479  -0.640486
    O   O15   0.482268  0.420750  0.480479  -0.640499
    O   O16   0.420750  0.517732  0.480478  -0.640470
    C   C1    0.000000  0.893924  0.000000  0.958995
    C   C2    0.106076  0.000000  0.000000  0.958990
    C   C3    0.000000  0.106076  0.000000  0.959046
    C   C4    0.893924  0.000000  0.000000  0.959057
    C   C5    0.500000  0.393924  0.500000  0.958932
    C   C6    0.606076  0.500000  0.500000  0.958874
    C   C7    0.500000  0.606076  0.500000  0.958836
    C   C8    0.393924  0.500000  0.500000  0.958857
    Cu  Cu1   0.000000  0.000000  0.023075  1.001370
    Cu  Cu2   0.000000  0.000000  0.976925  1.001507
    Cu  Cu3   0.500000  0.500000  0.523075  1.001365
    Cu  Cu4   0.500000  0.500000  0.476925  1.001454
    C   C9    0.832690  0.000000  0.000000  -0.295913
    C   C10   0.000000  0.832690  0.000000  -0.295896
    C   C11   0.167310  0.000000  0.000000  -0.295874
    C   C12   0.000000  0.167310  0.000000  -0.295892
    C   C13   0.332690  0.500000  0.500000  -0.295828
    C   C14   0.500000  0.332690  0.500000  -0.295876
    C   C15   0.667310  0.500000  0.500000  -0.295825
    C   C16   0.500000  0.667310  0.500000  -0.295822
    C   C17   0.781255  0.000000  0.000000  0.115521
    C   C18   0.000000  0.781255  0.000000  0.115528
    C   C19   0.218745  0.000000  0.000000  0.115508
    C   C20   0.000000  0.218745  0.000000  0.115497
    C   C21   0.281255  0.500000  0.500000  0.115466
    C   C22   0.500000  0.281255  0.500000  0.115522
    C   C23   0.718745  0.500000  0.500000  0.115449
    C   C24   0.500000  0.718745  0.500000  0.115487
    C   C25   0.720989  0.000000  0.000000  0.068984
    C   C26   0.000000  0.720989  0.000000  0.068953
    C   C27   0.279011  0.000000  0.000000  0.068976
    C   C28   0.000000  0.279011  0.000000  0.069007
    C   C29   0.220989  0.500000  0.500000  0.069009
    C   C30   0.500000  0.220989  0.500000  0.068964
    C   C31   0.779011  0.500000  0.500000  0.069028
    C   C32   0.500000  0.779011  0.500000  0.068993
    C   C33   0.669556  0.000000  0.000000  -0.231612
    C   C34   0.000000  0.669556  0.000000  -0.231588
    C   C35   0.330444  0.000000  0.000000  -0.231603
    C   C36   0.000000  0.330444  0.000000  -0.231639
    C   C37   0.169556  0.500000  0.500000  -0.231652
    C   C38   0.500000  0.169556  0.500000  -0.231576
    C   C39   0.830444  0.500000  0.500000  -0.231669
    C   C40   0.500000  0.830444  0.500000  -0.231606
    O   O17   0.485456  0.047658  0.964652  -0.674874
    O   O18   0.952342  0.485456  0.964652  -0.674891
    O   O19   0.514544  0.952342  0.964652  -0.674881
    O   O20   0.047658  0.514544  0.964652  -0.674868
    O   O21   0.485456  0.952342  0.035348  -0.674902
    O   O22   0.952342  0.514544  0.035348  -0.674894
    O   O23   0.514544  0.047658  0.035348  -0.674937
    O   O24   0.047658  0.485456  0.035348  -0.674954
    O   O25   0.985456  0.547658  0.464652  -0.674906
    O   O26   0.452342  0.985456  0.464652  -0.674873
    O   O27   0.014544  0.452342  0.464652  -0.674937
    O   O28   0.547658  0.014544  0.464652  -0.674871
    O   O29   0.985456  0.452342  0.535348  -0.674950
    O   O30   0.452342  0.014544  0.535348  -0.674931
    O   O31   0.014544  0.547658  0.535348  -0.674921
    O   O32   0.547658  0.985456  0.535348  -0.674939
    C   C41   0.500000  0.000000  0.953259  0.809844
    C   C42   0.000000  0.500000  0.953259  0.809853
    C   C43   0.500000  0.000000  0.046741  0.809965
    C   C44   0.000000  0.500000  0.046741  0.809983
    C   C45   0.000000  0.500000  0.453259  0.810095
    C   C46   0.500000  0.000000  0.453259  0.809873
    C   C47   0.000000  0.500000  0.546741  0.810110
    C   C48   0.500000  0.000000  0.546741  0.810165
    O   O33   0.581947  0.047398  0.992888  -0.533588
    O   O34   0.952602  0.581947  0.992888  -0.533655
    O   O35   0.418053  0.952602  0.992888  -0.533641
    O   O36   0.047398  0.418053  0.992888  -0.533574
    O   O37   0.581947  0.952602  0.007112  -0.533608
    O   O38   0.952602  0.418053  0.007112  -0.533618
    O   O39   0.418053  0.047398  0.007112  -0.533669
    O   O40   0.047398  0.581947  0.007112  -0.533684
    O   O41   0.081947  0.547398  0.492888  -0.533651
    O   O42   0.452602  0.081947  0.492888  -0.533634
    O   O43   0.918053  0.452602  0.492888  -0.533711
    O   O44   0.547398  0.918053  0.492888  -0.533632
    O   O45   0.081947  0.452602  0.507112  -0.533688
    O   O46   0.452602  0.918053  0.507112  -0.533671
    O   O47   0.918053  0.547398  0.507112  -0.533658
    O   O48   0.547398  0.081947  0.507112  -0.533679
    C   C49   0.608331  0.000000  0.000000  0.758990
    C   C50   0.000000  0.608331  0.000000  0.759083
    C   C51   0.391669  0.000000  0.000000  0.759086
    C   C52   0.000000  0.391669  0.000000  0.759011
    C   C53   0.108331  0.500000  0.500000  0.759122
    C   C54   0.500000  0.108331  0.500000  0.759041
    C   C55   0.891669  0.500000  0.500000  0.759161
    C   C56   0.500000  0.891669  0.500000  0.759077
    Cu  Cu5   0.500000  0.056717  0.000000  0.980602
    Cu  Cu6   0.943283  0.500000  0.000000  0.980582
    Cu  Cu7   0.500000  0.943283  0.000000  0.980563
    Cu  Cu8   0.056717  0.500000  0.000000  0.980619
    Cu  Cu9   0.000000  0.556717  0.500000  0.980648
    Cu  Cu10  0.443283  0.000000  0.500000  0.980540
    Cu  Cu11  0.000000  0.443283  0.500000  0.980535
    Cu  Cu12  0.556717  0.000000  0.500000  0.980533
    C   C57   0.461466  0.966279  0.762523  0.052420
    C   C58   0.033721  0.461465  0.762523  0.052328
    C   C59   0.538535  0.033721  0.762523  0.052331
    C   C60   0.966279  0.538534  0.762523  0.052452
    C   C61   0.461465  0.033721  0.237477  0.052408
    C   C62   0.033721  0.538535  0.237477  0.052460
    C   C63   0.538535  0.966279  0.237477  0.052470
    C   C64   0.966279  0.461466  0.237477  0.052477
    C   C65   0.961465  0.466279  0.262523  0.052378
    C   C66   0.533721  0.961466  0.262523  0.052304
    C   C67   0.038535  0.533721  0.262523  0.052312
    C   C68   0.466279  0.038535  0.262523  0.052431
    C   C69   0.961465  0.533721  0.737477  0.052371
    C   C70   0.533721  0.038534  0.737477  0.052446
    C   C71   0.038534  0.466279  0.737477  0.052431
    C   C72   0.466279  0.961465  0.737477  0.052395
    C   C73   0.500000  0.000000  0.774968  0.032244
    C   C74   0.000000  0.500000  0.774968  0.032246
    C   C75   0.500000  0.000000  0.225032  0.032196
    C   C76   0.000000  0.500000  0.225032  0.032182
    C   C77   0.000000  0.500000  0.274968  0.032284
    C   C78   0.500000  0.000000  0.274968  0.032265
    C   C79   0.000000  0.500000  0.725032  0.032265
    C   C80   0.500000  0.000000  0.725032  0.032240
    C   C81   0.418805  0.938628  0.775467  -0.186438
    C   C82   0.061372  0.418805  0.775467  -0.186319
    C   C83   0.581195  0.061372  0.775467  -0.186336
    C   C84   0.938628  0.581194  0.775467  -0.186460
    C   C85   0.418805  0.061372  0.224533  -0.186420
    C   C86   0.061372  0.581195  0.224533  -0.186456
    C   C87   0.581195  0.938628  0.224533  -0.186450
    C   C88   0.938628  0.418806  0.224533  -0.186449
    C   C89   0.918805  0.438628  0.275467  -0.186404
    C   C90   0.561372  0.918805  0.275467  -0.186304
    C   C91   0.081195  0.561372  0.275467  -0.186302
    C   C92   0.438628  0.081195  0.275467  -0.186446
    C   C93   0.918805  0.561372  0.724533  -0.186374
    C   C94   0.561372  0.081195  0.724533  -0.186449
    C   C95   0.081195  0.438628  0.724533  -0.186425
    C   C96   0.438628  0.918805  0.724533  -0.186391
    C   C97   0.416003  0.943345  0.800217  -0.023204
    C   C98   0.056655  0.416002  0.800217  -0.023277
    C   C99   0.583998  0.056655  0.800217  -0.023271
    C   C100  0.943345  0.583997  0.800217  -0.023193
    C   C101  0.416002  0.056655  0.199783  -0.023232
    C   C102  0.056655  0.583998  0.199783  -0.023189
    C   C103  0.583997  0.943345  0.199783  -0.023232
    C   C104  0.943345  0.416003  0.199783  -0.023214
    C   C105  0.916002  0.443345  0.300217  -0.023251
    C   C106  0.556655  0.916002  0.300217  -0.023303
    C   C107  0.083998  0.556655  0.300217  -0.023323
    C   C108  0.443345  0.083998  0.300217  -0.023186
    C   C109  0.916002  0.556655  0.699783  -0.023304
    C   C110  0.556655  0.083998  0.699783  -0.023244
    C   C111  0.083997  0.443345  0.699783  -0.023272
    C   C112  0.443345  0.916002  0.699783  -0.023296
    C   C113  0.457601  0.972778  0.812635  -0.111952
    C   C114  0.027222  0.457600  0.812635  -0.111917
    C   C115  0.542399  0.027222  0.812635  -0.111931
    C   C116  0.972778  0.542399  0.812635  -0.111958
    C   C117  0.457601  0.027222  0.187365  -0.111806
    C   C118  0.027222  0.542400  0.187365  -0.111868
    C   C119  0.542399  0.972778  0.187365  -0.111804
    C   C120  0.972778  0.457601  0.187365  -0.111919
    C   C121  0.957601  0.472779  0.312635  -0.111893
    C   C122  0.527222  0.957601  0.312635  -0.111897
    C   C123  0.042399  0.527222  0.312635  -0.111857
    C   C124  0.472778  0.042399  0.312635  -0.111975
    C   C125  0.957601  0.527221  0.687365  -0.111699
    C   C126  0.527222  0.042399  0.687365  -0.111737
    C   C127  0.042399  0.472778  0.687365  -0.111736
    C   C128  0.472779  0.957601  0.687365  -0.111712
    C   C129  0.500000  0.000000  0.800002  0.091555
    C   C130  0.000000  0.500000  0.800002  0.091539
    C   C131  0.500000  0.000000  0.199998  0.091473
    C   C132  0.000000  0.500000  0.199998  0.091527
    C   C133  0.000000  0.500000  0.300002  0.091486
    C   C134  0.500000  0.000000  0.300002  0.091536
    C   C135  0.000000  0.500000  0.699998  0.091375
    C   C136  0.500000  0.000000  0.699998  0.091404
    C   C137  0.456097  0.976224  0.837588  0.421306
    C   C138  0.023776  0.456097  0.837588  0.421298
    C   C139  0.543903  0.023776  0.837588  0.421305
    C   C140  0.976224  0.543903  0.837588  0.421308
    C   C141  0.456097  0.023776  0.162412  0.421008
    C   C142  0.023776  0.543903  0.162412  0.421096
    C   C143  0.543903  0.976224  0.162412  0.421020
    C   C144  0.976224  0.456097  0.162412  0.421251
    C   C145  0.956097  0.476225  0.337588  0.421246
    C   C146  0.523776  0.956097  0.337588  0.421283
    C   C147  0.043903  0.523776  0.337588  0.421246
    C   C148  0.476224  0.043903  0.337588  0.421309
    C   C149  0.956097  0.523775  0.662412  0.420936
    C   C150  0.523776  0.043903  0.662412  0.420948
    C   C151  0.043903  0.476224  0.662412  0.420965
    C   C152  0.476225  0.956097  0.662412  0.420949
    N   N1    0.500000  0.000000  0.849947  -0.122050
    N   N2    0.000000  0.500000  0.849947  -0.122045
    N   N3    0.500000  0.000000  0.150053  -0.121673
    N   N4    0.000000  0.500000  0.150053  -0.121858
    N   N5    0.000000  0.500000  0.349947  -0.122042
    N   N6    0.500000  0.000000  0.349947  -0.122037
    N   N7    0.000000  0.500000  0.650053  -0.121665
    N   N8    0.500000  0.000000  0.650053  -0.121668
    H   H1    0.384823  0.915327  0.766830  0.134014
    H   H2    0.084673  0.384823  0.766830  0.133991
    H   H3    0.615177  0.084673  0.766830  0.133996
    H   H4    0.915327  0.615177  0.766830  0.134015
    H   H5    0.384823  0.084673  0.233170  0.134010
    H   H6    0.084673  0.615177  0.233170  0.134014
    H   H7    0.615177  0.915327  0.233170  0.134020
    H   H8    0.915327  0.384823  0.233170  0.134007
    H   H9    0.884823  0.415327  0.266830  0.133999
    H   H10   0.584673  0.884823  0.266830  0.133984
    H   H11   0.115177  0.584673  0.266830  0.133989
    H   H12   0.415327  0.115177  0.266830  0.134011
    H   H13   0.884823  0.584673  0.733170  0.133999
    H   H14   0.584673  0.115177  0.733170  0.134019
    H   H15   0.115177  0.415327  0.733170  0.134016
    H   H16   0.415327  0.884823  0.733170  0.134003
    H   H17   0.381605  0.922067  0.809599  0.129726
    H   H18   0.077933  0.381605  0.809599  0.129732
    H   H19   0.618395  0.077933  0.809599  0.129732
    H   H20   0.922067  0.618395  0.809599  0.129724
    H   H21   0.381605  0.077933  0.190401  0.129716
    H   H22   0.077933  0.618395  0.190401  0.129706
    H   H23   0.618395  0.922068  0.190401  0.129716
    H   H24   0.922067  0.381605  0.190401  0.129738
    H   H25   0.881605  0.422068  0.309599  0.129745
    H   H26   0.577932  0.881605  0.309599  0.129744
    H   H27   0.118395  0.577933  0.309599  0.129747
    H   H28   0.422067  0.118395  0.309599  0.129728
    H   H29   0.881605  0.577932  0.690401  0.129740
    H   H30   0.577933  0.118395  0.690401  0.129721
    H   H31   0.118395  0.422067  0.690401  0.129726
    H   H32   0.422068  0.881605  0.690401  0.129736
    O   O49   0.409845  0.956868  0.849406  -0.510396
    O   O50   0.043132  0.409845  0.849406  -0.510384
    O   O51   0.590155  0.043132  0.849406  -0.510382
    O   O52   0.956868  0.590155  0.849406  -0.510393
    O   O53   0.409845  0.043132  0.150594  -0.510276
    O   O54   0.043132  0.590155  0.150594  -0.510292
    O   O55   0.590155  0.956868  0.150594  -0.510285
    O   O56   0.956868  0.409845  0.150594  -0.510387
    O   O57   0.909845  0.456868  0.349406  -0.510390
    O   O58   0.543132  0.909845  0.349406  -0.510391
    O   O59   0.090155  0.543132  0.349406  -0.510390
    O   O60   0.456868  0.090155  0.349406  -0.510404
    O   O61   0.909845  0.543132  0.650594  -0.510287
    O   O62   0.543132  0.090155  0.650594  -0.510278
    O   O63   0.090155  0.456868  0.650594  -0.510269
    O   O64   0.456868  0.909845  0.650594  -0.510274
    C   C153  0.515270  0.048195  0.888722  -0.327021
    C   C154  0.951805  0.515270  0.888722  -0.326930
    C   C155  0.484730  0.951805  0.888722  -0.326880
    C   C156  0.048195  0.484729  0.888722  -0.326962
    C   C157  0.515270  0.951805  0.111278  -0.326897
    C   C158  0.951805  0.484730  0.111278  -0.326924
    C   C159  0.484730  0.048195  0.111278  -0.326893
    C   C160  0.048195  0.515271  0.111278  -0.326936
    C   C161  0.015270  0.548195  0.388722  -0.327157
    C   C162  0.451805  0.015271  0.388722  -0.326945
    C   C163  0.984730  0.451805  0.388722  -0.327142
    C   C164  0.548195  0.984730  0.388722  -0.326925
    C   C165  0.015270  0.451805  0.611278  -0.327095
    C   C166  0.451805  0.984729  0.611278  -0.327123
    C   C167  0.984730  0.548195  0.611278  -0.327094
    C   C168  0.548195  0.015270  0.611278  -0.327240
    H   H33   0.525940  0.087060  0.879222  0.182535
    H   H34   0.912940  0.525940  0.879222  0.182497
    H   H35   0.474060  0.912940  0.879222  0.182468
    H   H36   0.087060  0.474060  0.879222  0.182509
    H   H37   0.525940  0.912940  0.120778  0.182484
    H   H38   0.912940  0.474060  0.120778  0.182489
    H   H39   0.474060  0.087060  0.120778  0.182485
    H   H40   0.087060  0.525940  0.120778  0.182499
    H   H41   0.025940  0.587060  0.379222  0.182577
    H   H42   0.412940  0.025940  0.379222  0.182500
    H   H43   0.974060  0.412940  0.379222  0.182565
    H   H44   0.587060  0.974060  0.379222  0.182491
    H   H45   0.025940  0.412940  0.620778  0.182547
    H   H46   0.412940  0.974060  0.620778  0.182552
    H   H47   0.974060  0.587060  0.620778  0.182563
    H   H48   0.587060  0.025940  0.620778  0.182604
    C   C169  0.521128  0.046772  0.913559  0.194073
    C   C170  0.953228  0.521128  0.913559  0.193902
    C   C171  0.478872  0.953228  0.913559  0.193739
    C   C172  0.046772  0.478872  0.913559  0.193920
    C   C173  0.521128  0.953228  0.086441  0.193948
    C   C174  0.953228  0.478872  0.086441  0.193947
    C   C175  0.478872  0.046772  0.086441  0.193973
    C   C176  0.046772  0.521128  0.086441  0.193986
    C   C177  0.021128  0.546772  0.413559  0.194119
    C   C178  0.453228  0.021128  0.413559  0.193921
    C   C179  0.978872  0.453228  0.413559  0.194310
    C   C180  0.546772  0.978872  0.413559  0.193913
    C   C181  0.021128  0.453228  0.586441  0.194326
    C   C182  0.453228  0.978872  0.586441  0.194358
    C   C183  0.978872  0.546772  0.586441  0.194116
    C   C184  0.546772  0.021128  0.586441  0.194403
    C   C185  0.500000  0.000000  0.926549  -0.284077
    C   C186  0.000000  0.500000  0.926549  -0.284088
    C   C187  0.500000  0.000000  0.073451  -0.284146
    C   C188  0.000000  0.500000  0.073451  -0.284168
    C   C189  0.000000  0.500000  0.426549  -0.284442
    C   C190  0.500000  0.000000  0.426549  -0.284094
    C   C191  0.000000  0.500000  0.573451  -0.284426
    C   C192  0.500000  0.000000  0.573451  -0.284538
    C   C193  0.500000  0.000000  0.875954  0.282426
    C   C194  0.000000  0.500000  0.875954  0.282416
    C   C195  0.500000  0.000000  0.124046  0.282205
    C   C196  0.000000  0.500000  0.124046  0.282307
    C   C197  0.000000  0.500000  0.375954  0.282580
    C   C198  0.500000  0.000000  0.375954  0.282412
    C   C199  0.000000  0.500000  0.624046  0.282358
    C   C200  0.500000  0.000000  0.624046  0.282411
    C   C201  0.552349  0.096176  0.924792  -0.079673
    C   C202  0.609763  0.102368  0.913377  -0.028242
    C   C203  0.642873  0.146254  0.919310  -0.476948
    H   H49   0.560362  0.091433  0.944310  0.109821
    H   H50   0.527419  0.135743  0.921669  0.064788
    H   H51   0.625397  0.070833  0.900650  0.130022
    H   H52   0.628037  0.177767  0.932215  0.174968
    H   H53   0.684820  0.150535  0.911239  0.166119
    C   C204  0.903824  0.552349  0.924792  -0.079291
    C   C205  0.897632  0.609763  0.913377  -0.028349
    C   C206  0.853746  0.642873  0.919310  -0.476903
    H   H54   0.908567  0.560362  0.944310  0.109709
    H   H55   0.864257  0.527419  0.921669  0.064707
    H   H56   0.929167  0.625397  0.900650  0.130033
    H   H57   0.822233  0.628037  0.932215  0.174959
    H   H58   0.849465  0.684820  0.911239  0.166108
    C   C207  0.447651  0.903824  0.924792  -0.078896
    C   C208  0.390237  0.897632  0.913377  -0.028460
    C   C209  0.357127  0.853746  0.919310  -0.476873
    H   H59   0.439638  0.908567  0.944311  0.109552
    H   H60   0.472581  0.864257  0.921669  0.064630
    H   H61   0.374603  0.929167  0.900650  0.130056
    H   H62   0.371963  0.822233  0.932215  0.174951
    H   H63   0.315180  0.849465  0.911239  0.166105
    C   C210  0.096176  0.447651  0.924792  -0.079308
    C   C211  0.102368  0.390237  0.913377  -0.028341
    C   C212  0.146254  0.357127  0.919310  -0.476918
    H   H64   0.091433  0.439638  0.944311  0.109672
    H   H65   0.135743  0.472581  0.921669  0.064717
    H   H66   0.070833  0.374603  0.900650  0.130043
    H   H67   0.177767  0.371963  0.932215  0.174960
    H   H68   0.150535  0.315180  0.911239  0.166113
    C   C213  0.552349  0.903824  0.075208  -0.079336
    C   C214  0.609763  0.897632  0.086623  -0.028323
    C   C215  0.642873  0.853746  0.080690  -0.476904
    H   H69   0.560362  0.908567  0.055689  0.109720
    H   H70   0.527419  0.864257  0.078331  0.064713
    H   H71   0.625398  0.929167  0.099350  0.130015
    H   H72   0.628038  0.822233  0.067785  0.174957
    H   H73   0.684820  0.849464  0.088761  0.166102
    C   C216  0.903824  0.447651  0.075208  -0.079341
    C   C217  0.897632  0.390237  0.086623  -0.028313
    C   C218  0.853746  0.357127  0.080690  -0.476911
    H   H74   0.908567  0.439638  0.055689  0.109715
    H   H75   0.864257  0.472581  0.078331  0.064718
    H   H76   0.929167  0.374603  0.099350  0.130024
    H   H77   0.822233  0.371962  0.067785  0.174957
    H   H78   0.849464  0.315180  0.088761  0.166105
    C   C219  0.447651  0.096176  0.075208  -0.079411
    C   C220  0.390237  0.102368  0.086623  -0.028322
    C   C221  0.357127  0.146254  0.080690  -0.476899
    H   H79   0.439638  0.091433  0.055689  0.109756
    H   H80   0.472581  0.135743  0.078331  0.064734
    H   H81   0.374602  0.070833  0.099350  0.130014
    H   H82   0.371962  0.177767  0.067785  0.174955
    H   H83   0.315180  0.150536  0.088761  0.166102
    C   C222  0.096176  0.552349  0.075208  -0.079399
    C   C223  0.102368  0.609764  0.086623  -0.028323
    C   C224  0.146254  0.642873  0.080690  -0.476891
    H   H84   0.091433  0.560362  0.055689  0.109753
    H   H85   0.135743  0.527419  0.078331  0.064727
    H   H86   0.070833  0.625398  0.099350  0.130014
    H   H87   0.177767  0.628038  0.067785  0.174955
    H   H88   0.150536  0.684820  0.088761  0.166097
    C   C225  0.052349  0.596176  0.424792  -0.079402
    C   C226  0.109764  0.602368  0.413377  -0.028342
    C   C227  0.142873  0.646254  0.419310  -0.476910
    H   H89   0.060362  0.591433  0.444311  0.109726
    H   H90   0.027419  0.635743  0.421669  0.064730
    H   H91   0.125397  0.570833  0.400650  0.130033
    H   H92   0.128038  0.677767  0.432215  0.174972
    H   H93   0.184820  0.650535  0.411239  0.166106
    C   C228  0.403824  0.052349  0.424792  -0.079318
    C   C229  0.397632  0.109764  0.413377  -0.028330
    C   C230  0.353746  0.142873  0.419310  -0.476903
    H   H94   0.408567  0.060362  0.444311  0.109705
    H   H95   0.364257  0.027419  0.421669  0.064714
    H   H96   0.429167  0.125397  0.400650  0.130035
    H   H97   0.322233  0.128038  0.432215  0.174961
    H   H98   0.349465  0.184820  0.411239  0.166103
    C   C231  0.947651  0.403824  0.424792  -0.079918
    C   C232  0.890237  0.397632  0.413377  -0.028235
    C   C233  0.857127  0.353746  0.419310  -0.476939
    H   H99   0.939638  0.408567  0.444310  0.109945
    H   H100  0.972581  0.364258  0.421669  0.064837
    H   H101  0.874603  0.429168  0.400650  0.130021
    H   H102  0.871963  0.322233  0.432215  0.174975
    H   H103  0.815180  0.349465  0.411239  0.166115
    C   C234  0.596176  0.947651  0.424792  -0.079311
    C   C235  0.602368  0.890237  0.413377  -0.028333
    C   C236  0.646254  0.857127  0.419310  -0.476914
    H   H104  0.591433  0.939638  0.444310  0.109714
    H   H105  0.635743  0.972581  0.421669  0.064716
    H   H106  0.570832  0.874603  0.400650  0.130027
    H   H107  0.677767  0.871963  0.432215  0.174960
    H   H108  0.650535  0.815180  0.411239  0.166112
    C   C237  0.052349  0.403824  0.575208  -0.079980
    C   C238  0.109764  0.397632  0.586623  -0.028195
    C   C239  0.142873  0.353746  0.580690  -0.476945
    H   H109  0.060362  0.408567  0.555689  0.109947
    H   H110  0.027419  0.364257  0.578331  0.064853
    H   H111  0.125397  0.429167  0.599350  0.129998
    H   H112  0.128038  0.322233  0.567785  0.174979
    H   H113  0.184820  0.349465  0.588761  0.166109
    C   C240  0.403824  0.947651  0.575208  -0.079893
    C   C241  0.397632  0.890236  0.586623  -0.028255
    C   C242  0.353746  0.857127  0.580690  -0.476902
    H   H114  0.408567  0.939638  0.555689  0.109922
    H   H115  0.364258  0.972581  0.578331  0.064833
    H   H116  0.429167  0.874603  0.599350  0.130010
    H   H117  0.322233  0.871962  0.567785  0.174965
    H   H118  0.349465  0.815180  0.588761  0.166100
    C   C243  0.947651  0.596176  0.575208  -0.079416
    C   C244  0.890236  0.602368  0.586623  -0.028358
    C   C245  0.857127  0.646254  0.580690  -0.476903
    H   H119  0.939638  0.591433  0.555689  0.109762
    H   H120  0.972581  0.635742  0.578331  0.064727
    H   H121  0.874603  0.570833  0.599350  0.130024
    H   H122  0.871962  0.677767  0.567785  0.174971
    H   H123  0.815180  0.650535  0.588761  0.166101
    C   C246  0.596176  0.052349  0.575208  -0.079879
    C   C247  0.602368  0.109764  0.586623  -0.028242
    C   C248  0.646254  0.142873  0.580690  -0.476925
    H   H124  0.591433  0.060362  0.555689  0.109912
    H   H125  0.635743  0.027419  0.578331  0.064824
    H   H126  0.570833  0.125397  0.599350  0.130007
    H   H127  0.677767  0.128038  0.567785  0.174973
    H   H128  0.650535  0.184820  0.588761  0.166106
