# generated using pymatgen
data_ZnH20C28(NO4)2
_symmetry_space_group_name_H-M   'P 1'
_cell_length_a   11.87733100
_cell_length_b   13.16651300
_cell_length_c   23.43901100
_cell_angle_alpha   90.00235400
_cell_angle_beta   85.84865400
_cell_angle_gamma   91.18323700
_symmetry_Int_Tables_number   1
_chemical_formula_structural   ZnH20C28(NO4)2
_chemical_formula_sum   'Zn2 H40 C56 N4 O16'
_cell_volume   3655.06316028
_cell_formula_units_Z   2
loop_
 _symmetry_equiv_pos_site_id
 _symmetry_equiv_pos_as_xyz
  1  'x, y, z'
loop_
 _atom_site_type_symbol
 _atom_site_label
 _atom_site_symmetry_multiplicity
 _atom_site_fract_x
 _atom_site_fract_y
 _atom_site_fract_z
 _atom_site_occupancy
  Zn  Zn1  1  0.37691300  0.50966500  0.50566300  1
  Zn  Zn2  1  0.63192700  0.49343100  0.49628600  1
  H  H1  1  0.65893400  0.71327000  0.05016100  1
  H  H2  1  0.34990100  0.28983500  0.95178800  1
  H  H3  1  0.65906100  0.71842200  0.94719200  1
  H  H4  1  0.34977600  0.28468200  0.05475700  1
  H  H5  1  0.32579300  0.52406600  0.79314300  1
  H  H6  1  0.32460600  0.50367900  0.22183000  1
  H  H7  1  0.32520500  0.52465200  0.68942300  1
  H  H8  1  0.32351400  0.50210300  0.32563000  1
  H  H9  1  0.68532700  0.50098600  0.67631900  1
  H  H10  1  0.68363700  0.47845500  0.31252700  1
  H  H11  1  0.68423500  0.49941100  0.78011900  1
  H  H12  1  0.68305000  0.47904400  0.20880600  1
  H  H13  1  0.73510500  0.99888100  0.49641500  1
  H  H14  1  0.27373500  0.00421500  0.50553500  1
  H  H15  1  0.18833000  0.41199400  0.44713200  1
  H  H16  1  0.82051000  0.59110200  0.55481700  1
  H  H17  1  0.20942000  0.63026700  0.57705500  1
  H  H18  1  0.79942100  0.37283000  0.42489300  1
  H  H19  1  0.00563900  0.35920400  0.41616600  1
  H  H20  1  0.00320100  0.64389300  0.58578200  1
  H  H21  1  0.65965000  0.10292800  0.59299700  1
  H  H22  1  0.64332400  0.23900800  0.59223300  1
  H  H23  1  0.84515600  0.26165300  0.55923200  1
  H  H24  1  0.82772000  0.19207400  0.62601700  1
  H  H25  1  0.86154100  0.12523700  0.55966500  1
  H  H26  1  0.36550700  0.76408300  0.40971700  1
  H  H27  1  0.34920100  0.90016600  0.40895100  1
  H  H28  1  0.14730700  0.87788100  0.44228300  1
  H  H29  1  0.18111900  0.81103700  0.37593200  1
  H  H30  1  0.16367300  0.74146200  0.44271800  1
  H  H31  1  0.29927900  0.17608000  0.60216000  1
  H  H32  1  0.17417000  0.11265200  0.57819300  1
  H  H33  1  0.08767700  0.28084100  0.56542100  1
  H  H34  1  0.12194300  0.25916800  0.63835700  1
  H  H35  1  0.21109100  0.34227500  0.59232600  1
  H  H36  1  0.83467000  0.89044500  0.42375700  1
  H  H37  1  0.70956000  0.82701800  0.39978900  1
  H  H38  1  0.79774800  0.66082100  0.40962400  1
  H  H39  1  0.88689500  0.74392700  0.36359100  1
  H  H40  1  0.92116400  0.72225600  0.43652700  1
  C  C1  1  0.52477800  0.70069000  0.49448900  1
  C  C2  1  0.48406200  0.30240600  0.50746100  1
  C  C3  1  0.50505500  0.51051900  0.61263600  1
  C  C4  1  0.50378500  0.49257800  0.38931300  1
  C  C5  1  0.44987500  0.42025600  0.11981700  1
  C  C6  1  0.55896600  0.58284500  0.88213200  1
  C  C7  1  0.55863600  0.57106500  0.11818000  1
  C  C8  1  0.45020400  0.43203700  0.88377000  1
  C  C9  1  0.55964100  0.57495400  0.05916000  1
  C  C10  1  0.44919900  0.42814900  0.94279000  1
  C  C11  1  0.50439800  0.50006600  0.03041000  1
  C  C12  1  0.50444300  0.50303600  0.97153900  1
  C  C13  1  0.44908000  0.42221800  0.06082200  1
  C  C14  1  0.55976000  0.58088300  0.94112700  1
  C  C15  1  0.61497300  0.65340500  0.02872100  1
  C  C16  1  0.39386400  0.34969800  0.97322800  1
  C  C17  1  0.61504500  0.65635300  0.96993600  1
  C  C18  1  0.39379300  0.34675100  0.03201300  1
  C  C19  1  0.40483400  0.51873800  0.76748700  1
  C  C20  1  0.40345600  0.49716400  0.24174100  1
  C  C21  1  0.40486100  0.51945800  0.70865900  1
  C  C22  1  0.40318100  0.49660300  0.30058800  1
  C  C23  1  0.50528700  0.51286100  0.67521600  1
  C  C24  1  0.50355400  0.49023700  0.32673400  1
  C  C25  1  0.60566000  0.50649100  0.70136000  1
  C  C26  1  0.60398100  0.48364600  0.29329000  1
  C  C27  1  0.60538600  0.50593000  0.76020800  1
  C  C28  1  0.60400900  0.48436800  0.23446200  1
  C  C29  1  0.50498200  0.51156900  0.79352400  1
  C  C30  1  0.50386000  0.49153100  0.20842500  1
  C  C31  1  0.47262600  0.18976400  0.50995800  1
  C  C32  1  0.53621400  0.81333200  0.49199100  1
  C  C33  1  0.65158000  0.96495500  0.49619900  1
  C  C34  1  0.35725900  0.03814200  0.50575100  1
  C  C35  1  0.64229400  0.86093300  0.49049100  1
  C  C36  1  0.36654500  0.14216300  0.51145900  1
  C  C37  1  0.44112100  0.87418700  0.49295100  1
  C  C38  1  0.56771900  0.12890900  0.50899900  1
  C  C39  1  0.45194100  0.97882600  0.49988700  1
  C  C40  1  0.55689800  0.02427100  0.50206300  1
  C  C41  1  0.96612100  0.41078400  0.44702200  1
  C  C42  1  0.04272000  0.59231300  0.55492600  1
  C  C43  1  0.85019100  0.41849600  0.45196400  1
  C  C44  1  0.15864900  0.58460000  0.54998400  1
  C  C45  1  0.86207000  0.53993600  0.52441200  1
  C  C46  1  0.14677000  0.46316000  0.47753700  1
  C  C47  1  0.97821700  0.53393500  0.52041800  1
  C  C48  1  0.03062300  0.46916100  0.48153100  1
  C  C49  1  0.68964000  0.17475000  0.57181000  1
  C  C50  1  0.81434000  0.18939100  0.57969900  1
  C  C51  1  0.31920000  0.82834700  0.43014000  1
  C  C52  1  0.19449900  0.81372000  0.42225000  1
  C  C53  1  0.22804700  0.18247600  0.57436300  1
  C  C54  1  0.15754800  0.27224900  0.59385100  1
  C  C55  1  0.78079300  0.82062100  0.42758600  1
  C  C56  1  0.85129100  0.73084800  0.40809800  1
  N  N1  1  0.50424000  0.49423300  0.14751300  1
  N  N2  1  0.50460200  0.50886800  0.85443600  1
  N  N3  1  0.20873700  0.52048900  0.51169900  1
  N  N4  1  0.80010300  0.48260700  0.49025000  1
  O  O1  1  0.42339000  0.65848100  0.50015000  1
  O  O2  1  0.58545000  0.34461500  0.50179900  1
  O  O3  1  0.61635100  0.64623000  0.49276100  1
  O  O4  1  0.39248900  0.35686600  0.50918800  1
  O  O5  1  0.40808500  0.51464300  0.58946600  1
  O  O6  1  0.60075600  0.48845300  0.41248300  1
  O  O7  1  0.60156700  0.50233600  0.58230000  1
  O  O8  1  0.40727300  0.50076000  0.41964900  1
  O  O9  1  0.39827000  0.34326200  0.14969900  1
  O  O10  1  0.61057300  0.65983800  0.85225000  1
  O  O11  1  0.60992400  0.64532400  0.14664000  1
  O  O12  1  0.39891400  0.35777900  0.85531000  1
  O  O13  1  0.67315400  0.17145600  0.51321500  1
  O  O14  1  0.33568600  0.83164000  0.48873500  1
  O  O15  1  0.26929800  0.19653100  0.51741200  1
  O  O16  1  0.73954200  0.80656500  0.48453700  1
