# Generated by REPEAT Assigner based on pymatgen
data_DB0-m3_o15_o25_f0_pcu.sym.80_sqe
_audit_creation_date              2022-05-24
_audit_creation_method            REPEAT_Assigner
_cell_length_a                    15.995499
_cell_length_b                    11.045597
_cell_length_c                    9.882136
_cell_angle_alpha                 89.998880
_cell_angle_beta                  90.005395
_cell_angle_gamma                 90.000770
_cell_volume                      1745.974188
_symmetry_space_group_name_H-M    P1
_symmetry_Int_Tables_number       1
loop_
    _symmetry_equiv_pos_site_id
    _symmetry_equiv_pos_as_xyz
    1  x,y,z
loop_
    _atom_site_type_symbol
    _atom_site_label
    _atom_site_fract_x
    _atom_site_fract_y
    _atom_site_fract_z
    _atom_type_partial_charge
    O   O1   0.503790  0.315785  0.613227  -0.611751
    O   O2   0.496210  0.684214  0.386773  -0.611756
    O   O3   0.504641  0.323683  0.381761  -0.593064
    O   O4   0.495359  0.676316  0.618240  -0.593052
    C   C1   0.508280  0.261300  0.494360  0.710792
    C   C2   0.491720  0.738700  0.505640  0.710789
    O   O5   0.375426  0.491136  0.619214  -0.681739
    O   O6   0.624574  0.508864  0.380787  -0.681742
    O   O7   0.375540  0.500224  0.386598  -0.693567
    O   O8   0.624460  0.499776  0.613402  -0.693579
    C   C3   0.336558  0.494637  0.502820  0.848768
    C   C4   0.663442  0.505362  0.497180  0.848797
    Zn  Zn1  0.500259  0.495810  0.653976  1.015573
    Zn  Zn2  0.499741  0.504189  0.346025  1.015594
    C   C5   0.971171  0.403099  0.562865  -0.151393
    C   C6   0.028829  0.596900  0.437135  -0.151763
    C   C7   0.026206  0.401389  0.437334  -0.182138
    C   C8   0.973794  0.598611  0.562666  -0.181766
    H   H1   0.050213  0.319462  0.385393  0.086522
    H   H2   0.949787  0.680538  0.614607  0.086455
    H   H3   0.944949  0.322728  0.615041  0.064455
    H   H4   0.055051  0.677272  0.384959  0.064513
    H   H5   0.948957  0.501261  0.268414  0.062806
    H   H6   0.051043  0.498738  0.731587  0.062863
    C   C9   0.246845  0.494509  0.502547  -0.145758
    C   C10  0.753155  0.505490  0.497453  -0.145779
    C   C11  0.026655  0.499377  0.626535  -0.164080
    C   C12  0.973345  0.500622  0.373466  -0.163729
    C   C13  0.080066  0.497701  0.500987  0.709313
    C   C14  0.919934  0.502299  0.499013  0.708989
    C   C15  0.171516  0.495514  0.501977  -0.398380
    C   C16  0.828485  0.504485  0.498023  -0.398344
    H   H7   0.441683  0.081118  0.043016  0.032958
    H   H8   0.558317  0.918881  0.956984  0.032957
    C   C17  0.585199  0.117233  0.705561  -0.221700
    C   C18  0.414801  0.882766  0.294439  -0.221660
    C   C19  0.595391  0.064142  0.829838  -0.044726
    C   C20  0.404609  0.935857  0.170163  -0.044748
    C   C21  0.556652  0.956448  0.856161  0.045956
    C   C22  0.443348  0.043552  0.143840  0.045934
    C   C23  0.517329  0.894799  0.753505  -0.233222
    C   C24  0.482671  0.105200  0.246495  -0.233216
    C   C25  0.513827  0.941887  0.622752  0.160547
    C   C26  0.486173  0.058113  0.377249  0.160571
    C   C27  0.536869  0.062381  0.605735  0.131345
    C   C28  0.463131  0.937618  0.394265  0.131313
    C   C29  0.484627  0.874584  0.511598  -0.247996
    C   C30  0.515373  0.125416  0.488402  -0.248010
    H   H9   0.617926  0.201166  0.687723  0.157652
    H   H10  0.382074  0.798834  0.312277  0.157643
    H   H11  0.630659  0.109633  0.908085  0.066683
    H   H12  0.369342  0.890366  0.091916  0.066694
    H   H13  0.484108  0.814664  0.783006  0.113771
    H   H14  0.515892  0.185336  0.216994  0.113773
    H   H15  0.705892  0.781590  0.120109  0.112902
    H   H16  0.294108  0.218410  0.879891  0.112918
    C   C31  0.390295  0.354135  0.138952  -0.132232
    C   C32  0.609705  0.645865  0.861048  -0.132139
    C   C33  0.334043  0.282784  0.071449  -0.028663
    C   C34  0.665957  0.717216  0.928552  -0.028812
    C   C35  0.336146  0.277768  0.934075  -0.041491
    C   C36  0.663854  0.722231  0.065925  -0.041430
    C   C37  0.394033  0.345081  0.865212  -0.190347
    C   C38  0.605967  0.654918  0.134788  -0.190360
    C   C39  0.448207  0.424628  0.930346  0.188060
    C   C40  0.551793  0.575372  0.069654  0.188107
    C   C41  0.446257  0.429773  0.071845  0.162159
    C   C42  0.553743  0.570226  0.928155  0.162107
    N   N1   0.502044  0.494574  0.857709  -0.194107
    N   N2   0.497956  0.505426  0.142291  -0.194149
    H   H17  0.388661  0.345115  0.245349  0.176739
    H   H18  0.611339  0.654884  0.754651  0.176703
    H   H19  0.394650  0.331244  0.759269  0.178182
    H   H20  0.605350  0.668756  0.240731  0.178178
    C   C43  0.275892  0.209299  0.145509  0.365871
    N   N3   0.229012  0.150056  0.205213  -0.434753
    C   C44  0.724108  0.790701  0.854491  0.365981
    N   N4   0.770988  0.849943  0.794788  -0.434791
