# Generated by REPEAT Assigner based on pymatgen
data_DB0-m29_o99_o172_f0_pts.sym.156
_audit_creation_date              2022-05-24
_audit_creation_method            REPEAT_Assigner
_cell_length_a                    15.870852
_cell_length_b                    20.876054
_cell_length_c                    21.760873
_cell_angle_alpha                 90.563121
_cell_angle_beta                  101.280986
_cell_angle_gamma                 104.214998
_cell_volume                      6841.331874
_symmetry_space_group_name_H-M    P1
_symmetry_Int_Tables_number       1
loop_
    _symmetry_equiv_pos_site_id
    _symmetry_equiv_pos_as_xyz
    1  x,y,z
loop_
    _atom_site_type_symbol
    _atom_site_label
    _atom_site_fract_x
    _atom_site_fract_y
    _atom_site_fract_z
    _atom_type_partial_charge
    C   C1   0.202044  0.993007  0.899311  -0.048903
    H   H1   0.207583  0.988721  0.850810  0.144081
    C   C2   0.120979  0.992921  0.912935  -0.251667
    H   H2   0.063428  0.987418  0.875438  0.146520
    C   C3   0.113587  0.001066  0.974213  0.353771
    C   C4   0.186861  0.007460  0.022080  -0.196098
    H   H3   0.178630  0.011731  0.069943  0.142751
    C   C5   0.268801  0.006902  0.009036  0.007024
    C   C6   0.276539  0.001464  0.946676  -0.125185
    C   C7   0.029013  0.001707  0.988158  -0.210729
    C   C8   0.957931  0.001931  0.999904  -0.082332
    C   C9   0.799680  0.995814  0.968039  -0.285105
    H   H4   0.807722  0.994296  0.919940  0.169423
    C   C10  0.717249  0.992603  0.982217  0.060054
    C   C11  0.709724  0.993557  0.045275  -0.223752
    C   C12  0.785808  0.001655  0.092194  0.454523
    C   C13  0.866788  0.005258  0.076549  -0.323605
    H   H5   0.925020  0.008907  0.113082  0.180606
    C   C14  0.873608  0.001435  0.014906  0.295978
    O   O1   0.515843  0.074660  0.810796  -0.587515
    C   C15  0.448821  0.101819  0.795033  0.565885
    O   O2   0.428441  0.059130  0.949165  -0.514310
    O   O3   0.372031  0.074202  0.809071  -0.566127
    O   O4   0.366425  0.967531  0.882882  -0.676879
    C   C16  0.361814  0.007696  0.928154  0.876991
    Fe  Fe1  0.480831  0.992841  0.854799  1.426152
    O   O5   0.567708  0.002555  0.936960  -0.483521
    O   O6   0.651368  0.977393  0.871898  -0.529106
    C   C17  0.642006  0.989580  0.929098  0.575563
    O   O7   0.476762  0.923459  0.789098  -0.559859
    O   O8   0.481886  0.863917  0.875969  -0.506358
    C   C18  0.477276  0.867184  0.815269  0.598690
    O   O9   0.502550  0.057954  0.205437  -0.477382
    O   O10  0.548452  0.128678  0.133020  -0.501607
    C   C19  0.528867  0.118687  0.188539  0.553870
    O   O11  0.413473  0.989236  0.053542  -0.474334
    O   O12  0.336792  0.024316  0.118872  -0.522479
    C   C20  0.343425  0.008565  0.061833  0.526942
    O   O13  0.589240  0.955966  0.247423  -0.550637
    O   O14  0.614710  0.024322  0.107584  -0.527450
    C   C21  0.623535  0.984041  0.063867  0.720820
    O   O15  0.466659  0.908341  0.173120  -0.614540
    C   C22  0.523215  0.904734  0.225042  0.578449
    O   O16  0.559750  0.930760  0.043231  -0.531095
    Fe  Fe2  0.500346  0.994249  0.135078  1.354716
    C   C23  0.497773  0.380264  0.430255  0.041600
    C   C24  0.449335  0.317024  0.438258  -0.109680
    C   C25  0.565622  0.344367  0.566510  -0.120946
    C   C26  0.506867  0.383219  0.568736  0.020297
    C   C27  0.499411  0.436375  0.531202  0.069971
    C   C28  0.504273  0.437054  0.467705  0.036761
    C   C29  0.492870  0.493195  0.560974  -0.176861
    C   C30  0.496817  0.552300  0.531933  0.013175
    C   C31  0.509977  0.554595  0.470160  0.106271
    C   C32  0.510409  0.496623  0.438871  -0.212677
    C   C33  0.482175  0.604851  0.565676  0.045492
    C   C34  0.441792  0.652982  0.539739  -0.133689
    C   C35  0.585217  0.672163  0.466929  -0.116861
    C   C36  0.529433  0.613029  0.439046  -0.025372
    H   H6   0.517105  0.498806  0.390676  0.183955
    H   H7   0.485959  0.491068  0.608977  0.161702
    C   C37  0.590360  0.723264  0.427309  -0.204531
    C   C38  0.539010  0.704474  0.368018  0.114282
    S   S1   0.486230  0.617556  0.356950  -0.020838
    S   S2   0.507431  0.612211  0.650078  -0.035650
    C   C39  0.468576  0.685574  0.644192  0.096761
    C   C40  0.436214  0.698864  0.583523  -0.173878
    C   C41  0.562833  0.297406  0.610617  -0.207100
    C   C42  0.502125  0.299304  0.647717  0.133175
    S   S3   0.446700  0.363968  0.630733  -0.035452
    S   S4   0.546678  0.383970  0.362132  -0.052164
    C   C43  0.504832  0.295929  0.352575  0.121956
    C   C44  0.454716  0.269919  0.395673  -0.197769
    C   C45  0.525509  0.748978  0.322296  -0.041872
    C   C46  0.471458  0.724725  0.696559  -0.048553
    C   C47  0.482313  0.254452  0.692685  -0.105426
    C   C48  0.521089  0.258020  0.305689  -0.059989
    S   S5   0.579490  0.835916  0.332474  0.032651
    C   C49  0.514633  0.842688  0.256680  0.032338
    C   C50  0.459891  0.783486  0.229152  -0.178180
    C   C51  0.466268  0.730885  0.265655  -0.122378
    C   C52  0.566655  0.285518  0.260484  -0.090984
    C   C53  0.573125  0.239157  0.217813  -0.169780
    C   C54  0.534073  0.175385  0.230040  0.025818
    S   S6   0.484805  0.169193  0.297784  0.066798
    S   S7   0.537503  0.189627  0.713126  0.078855
    C   C55  0.458374  0.162992  0.762177  0.057719
    C   C56  0.400023  0.202060  0.761787  -0.219409
    C   C57  0.414024  0.253768  0.723662  -0.055241
    C   C58  0.498806  0.706484  0.760334  -0.104981
    C   C59  0.499556  0.754521  0.803884  -0.155000
    C   C60  0.475974  0.808961  0.777409  -0.015214
    S   S8   0.447264  0.804142  0.693161  0.077011
    H   H8   0.628358  0.773130  0.442829  0.180417
    H   H9   0.407320  0.739865  0.570827  0.162912
    H   H10  0.603494  0.262459  0.614413  0.175069
    H   H11  0.421458  0.218226  0.396288  0.175102
    H   H12  0.417102  0.778334  0.183217  0.180628
    H   H13  0.427183  0.681125  0.250858  0.160552
    H   H14  0.593517  0.337860  0.257115  0.162958
    H   H15  0.605203  0.251920  0.178546  0.160693
    H   H16  0.347339  0.192680  0.787916  0.181022
    H   H17  0.372268  0.287951  0.717608  0.148802
    H   H18  0.516391  0.660900  0.773218  0.164427
    H   H19  0.518918  0.750433  0.853859  0.163838
    H   H20  0.408685  0.304685  0.472973  0.128961
    H   H21  0.611019  0.350695  0.534635  0.132235
    H   H22  0.414372  0.654512  0.490445  0.140210
    H   H23  0.620919  0.678465  0.515170  0.141440
    N   N1   0.781043  0.000265  0.156389  -0.691986
    C   C61  0.814507  0.059042  0.189690  0.852231
    O   O17  0.857262  0.106147  0.166909  -0.573612
    C   C62  0.798301  0.067291  0.254182  -0.556886
    H   H24  0.729335  0.967538  0.170339  0.288751
    H   H25  0.763531  0.019309  0.269555  0.155793
    H   H26  0.757388  0.103358  0.254472  0.149433
    H   H27  0.862843  0.086103  0.287243  0.128663
