# generated using pymatgen
data_Fe2H14C41O17
_symmetry_space_group_name_H-M   'P 1'
_cell_length_a   16.25523900
_cell_length_b   9.36112200
_cell_length_c   15.21501500
_cell_angle_alpha   94.29581100
_cell_angle_beta   86.16780600
_cell_angle_gamma   108.61968100
_symmetry_Int_Tables_number   1
_chemical_formula_structural   Fe2H14C41O17
_chemical_formula_sum   'Fe2 H14 C41 O17'
_cell_volume   2185.62408450
_cell_formula_units_Z   1
loop_
 _symmetry_equiv_pos_site_id
 _symmetry_equiv_pos_as_xyz
  1  'x, y, z'
loop_
 _atom_site_type_symbol
 _atom_site_label
 _atom_site_symmetry_multiplicity
 _atom_site_fract_x
 _atom_site_fract_y
 _atom_site_fract_z
 _atom_site_occupancy
  Fe  Fe1  1  0.51853300  0.05642700  0.15980800  1
  Fe  Fe2  1  0.48523600  0.94738600  0.84166500  1
  H  H1  1  0.16977700  0.91438700  0.88212800  1
  H  H2  1  0.23284700  0.12705300  0.18261100  1
  H  H3  1  0.04974100  0.88632400  0.83980700  1
  H  H4  1  0.91116100  0.86360800  0.79358900  1
  H  H5  1  0.09445900  0.15032900  0.20615900  1
  H  H6  1  0.95592500  0.12771700  0.15972600  1
  H  H7  1  0.77189100  0.88340500  0.81802000  1
  H  H8  1  0.83282600  0.08353100  0.12104100  1
  H  H9  1  0.53466300  0.52365800  0.19254900  1
  H  H10  1  0.49132300  0.81792600  0.40173100  1
  H  H11  1  0.46878000  0.47374900  0.80962500  1
  H  H12  1  0.49947500  0.17930700  0.59233100  1
  H  H13  1  0.51696600  0.25863500  0.45043800  1
  H  H14  1  0.48017200  0.87176400  0.54150200  1
  C  C1  1  0.27986000  0.03789700  0.06490000  1
  C  C2  1  0.26158800  0.97975900  0.97924600  1
  C  C3  1  0.17991500  0.95939300  0.94873300  1
  C  C4  1  0.21743900  0.07791400  0.11678000  1
  C  C5  1  0.13655300  0.05814200  0.08596000  1
  C  C6  1  0.11574000  0.99824400  0.00158300  1
  C  C7  1  0.03252000  0.98203400  0.97229300  1
  C  C8  1  0.00839500  0.92349400  0.88766500  1
  C  C9  1  0.92771300  0.90948300  0.85977300  1
  C  C10  1  0.07743900  0.10204500  0.14049400  1
  C  C11  1  0.99662400  0.08722600  0.11270800  1
  C  C12  1  0.97200600  0.02600300  0.02867200  1
  C  C13  1  0.88851600  0.00848300  0.99973400  1
  C  C14  1  0.86808200  0.95085200  0.91489100  1
  C  C15  1  0.78710600  0.93092500  0.88418700  1
  C  C16  1  0.82361500  0.04328200  0.05351500  1
  C  C17  1  0.74207900  0.02344500  0.02293200  1
  C  C18  1  0.72427200  0.96839000  0.93678700  1
  C  C19  1  0.67405400  0.04590100  0.08623200  1
  C  C20  1  0.52046800  0.79894300  0.23063100  1
  C  C21  1  0.36613100  0.07447300  0.10010900  1
  C  C22  1  0.51383100  0.28609300  0.28252300  1
  C  C23  1  0.48980800  0.71199600  0.72378100  1
  C  C24  1  0.63766700  0.93072000  0.90230700  1
  C  C25  1  0.47908300  0.19785800  0.76864600  1
  C  C26  1  0.32910300  0.95469600  0.91602000  1
  C  C27  1  0.51848500  0.43736400  0.32043100  1
  C  C28  1  0.52595200  0.54774800  0.26246900  1
  C  C29  1  0.51628800  0.68410800  0.29257300  1
  C  C30  1  0.49968100  0.71089800  0.38114300  1
  C  C31  1  0.49635400  0.60461200  0.44128300  1
  C  C32  1  0.50684400  0.46784400  0.41080300  1
  C  C33  1  0.47968100  0.63239300  0.53104000  1
  C  C34  1  0.48319200  0.52997400  0.59159500  1
  C  C35  1  0.49327000  0.39364500  0.56025200  1
  C  C36  1  0.50513700  0.36324100  0.47106100  1
  C  C37  1  0.47745300  0.56009300  0.68291100  1
  C  C38  1  0.47253400  0.44866300  0.73928600  1
  C  C39  1  0.47991100  0.31156600  0.70727400  1
  C  C40  1  0.49190000  0.28549200  0.61781100  1
  C  C41  1  0.44586900  0.75741500  0.55941400  1
  O  O1  1  0.60333600  0.06434700  0.05933100  1
  O  O2  1  0.53475700  0.77372200  0.14587200  1
  O  O3  1  0.68172700  0.03917700  0.17103100  1
  O  O4  1  0.50941300  0.92753000  0.25963400  1
  O  O5  1  0.39977400  0.96741600  0.11176900  1
  O  O6  1  0.40595000  0.21351200  0.12888700  1
  O  O7  1  0.55776300  0.27148900  0.20844800  1
  O  O8  1  0.45340900  0.16746500  0.31225900  1
  O  O9  1  0.44476700  0.73050000  0.79625300  1
  O  O10  1  0.55331100  0.82699000  0.69451800  1
  O  O11  1  0.60479700  0.03756900  0.88785200  1
  O  O12  1  0.59642900  0.79017900  0.87746500  1
  O  O13  1  0.31926900  0.95286500  0.83097000  1
  O  O14  1  0.49332700  0.07176700  0.73988700  1
  O  O15  1  0.40180200  0.94425800  0.94293200  1
  O  O16  1  0.46460600  0.22204900  0.85347200  1
  O  O17  1  0.37810300  0.73275600  0.60396500  1
