data_DB0-m3_o11_o29_f0_pcu.sym.29_repeat
_audit_creation_date              2024-02-20
_audit_creation_method            'Materials Studio'
_symmetry_space_group_name_H-M    'P1'
_symmetry_Int_Tables_number       1
_symmetry_cell_setting            triclinic
loop_
_symmetry_equiv_pos_as_xyz
  x,y,z
_cell_length_a                    27.6524
_cell_length_b                    11.1387
_cell_length_c                    9.9056
_cell_angle_alpha                 89.9974
_cell_angle_beta                  89.9930
_cell_angle_gamma                 89.9936
loop_
_atom_site_label
_atom_site_type_symbol
_atom_site_fract_x
_atom_site_fract_y
_atom_site_fract_z
_atom_site_U_iso_or_equiv
_atom_site_adp_type
_atom_site_occupancy
O1     O     0.49907   0.31987   0.61488   0.00000  Uiso   1.00
O2     O     0.50096   0.31877   0.38239   0.00000  Uiso   1.00
C1     C     0.49989   0.26324   0.49898   0.00000  Uiso   1.00
O3     O     0.42678   0.49866   0.60436   0.00000  Uiso   1.00
O4     O     0.42878   0.49744   0.37191   0.00000  Uiso   1.00
C2     C     0.40510   0.49797   0.48670   0.00000  Uiso   1.00
Zn1    Zn    0.49827   0.49919   0.64871   0.00000  Uiso   1.00
Zn2    Zn    0.50126   0.49704   0.34165   0.00000  Uiso   1.00
O5     O     0.49900   0.67734   0.60847   0.00000  Uiso   1.00
O6     O     0.50100   0.67669   0.37503   0.00000  Uiso   1.00
O7     O     0.57078   0.49900   0.61881   0.00000  Uiso   1.00
O8     O     0.57280   0.49748   0.38562   0.00000  Uiso   1.00
C3     C     0.49987   0.73290   0.49191   0.00000  Uiso   1.00
C4     C     0.59441   0.49819   0.50366   0.00000  Uiso   1.00
C5     C     0.17529   0.41623   0.41740   0.00000  Uiso   1.00
O9     O     0.19939   0.32737   0.35498   0.00000  Uiso   1.00
N1     N     0.20011   0.50359   0.48107   0.00000  Uiso   1.00
C6     C     0.17641   0.59166   0.54686   0.00000  Uiso   1.00
C7     C     0.27734   0.50473   0.36189   0.00000  Uiso   1.00
C8     C     0.32725   0.50320   0.36303   0.00000  Uiso   1.00
C9     C     0.32633   0.49485   0.60391   0.00000  Uiso   1.00
C10    C     0.27651   0.49621   0.60247   0.00000  Uiso   1.00
C11    C     0.25175   0.50150   0.48164   0.00000  Uiso   1.00
C12    C     0.10034   0.50428   0.48697   0.00000  Uiso   1.00
C13    C     0.12522   0.41564   0.41958   0.00000  Uiso   1.00
C14    C     0.09997   0.32676   0.35429   0.00000  Uiso   1.00
C15    C     0.12639   0.59294   0.55064   0.00000  Uiso   1.00
C16    C     0.35205   0.49851   0.48421   0.00000  Uiso   1.00
H1     H     0.34465   0.49058   0.70012   0.00000  Uiso   1.00
H2     H     0.25694   0.49200   0.69684   0.00000  Uiso   1.00
H3     H     0.11838   0.25746   0.29787   0.00000  Uiso   1.00
C17    C     0.64748   0.49827   0.50626   0.00000  Uiso   1.00
C18    C     0.97405   0.40719   0.44238   0.00000  Uiso   1.00
C19    C     0.97494   0.59968   0.55273   0.00000  Uiso   1.00
C20    C     0.94946   0.50334   0.49985   0.00000  Uiso   1.00
C21    C     0.94740   0.30839   0.39912   0.00000  Uiso   1.00
C22    C     0.89792   0.30812   0.40589   0.00000  Uiso   1.00
C23    C     0.87352   0.40573   0.45631   0.00000  Uiso   1.00
C24    C     0.89904   0.50309   0.50427   0.00000  Uiso   1.00
C25    C     0.87362   0.59972   0.55615   0.00000  Uiso   1.00
C26    C     0.82314   0.59635   0.55785   0.00000  Uiso   1.00
N2     N     0.79934   0.49981   0.51010   0.00000  Uiso   1.00
C27    C     0.82361   0.40518   0.46008   0.00000  Uiso   1.00
C28    C     0.72212   0.50482   0.62881   0.00000  Uiso   1.00
C29    C     0.67222   0.50411   0.62748   0.00000  Uiso   1.00
C30    C     0.67326   0.49269   0.38671   0.00000  Uiso   1.00
C31    C     0.72308   0.49278   0.38842   0.00000  Uiso   1.00
C32    C     0.74773   0.49905   0.50928   0.00000  Uiso   1.00
O10    O     0.79896   0.30907   0.41545   0.00000  Uiso   1.00
C33    C     0.02452   0.41107   0.43081   0.00000  Uiso   1.00
C34    C     0.05001   0.50408   0.49099   0.00000  Uiso   1.00
C35    C     0.02561   0.59670   0.55545   0.00000  Uiso   1.00
C36    C     0.05038   0.32446   0.35925   0.00000  Uiso   1.00
H4     H     0.65300   0.50848   0.72235   0.00000  Uiso   1.00
H5     H     0.74109   0.50881   0.72414   0.00000  Uiso   1.00
H6     H     0.87888   0.22945   0.37064   0.00000  Uiso   1.00
H7     H     0.96338   0.22672   0.36256   0.00000  Uiso   1.00
H8     H     0.03365   0.25423   0.30142   0.00000  Uiso   1.00
O11    O     0.20161   0.67992   0.60692   0.00000  Uiso   1.00
C37    C     0.10237   0.68181   0.61950   0.00000  Uiso   1.00
H9     H     0.34644   0.50651   0.26807   0.00000  Uiso   1.00
H10    H     0.25840   0.51003   0.26659   0.00000  Uiso   1.00
H11    H     0.12179   0.75114   0.67314   0.00000  Uiso   1.00
C38    C     0.94894   0.69780   0.60042   0.00000  Uiso   1.00
C39    C     0.89927   0.69834   0.60268   0.00000  Uiso   1.00
O12    O     0.79719   0.68977   0.60380   0.00000  Uiso   1.00
C40    C     0.05277   0.68370   0.62250   0.00000  Uiso   1.00
H12    H     0.96580   0.77947   0.63366   0.00000  Uiso   1.00
H13    H     0.65498   0.48813   0.29046   0.00000  Uiso   1.00
H14    H     0.74276   0.48931   0.29419   0.00000  Uiso   1.00
H15    H     0.03719   0.75373   0.68310   0.00000  Uiso   1.00
C41    C     0.50085   0.93275   0.38607   0.00000  Uiso   1.00
C42    C     0.49987   0.86432   0.49701   0.00000  Uiso   1.00
H16    H     0.50167   0.88995   0.28787   0.00000  Uiso   1.00
H17    H     0.49898   0.90271   0.59689   0.00000  Uiso   1.00
C43    C     0.50079   0.06586   0.38889   0.00000  Uiso   1.00
C44    C     0.49998   0.13169   0.50229   0.00000  Uiso   1.00
H18    H     0.50145   0.11109   0.29209   0.00000  Uiso   1.00
H19    H     0.49934   0.09144   0.60130   0.00000  Uiso   1.00
C45    C     0.52449   0.57101   0.91923   0.00000  Uiso   1.00
N3     N     0.49605   0.50325   0.85048   0.00000  Uiso   1.00
H20    H     0.55077   0.62622   0.86692   0.00000  Uiso   1.00
H21    H     0.46757   0.46482   0.90109   0.00000  Uiso   1.00
C46    C     0.52065   0.58086   0.06785   0.00000  Uiso   1.00
N4     N     0.50420   0.49411   0.13991   0.00000  Uiso   1.00
H22    H     0.53397   0.66129   0.11687   0.00000  Uiso   1.00
H23    H     0.49776   0.41436   0.09110   0.00000  Uiso   1.00
N5     N     0.87558   0.80261   0.65343   0.00000  Uiso   1.00
H24    H     0.88648   0.87568   0.59483   0.00000  Uiso   1.00
H25    H     0.88749   0.81642   0.75224   0.00000  Uiso   1.00
