# Generated by REPEAT Assigner based on pymatgen
data_DB0-m3_o17_o114_f0_fsc.sym.53
_audit_creation_date              2022-05-24
_audit_creation_method            REPEAT_Assigner
_cell_length_a                    12.371381
_cell_length_b                    13.336627
_cell_length_c                    6.567730
_cell_angle_alpha                 90.000000
_cell_angle_beta                  80.139803
_cell_angle_gamma                 90.000000
_cell_volume                      1067.619378
_symmetry_space_group_name_H-M    P1
_symmetry_Int_Tables_number       1
loop_
    _symmetry_equiv_pos_site_id
    _symmetry_equiv_pos_as_xyz
    1  x,y,z
loop_
    _atom_site_type_symbol
    _atom_site_label
    _atom_site_fract_x
    _atom_site_fract_y
    _atom_site_fract_z
    _atom_type_partial_charge
    C   C1   0.244955  0.015944  0.180620  -0.030049
    C   C2   0.148435  0.037229  0.310958  -0.039394
    C   C3   0.049934  0.033277  0.241408  -0.197329
    C   C4   0.243488  0.994409  0.975382  -0.146380
    C   C5   0.144128  0.987999  0.906290  0.233468
    C   C6   0.046829  0.006363  0.039274  -0.102989
    C   C7   0.948367  0.000074  0.966056  0.091651
    C   C8   0.848904  0.014657  0.094282  -0.160114
    C   C9   0.751937  0.007769  0.019092  -0.143083
    N   N1   0.142989  0.965308  0.706947  0.064173
    C   C10  0.048082  0.959337  0.633379  -0.239267
    C   C11  0.949509  0.976747  0.761598  0.129118
    C   C12  0.852476  0.971463  0.684599  -0.174033
    C   C13  0.753109  0.987645  0.812405  -0.100076
    H   H1   0.149913  0.056032  0.470369  0.136100
    H   H2   0.854420  0.956096  0.522396  0.104421
    H   H3   0.976896  0.050993  0.349524  0.096842
    H   H4   0.843645  0.027501  0.257344  0.154553
    H   H5   0.049059  0.940019  0.473369  0.180990
    O   O1   0.380153  0.921236  0.312310  -0.682705
    O   O2   0.381722  0.093686  0.338542  -0.688680
    C   C14  0.344526  0.010383  0.270682  0.740387
    O   O3   0.383694  0.082963  0.756546  -0.663034
    O   O4   0.378895  0.910311  0.732009  -0.685005
    C   C15  0.344002  0.995080  0.821551  0.768920
    O   O5   0.616430  0.080972  0.680814  -0.734114
    O   O6   0.614976  0.908658  0.654673  -0.731809
    C   C16  0.653273  0.992123  0.720693  0.887724
    O   O7   0.612852  0.919114  0.236681  -0.710811
    O   O8   0.617666  0.091934  0.261231  -0.720621
    C   C17  0.651366  0.007081  0.170514  0.878658
    Zn  Zn1  0.500136  0.113357  0.510123  1.062573
    Zn  Zn2  0.496383  0.888865  0.482485  1.046348
    C   C18  0.591822  0.708134  0.433013  -0.206475
    C   C19  0.596842  0.295270  0.478729  -0.178219
    N   N2   0.495306  0.757362  0.469634  0.091019
    N   N3   0.501343  0.244838  0.523718  0.078904
    C   C20  0.399803  0.706935  0.514790  -0.044727
    C   C21  0.404805  0.294050  0.560156  -0.093826
    C   C22  0.399710  0.603617  0.525222  0.114975
    C   C23  0.402326  0.397285  0.550883  0.159553
    C   C24  0.497663  0.552543  0.490008  0.013918
    C   C25  0.499000  0.449656  0.503515  0.002399
    C   C26  0.594331  0.604908  0.442484  0.171329
    C   C27  0.596956  0.398587  0.468324  0.162992
    C   C28  0.302388  0.551418  0.573467  -0.154772
    C   C29  0.303686  0.448071  0.585762  -0.188081
    C   C30  0.694276  0.450787  0.420020  -0.183179
    C   C31  0.692969  0.554130  0.407556  -0.174646
    H   H6   0.667749  0.749833  0.400470  0.187914
    H   H7   0.673434  0.254585  0.446258  0.176756
    H   H8   0.225241  0.591372  0.601556  0.143576
    H   H9   0.227517  0.406998  0.622687  0.151039
    H   H10  0.771427  0.410841  0.391936  0.148600
    H   H11  0.769126  0.595210  0.370479  0.144338
    C   C32  0.298112  0.760925  0.557801  0.323591
    N   N4   0.216119  0.804452  0.592469  -0.419271
    C   C33  0.303999  0.238689  0.602906  0.365668
    N   N5   0.222723  0.194055  0.637367  -0.419809
