# generated using pymatgen
data_ZnH21C32NO4
_symmetry_space_group_name_H-M   'P 1'
_cell_length_a   17.46895900
_cell_length_b   8.54594900
_cell_length_c   19.36345700
_cell_angle_alpha   90.00000000
_cell_angle_beta   91.02795400
_cell_angle_gamma   90.00000000
_symmetry_Int_Tables_number   1
_chemical_formula_structural   ZnH21C32NO4
_chemical_formula_sum   'Zn2 H42 C64 N2 O8'
_cell_volume   2890.28265934
_cell_formula_units_Z   2
loop_
 _symmetry_equiv_pos_site_id
 _symmetry_equiv_pos_as_xyz
  1  'x, y, z'
loop_
 _atom_site_type_symbol
 _atom_site_label
 _atom_site_symmetry_multiplicity
 _atom_site_fract_x
 _atom_site_fract_y
 _atom_site_fract_z
 _atom_site_occupancy
  Zn  Zn1  1  0.91487000  0.50000500  0.50386200  1
  Zn  Zn2  1  0.08513000  0.50000500  0.49613800  1
  H  H1  1  0.03187200  0.00009300  0.54840900  1
  H  H2  1  0.96812800  0.00009200  0.45159100  1
  H  H3  1  0.99554900  0.25222000  0.73216600  1
  H  H4  1  0.01639800  0.74932500  0.26942700  1
  H  H5  1  0.00445100  0.25222000  0.26783400  1
  H  H6  1  0.98360200  0.74932400  0.73057300  1
  H  H7  1  0.95522300  0.76871400  0.04662200  1
  H  H8  1  0.95011300  0.22776100  0.95495600  1
  H  H9  1  0.04477700  0.76871500  0.95337800  1
  H  H10  1  0.04988700  0.22776000  0.04504400  1
  H  H11  1  0.95570200  0.77049400  0.17122100  1
  H  H12  1  0.94072500  0.22594100  0.83002700  1
  H  H13  1  0.04429800  0.77049400  0.82877900  1
  H  H14  1  0.05927500  0.22594100  0.16997300  1
  H  H15  1  0.80791900  0.50002200  0.39809100  1
  H  H16  1  0.19208100  0.50002200  0.60190900  1
  H  H17  1  0.69079100  0.49997300  0.33358300  1
  H  H18  1  0.30920900  0.49997300  0.66641700  1
  H  H19  1  0.69242700  0.49990800  0.67308000  1
  H  H20  1  0.30757300  0.49990800  0.32692000  1
  H  H21  1  0.57824300  0.49994800  0.27144600  1
  H  H22  1  0.42175800  0.49994800  0.72855400  1
  H  H23  1  0.80803200  0.49993600  0.61483800  1
  H  H24  1  0.19196800  0.49993600  0.38516200  1
  H  H25  1  0.37785200  0.28110500  0.28164800  1
  H  H26  1  0.39750400  0.27638300  0.19161100  1
  H  H27  1  0.31355400  0.37414600  0.21999800  1
  H  H28  1  0.37791500  0.71881300  0.28164900  1
  H  H29  1  0.31352600  0.62572100  0.22009600  1
  H  H30  1  0.39743400  0.72343600  0.19158300  1
  H  H31  1  0.51439600  0.39367100  0.18251100  1
  H  H32  1  0.51437900  0.60628400  0.18252000  1
  H  H33  1  0.44499300  0.49996100  0.13156300  1
  H  H34  1  0.62214800  0.28110500  0.71835200  1
  H  H35  1  0.60249600  0.27638300  0.80838900  1
  H  H36  1  0.68644600  0.37414600  0.78000200  1
  H  H37  1  0.62208500  0.71881300  0.71835100  1
  H  H38  1  0.68647400  0.62572100  0.77990400  1
  H  H39  1  0.60256600  0.72343600  0.80841700  1
  H  H40  1  0.48560400  0.39367100  0.81748900  1
  H  H41  1  0.48562100  0.60628400  0.81748000  1
  H  H42  1  0.55500700  0.49996100  0.86843700  1
  C  C1  1  0.00896100  0.13931600  0.63612700  1
  C  C2  1  0.99164900  0.86084900  0.36405500  1
  C  C3  1  0.99104000  0.13931600  0.36387300  1
  C  C4  1  0.00835100  0.86084900  0.63594500  1
  C  C5  1  0.99774800  0.14050800  0.70645200  1
  C  C6  1  0.00598500  0.86010000  0.29429100  1
  C  C7  1  0.00225200  0.14050800  0.29354800  1
  C  C8  1  0.99401500  0.86010000  0.70570900  1
  C  C9  1  0.99373400  0.99989000  0.74253000  1
  C  C10  1  0.00626600  0.99989000  0.25747000  1
  C  C11  1  0.01970500  0.00005700  0.60261100  1
  C  C12  1  0.98029500  0.00005700  0.39738900  1
  C  C13  1  0.97842600  0.86891300  0.07386600  1
  C  C14  1  0.97033000  0.12697700  0.92691600  1
  C  C15  1  0.02157400  0.86891300  0.92613400  1
  C  C16  1  0.02967000  0.12697700  0.07308400  1
  C  C17  1  0.97990000  0.86973200  0.14502400  1
  C  C18  1  0.96573300  0.12579200  0.85567400  1
  C  C19  1  0.02010000  0.86973200  0.85497600  1
  C  C20  1  0.03426700  0.12579200  0.14432600  1
  C  C21  1  0.00830500  0.99782200  0.18121700  1
  C  C22  1  0.99169600  0.99782200  0.81878300  1
  C  C23  1  0.00206900  0.99832200  0.03771000  1
  C  C24  1  0.99793100  0.99832200  0.96229000  1
  C  C25  1  0.00565100  0.71869100  0.59419500  1
  C  C26  1  0.99413500  0.28152300  0.40565100  1
  C  C27  1  0.99434900  0.71869100  0.40580500  1
  C  C28  1  0.00586500  0.28152300  0.59434900  1
  C  C29  1  0.77642200  0.49998700  0.44561900  1
  C  C30  1  0.22357800  0.49998700  0.55438100  1
  C  C31  1  0.77637700  0.49994500  0.56635300  1
  C  C32  1  0.22362300  0.49994500  0.43364700  1
  C  C33  1  0.65896400  0.49996200  0.38094800  1
  C  C34  1  0.34103600  0.49996200  0.61905200  1
  C  C35  1  0.69758600  0.49996400  0.44341600  1
  C  C36  1  0.30241400  0.49996400  0.55658400  1
  C  C37  1  0.65758600  0.49994600  0.50377800  1
  C  C38  1  0.34241400  0.49994600  0.49622200  1
  C  C39  1  0.69712900  0.49993900  0.56560600  1
  C  C40  1  0.30287100  0.49993900  0.43439400  1
  C  C41  1  0.65806600  0.49992600  0.62669300  1
  C  C42  1  0.34193400  0.49992600  0.37330700  1
  C  C43  1  0.54235800  0.49994100  0.31597100  1
  C  C44  1  0.45764200  0.49994100  0.68402900  1
  C  C45  1  0.58003700  0.49994600  0.37895000  1
  C  C46  1  0.41996300  0.49994600  0.62105000  1
  C  C47  1  0.53976700  0.49994100  0.43931000  1
  C  C48  1  0.46023300  0.49994100  0.56069000  1
  C  C49  1  0.46274700  0.49993000  0.31136300  1
  C  C50  1  0.53725300  0.49993000  0.68863700  1
  C  C51  1  0.42167700  0.49993000  0.37317100  1
  C  C52  1  0.57832300  0.49993000  0.62682900  1
  C  C53  1  0.57872600  0.49994000  0.50228400  1
  C  C54  1  0.42127400  0.49994000  0.49771600  1
  C  C55  1  0.53911600  0.49993600  0.56347600  1
  C  C56  1  0.46088400  0.49993600  0.43652400  1
  C  C57  1  0.42228100  0.49993900  0.24099700  1
  C  C58  1  0.37436600  0.35048100  0.23332400  1
  C  C59  1  0.37435700  0.64938900  0.23334200  1
  C  C60  1  0.47789400  0.49996600  0.18113500  1
  C  C61  1  0.57771900  0.49993900  0.75900300  1
  C  C62  1  0.62563400  0.35048100  0.76667600  1
  C  C63  1  0.62564300  0.64938900  0.76665800  1
  C  C64  1  0.52210600  0.49996600  0.81886500  1
  N  N1  1  0.81460400  0.49997800  0.50659700  1
  N  N2  1  0.18539600  0.49997800  0.49340300  1
  O  O1  1  0.06955500  0.66959200  0.56691800  1
  O  O2  1  0.93038800  0.33065400  0.43299700  1
  O  O3  1  0.93044500  0.66959200  0.43308200  1
  O  O4  1  0.06961200  0.33065400  0.56700300  1
  O  O5  1  0.93806700  0.66330500  0.57640500  1
  O  O6  1  0.06184800  0.33650600  0.42365200  1
  O  O7  1  0.06193300  0.66330500  0.42359500  1
  O  O8  1  0.93815200  0.33650600  0.57634800  1
