# generated using pymatgen
data_FeH7C19O10
_symmetry_space_group_name_H-M   'P 1'
_cell_length_a   16.09055300
_cell_length_b   9.37410300
_cell_length_c   15.11275400
_cell_angle_alpha   87.51493100
_cell_angle_beta   85.30008000
_cell_angle_gamma   108.54040700
_symmetry_Int_Tables_number   1
_chemical_formula_structural   FeH7C19O10
_chemical_formula_sum   'Fe2 H14 C38 O20'
_cell_volume   2148.12992193
_cell_formula_units_Z   2
loop_
 _symmetry_equiv_pos_site_id
 _symmetry_equiv_pos_as_xyz
  1  'x, y, z'
loop_
 _atom_site_type_symbol
 _atom_site_label
 _atom_site_symmetry_multiplicity
 _atom_site_fract_x
 _atom_site_fract_y
 _atom_site_fract_z
 _atom_site_occupancy
  Fe  Fe1  1  0.51566000  0.98478500  0.13438600  1
  Fe  Fe2  1  0.50253500  0.99356500  0.80230000  1
  H  H1  1  0.93159900  0.96544600  0.81979500  1
  H  H2  1  0.17476300  0.90514400  0.85556200  1
  H  H3  1  0.03620800  0.92681800  0.87517600  1
  H  H4  1  0.08597400  0.09268000  0.17472800  1
  H  H5  1  0.81594700  0.14343600  0.13434900  1
  H  H6  1  0.47014400  0.23525600  0.42709200  1
  H  H7  1  0.52365600  0.28297600  0.55077300  1
  H  H8  1  0.46102600  0.69340200  0.51532600  1
  H  H9  1  0.51913500  0.43809100  0.16550600  1
  H  H10  1  0.48630100  0.52769700  0.77163000  1
  H  H11  1  0.76845800  0.83344300  0.75562100  1
  H  H12  1  0.25366300  0.17532600  0.16888300  1
  H  H13  1  0.92678800  0.06989400  0.24890200  1
  H  H14  1  0.61616800  0.77172600  0.38407600  1
  C  C1  1  0.88397600  0.98079500  0.86934600  1
  C  C2  1  0.26698600  0.94704300  0.95360600  1
  C  C3  1  0.18638600  0.93474900  0.92277700  1
  C  C4  1  0.12223200  0.97099100  0.97462300  1
  C  C5  1  0.04459900  0.96728700  0.94031000  1
  C  C6  1  0.98095900  0.01217100  0.98916800  1
  C  C7  1  0.80416400  0.97497400  0.84066400  1
  C  C8  1  0.73788400  0.99126600  0.89837100  1
  C  C9  1  0.90119100  0.01075100  0.95655700  1
  C  C10  1  0.83679800  0.04117600  0.01263500  1
  C  C11  1  0.75244900  0.01900100  0.98632800  1
  C  C12  1  0.27988200  0.98520900  0.04060100  1
  C  C13  1  0.21519700  0.02010700  0.09220100  1
  C  C14  1  0.13704300  0.01539400  0.05878900  1
  C  C15  1  0.07427600  0.05754900  0.10856900  1
  C  C16  1  0.99714300  0.05691300  0.07410400  1
  C  C17  1  0.93704100  0.10447800  0.12452700  1
  C  C18  1  0.85820000  0.09743400  0.09396500  1
  C  C19  1  0.67731700  0.00558900  0.05326000  1
  C  C20  1  0.52422100  0.71435700  0.20478000  1
  C  C21  1  0.36433700  0.01029500  0.07687500  1
  C  C22  1  0.49948400  0.18515900  0.25856500  1
  C  C23  1  0.48322900  0.77432700  0.67703000  1
  C  C24  1  0.65121800  0.96288300  0.86612100  1
  C  C25  1  0.50316500  0.26309600  0.72839500  1
  C  C26  1  0.33909900  0.93866100  0.88927600  1
  C  C27  1  0.52052300  0.58816800  0.26800300  1
  C  C28  1  0.52226000  0.60482300  0.35865100  1
  C  C29  1  0.50208600  0.47787400  0.41915600  1
  C  C30  1  0.48846100  0.33805900  0.38478200  1
  C  C31  1  0.50193400  0.32762400  0.29450900  1
  C  C32  1  0.51557600  0.45108500  0.23624300  1
  C  C33  1  0.50703000  0.37749600  0.57548700  1
  C  C34  1  0.49851900  0.38642100  0.66694400  1
  C  C35  1  0.48685800  0.51407600  0.70100500  1
  C  C36  1  0.47959900  0.62787800  0.64436500  1
  C  C37  1  0.47793600  0.61024900  0.55463000  1
  C  C38  1  0.49583800  0.48889200  0.51766800  1
  O  O1  1  0.60448200  0.02416500  0.02996400  1
  O  O2  1  0.53569700  0.70201200  0.11881000  1
  O  O3  1  0.67886900  0.95796500  0.13582900  1
  O  O4  1  0.50811200  0.83419600  0.23330300  1
  O  O5  1  0.39700200  0.89975900  0.08971300  1
  O  O6  1  0.40839500  0.14690000  0.09614900  1
  O  O7  1  0.54910400  0.18742800  0.18480100  1
  O  O8  1  0.44372500  0.05764100  0.29530800  1
  O  O9  1  0.45994600  0.78390700  0.76130100  1
  O  O10  1  0.52264800  0.89690600  0.62499300  1
  O  O11  1  0.62500200  0.07533300  0.83886900  1
  O  O12  1  0.59937600  0.82339600  0.86431100  1
  O  O13  1  0.32454000  0.91678200  0.80597300  1
  O  O14  1  0.50868300  0.13571700  0.69921800  1
  O  O15  1  0.42030700  0.97331500  0.91042300  1
  O  O16  1  0.49643400  0.27649900  0.81453300  1
  O  O17  1  0.78910800  0.94495200  0.75468300  1
  O  O18  1  0.23045900  0.06373300  0.17614500  1
  O  O19  1  0.95466200  0.15838100  0.20590400  1
  O  O20  1  0.55146800  0.74757300  0.38618100  1
