# generated using pymatgen
data_ZnH8C13(NO2)2
_symmetry_space_group_name_H-M   'P 1'
_cell_length_a   9.92595400
_cell_length_b   11.13933900
_cell_length_c   17.48442700
_cell_angle_alpha   90.00679700
_cell_angle_beta   86.23247800
_cell_angle_gamma   89.99743200
_symmetry_Int_Tables_number   1
_chemical_formula_structural   ZnH8C13(NO2)2
_chemical_formula_sum   'Zn2 H16 C26 N4 O8'
_cell_volume   1929.05006628
_cell_formula_units_Z   2
loop_
 _symmetry_equiv_pos_site_id
 _symmetry_equiv_pos_as_xyz
  1  'x, y, z'
loop_
 _atom_site_type_symbol
 _atom_site_label
 _atom_site_symmetry_multiplicity
 _atom_site_fract_x
 _atom_site_fract_y
 _atom_site_fract_z
 _atom_site_occupancy
  Zn  Zn1  1  0.34817700  0.49802900  0.49702900  1
  Zn  Zn2  1  0.65466800  0.49517300  0.49783000  1
  H  H1  1  0.68814400  0.49777700  0.73869100  1
  H  H2  1  0.31452400  0.49280500  0.25624100  1
  H  H3  1  0.74613800  0.48271400  0.24985400  1
  H  H4  1  0.64968800  0.53443600  0.99453100  1
  H  H5  1  0.24794100  0.50101800  0.88412500  1
  H  H6  1  0.32279900  0.50576700  0.11966600  1
  H  H7  1  0.25666900  0.51133400  0.74496200  1
  H  H8  1  0.35262800  0.45757900  0.00027500  1
  H  H9  1  0.67958500  0.48442100  0.87530800  1
  H  H10  1  0.75462500  0.49267000  0.11070300  1
  H  H11  1  0.69673100  0.10746000  0.48048600  1
  H  H12  1  0.69566300  0.88953400  0.52219600  1
  H  H13  1  0.41547000  0.90100000  0.45930400  1
  H  H14  1  0.09611100  0.57224400  0.51819000  1
  H  H15  1  0.88737900  0.40634000  0.39664500  1
  H  H16  1  0.89880900  0.51033800  0.55049600  1
  C  C1  1  0.50570200  0.73107500  0.49007000  1
  C  C2  1  0.48043700  0.50711600  0.64738600  1
  C  C3  1  0.49674600  0.26211400  0.50505800  1
  C  C4  1  0.52240900  0.48556200  0.34751500  1
  C  C5  1  0.47304900  0.50661200  0.73150000  1
  C  C6  1  0.59042200  0.50024900  0.76973900  1
  C  C7  1  0.58536400  0.49395500  0.84857300  1
  C  C8  1  0.46222500  0.49503700  0.89072900  1
  C  C9  1  0.34505700  0.50115900  0.85229200  1
  C  C10  1  0.35007800  0.50728900  0.77330800  1
  C  C11  1  0.41716800  0.49710000  0.14634300  1
  C  C12  1  0.41225000  0.49097300  0.22517900  1
  C  C13  1  0.65265100  0.48588700  0.22154500  1
  C  C14  1  0.65753400  0.49182100  0.14255600  1
  C  C15  1  0.54027800  0.49693800  0.10414400  1
  C  C16  1  0.45015200  0.48472800  0.97510000  1
  C  C17  1  0.55223400  0.50716800  0.01975900  1
  C  C18  1  0.52971600  0.48568700  0.26339400  1
  C  C19  1  0.60192000  0.06362900  0.49725500  1
  C  C20  1  0.49164800  0.13128100  0.51352300  1
  C  C21  1  0.60452100  0.93124500  0.50391800  1
  C  C22  1  0.50346300  0.86198300  0.48289300  1
  C  C23  1  0.07979500  0.43009000  0.45184100  1
  C  C24  1  0.93232300  0.44350000  0.44626100  1
  C  C25  1  0.36702400  0.08087700  0.54591900  1
  C  C26  1  0.14889000  0.34019800  0.40507200  1
  N  N1  1  0.14699400  0.49993900  0.49405400  1
  N  N2  1  0.85584800  0.49129900  0.50005600  1
  N  N3  1  0.26681700  0.04075000  0.57210900  1
  N  N4  1  0.20401000  0.26773900  0.36731800  1
  O  O1  1  0.38917900  0.67594700  0.49150000  1
  O  O2  1  0.62138100  0.67446400  0.49249800  1
  O  O3  1  0.36823800  0.50625900  0.61154000  1
  O  O4  1  0.60028000  0.50288100  0.61138200  1
  O  O5  1  0.38117600  0.31901000  0.50373400  1
  O  O6  1  0.61413500  0.31690300  0.50252100  1
  O  O7  1  0.40221100  0.48772100  0.38349600  1
  O  O8  1  0.63495400  0.48720300  0.38326600  1
