# generated using pymatgen
data_ZnH20C37N3O4F3
_symmetry_space_group_name_H-M   'P 1'
_cell_length_a   16.00947300
_cell_length_b   15.98258900
_cell_length_c   17.10315000
_cell_angle_alpha   90.00032600
_cell_angle_beta   89.11433600
_cell_angle_gamma   92.73949300
_symmetry_Int_Tables_number   1
_chemical_formula_structural   ZnH20C37N3O4F3
_chemical_formula_sum   'Zn2 H40 C74 N6 O8 F6'
_cell_volume   4370.70664252
_cell_formula_units_Z   2
loop_
 _symmetry_equiv_pos_site_id
 _symmetry_equiv_pos_as_xyz
  1  'x, y, z'
loop_
 _atom_site_type_symbol
 _atom_site_label
 _atom_site_symmetry_multiplicity
 _atom_site_fract_x
 _atom_site_fract_y
 _atom_site_fract_z
 _atom_site_occupancy
  Zn  Zn1  1  0.59410200  0.50140500  0.49951400  1
  Zn  Zn2  1  0.40369100  0.49969600  0.49784600  1
  H  H1  1  0.41905900  0.04330200  0.38631700  1
  H  H2  1  0.57873500  0.95779900  0.61104400  1
  H  H3  1  0.35891800  0.93428000  0.50741100  1
  H  H4  1  0.63887500  0.06682200  0.48995100  1
  H  H5  1  0.61682300  0.54244600  0.75468600  1
  H  H6  1  0.38097200  0.45865200  0.24267500  1
  H  H7  1  0.60660400  0.53923200  0.89533700  1
  H  H8  1  0.39119000  0.46187000  0.10202300  1
  H  H9  1  0.64231700  0.56582200  0.11603900  1
  H  H10  1  0.35547500  0.43528600  0.88132200  1
  H  H11  1  0.63053500  0.56383000  0.25794300  1
  H  H12  1  0.36725700  0.43727600  0.73941900  1
  H  H13  1  0.12536100  0.38550100  0.41535900  1
  H  H14  1  0.87243300  0.61559600  0.58200300  1
  H  H15  1  0.27762100  0.40360000  0.41632500  1
  H  H16  1  0.72017300  0.59749600  0.58103900  1
  H  H17  1  0.49297900  0.98431000  0.28190800  1
  H  H18  1  0.56998700  0.93228600  0.16904800  1
  H  H19  1  0.75786300  0.84697200  0.31916600  1
  H  H20  1  0.68117700  0.89915900  0.43304200  1
  H  H21  1  0.50481000  0.01677900  0.71545500  1
  H  H22  1  0.42781000  0.06881000  0.82831600  1
  H  H23  1  0.23994800  0.15415500  0.67819800  1
  H  H24  1  0.31662500  0.10195800  0.56432200  1
  H  H25  1  0.71483300  0.29166900  0.48231200  1
  H  H26  1  0.65510600  0.18851400  0.38956200  1
  H  H27  1  0.67569200  0.37087200  0.20796100  1
  H  H28  1  0.73651900  0.47361700  0.30055000  1
  H  H29  1  0.26127400  0.52748600  0.69680700  1
  H  H30  1  0.32210200  0.63023100  0.78939600  1
  H  H31  1  0.34268600  0.81258900  0.60779600  1
  H  H32  1  0.28295900  0.70943500  0.51504600  1
  H  H33  1  0.92559700  0.51810600  0.31965000  1
  H  H34  1  0.00603800  0.43967600  0.22319200  1
  H  H35  1  0.96458500  0.21767400  0.35886900  1
  H  H36  1  0.88491000  0.29607300  0.45580200  1
  H  H37  1  0.11288400  0.70503000  0.54154400  1
  H  H38  1  0.03321100  0.78343600  0.63847200  1
  H  H39  1  0.99175400  0.56144400  0.77416200  1
  H  H40  1  0.07219500  0.48300700  0.67770900  1
  C  C1  1  0.50101100  0.50463800  0.34574400  1
  C  C2  1  0.49678200  0.49646300  0.65161700  1
  C  C3  1  0.49032800  0.33696700  0.49590300  1
  C  C4  1  0.50746600  0.66413400  0.50145800  1
  C  C5  1  0.53624600  0.97627600  0.43530700  1
  C  C6  1  0.46154800  0.02482500  0.56205500  1
  C  C7  1  0.45558000  0.02235100  0.43661400  1
  C  C8  1  0.54221400  0.97875000  0.56074800  1
  C  C9  1  0.48863700  0.24718500  0.49582100  1
  C  C10  1  0.50915600  0.75391600  0.50154000  1
  C  C11  1  0.57552200  0.03588100  0.49459000  1
  C  C12  1  0.42227200  0.96522000  0.50277100  1
  C  C13  1  0.49436600  0.08074500  0.49695200  1
  C  C14  1  0.50342800  0.92035600  0.50040900  1
  C  C15  1  0.49015200  0.17192200  0.49620200  1
  C  C16  1  0.50764200  0.82917900  0.50115900  1
  C  C17  1  0.50552100  0.50934100  0.26026000  1
  C  C18  1  0.49227300  0.49176100  0.73710000  1
  C  C19  1  0.43848100  0.48272800  0.21528000  1
  C  C20  1  0.55931300  0.51837300  0.78208100  1
  C  C21  1  0.44504500  0.48432400  0.13462300  1
  C  C22  1  0.55274900  0.51677900  0.86273800  1
  C  C23  1  0.51912900  0.51361200  0.09846900  1
  C  C24  1  0.47866400  0.48749400  0.89889200  1
  C  C25  1  0.58485500  0.54210500  0.14377600  1
  C  C26  1  0.41293800  0.45900200  0.85358500  1
  C  C27  1  0.57825300  0.54012400  0.22402600  1
  C  C28  1  0.41954000  0.46098100  0.77333500  1
  C  C29  1  0.23237000  0.55057700  0.54541500  1
  C  C30  1  0.76542400  0.45052500  0.45194300  1
  C  C31  1  0.14562400  0.54175600  0.54629700  1
  C  C32  1  0.85216900  0.45934700  0.45105900  1
  C  C33  1  0.10624300  0.48202900  0.49856000  1
  C  C34  1  0.89155000  0.51907200  0.49879900  1
  C  C35  1  0.15481100  0.43274800  0.45236800  1
  C  C36  1  0.84298300  0.56835100  0.54499300  1
  C  C37  1  0.24059300  0.44333000  0.45275500  1
  C  C38  1  0.75720100  0.55776800  0.54460700  1
  C  C39  1  0.58198000  0.94508400  0.36532500  1
  C  C40  1  0.55106300  0.95439400  0.29098400  1
  C  C41  1  0.59435200  0.92504100  0.22711900  1
  C  C42  1  0.66856000  0.88641300  0.23718700  1
  C  C43  1  0.69963100  0.87721500  0.31120600  1
  C  C44  1  0.65647600  0.90656100  0.37512000  1
  C  C45  1  0.41581500  0.05601800  0.63203800  1
  C  C46  1  0.44673100  0.04670300  0.70637900  1
  C  C47  1  0.40344600  0.07606000  0.77024400  1
  C  C48  1  0.32924400  0.11469900  0.76017700  1
  C  C49  1  0.29817500  0.12390300  0.68615800  1
  C  C50  1  0.34132500  0.09455100  0.62224300  1
  C  C51  1  0.72550000  0.39040300  0.39802900  1
  C  C52  1  0.70496700  0.30955600  0.42233100  1
  C  C53  1  0.67182600  0.25156300  0.37026900  1
  C  C54  1  0.66031600  0.27385200  0.29349600  1
  C  C55  1  0.68328100  0.35374900  0.26848700  1
  C  C56  1  0.71662400  0.41162200  0.32052100  1
  C  C57  1  0.27229300  0.61070000  0.59932900  1
  C  C58  1  0.28116900  0.58948200  0.67683600  1
  C  C59  1  0.31451300  0.64735400  0.72887100  1
  C  C60  1  0.33747700  0.72725100  0.70386100  1
  C  C61  1  0.32596600  0.74954000  0.62708800  1
  C  C62  1  0.29282500  0.69154800  0.57502700  1
  C  C63  1  0.89909600  0.41177400  0.39316000  1
  C  C64  1  0.93395000  0.45205000  0.32824000  1
  C  C65  1  0.97903100  0.40806700  0.27411400  1
  C  C66  1  0.98976000  0.32382000  0.28494800  1
  C  C67  1  0.95569600  0.28360600  0.35010200  1
  C  C68  1  0.91066100  0.32753600  0.40429500  1
  C  C69  1  0.09869800  0.58933400  0.60419300  1
  C  C70  1  0.08713300  0.67357100  0.59305200  1
  C  C71  1  0.04209800  0.71750500  0.64724200  1
  C  C72  1  0.00803300  0.67729600  0.71239900  1
  C  C73  1  0.01876100  0.59304900  0.72323800  1
  C  C74  1  0.06384200  0.54906300  0.66911600  1
  N  N1  1  0.52989500  0.51541900  0.01622300  1
  N  N2  1  0.46789800  0.48568700  0.98113800  1
  N  N3  1  0.27868100  0.50102100  0.49911400  1
  N  N4  1  0.71911200  0.50007900  0.49824700  1
  N  N5  1  0.01829600  0.46776800  0.49677500  1
  N  N6  1  0.97949700  0.53333400  0.50058200  1
  O  O1  1  0.57178400  0.50492900  0.38337200  1
  O  O2  1  0.42600900  0.49617200  0.61398900  1
  O  O3  1  0.42743200  0.50161300  0.38108100  1
  O  O4  1  0.57036200  0.49948800  0.61628000  1
  O  O5  1  0.56360200  0.37699900  0.49795700  1
  O  O6  1  0.43419200  0.62410100  0.49940400  1
  O  O7  1  0.41930800  0.37465100  0.49491800  1
  O  O8  1  0.57848600  0.62645000  0.50244300  1
  F  F1  1  0.71093300  0.85752100  0.17434900  1
  F  F2  1  0.28687700  0.14359800  0.82301500  1
  F  F3  1  0.62776800  0.21682600  0.24235700  1
  F  F4  1  0.37002500  0.78427700  0.75500100  1
  F  F5  1  0.03420100  0.28065100  0.23179000  1
  F  F6  1  0.96359400  0.72046900  0.76555400  1
