# generated using pymatgen
data_ZnH4C10NO4
_symmetry_space_group_name_H-M   'P 1'
_cell_length_a   6.56195900
_cell_length_b   10.18989700
_cell_length_c   13.74658400
_cell_angle_alpha   100.16968100
_cell_angle_beta   100.20713900
_cell_angle_gamma   89.92583800
_symmetry_Int_Tables_number   1
_chemical_formula_structural   ZnH4C10NO4
_chemical_formula_sum   'Zn2 H8 C20 N2 O8'
_cell_volume   889.98812351
_cell_formula_units_Z   2
loop_
 _symmetry_equiv_pos_site_id
 _symmetry_equiv_pos_as_xyz
  1  'x, y, z'
loop_
 _atom_site_type_symbol
 _atom_site_label
 _atom_site_symmetry_multiplicity
 _atom_site_fract_x
 _atom_site_fract_y
 _atom_site_fract_z
 _atom_site_occupancy
  Zn  Zn1  1  0.98868300  0.14699300  0.50425000  1
  Zn  Zn2  1  0.01131700  0.85300600  0.49575000  1
  H  H1  1  0.25972700  0.09731200  0.83044700  1
  H  H2  1  0.74027300  0.90268800  0.16955300  1
  H  H3  1  0.50946200  0.09082800  0.98501000  1
  H  H4  1  0.49053900  0.90917200  0.01499000  1
  H  H5  1  0.98558900  0.00100800  0.81123800  1
  H  H6  1  0.01441200  0.99899200  0.18876200  1
  H  H7  1  0.85212300  0.05245900  0.07155800  1
  H  H8  1  0.14787800  0.94754100  0.92844300  1
  C  C1  1  0.42062600  0.07905400  0.82655900  1
  C  C2  1  0.57937400  0.92094600  0.17344200  1
  C  C3  1  0.56054500  0.07338400  0.91340700  1
  C  C4  1  0.43945600  0.92661600  0.08659300  1
  C  C5  1  0.76279100  0.03986300  0.90862000  1
  C  C6  1  0.23721000  0.96013700  0.09138000  1
  C  C7  1  0.82652500  0.02144900  0.81695100  1
  C  C8  1  0.17347600  0.97855100  0.18304900  1
  C  C9  1  0.68843900  0.03140600  0.73057900  1
  C  C10  1  0.31156200  0.96859400  0.26942100  1
  C  C11  1  0.48301900  0.05555400  0.73442800  1
  C  C12  1  0.51698200  0.94444600  0.26557200  1
  C  C13  1  0.90555500  0.02444200  0.00099500  1
  C  C14  1  0.09444500  0.97555800  0.99900500  1
  C  C15  1  0.76936900  0.01910700  0.63772300  1
  C  C16  1  0.23063200  0.98089300  0.36227700  1
  C  C17  1  0.32523200  0.03660600  0.64315500  1
  C  C18  1  0.67476900  0.96339400  0.35684500  1
  C  C19  1  0.99095100  0.43186300  0.50302600  1
  C  C20  1  0.00904900  0.56813700  0.49697400  1
  N  N1  1  0.97847100  0.31982400  0.50723100  1
  N  N2  1  0.02153000  0.68017600  0.49276900  1
  O  O1  1  0.83818900  0.90275100  0.60310400  1
  O  O2  1  0.16181200  0.09724900  0.39689600  1
  O  O3  1  0.80953800  0.12918400  0.60637800  1
  O  O4  1  0.19046300  0.87081600  0.39362200  1
  O  O5  1  0.23525100  0.14176600  0.61411700  1
  O  O6  1  0.76475000  0.85823400  0.38588300  1
  O  O7  1  0.26040100  0.91381400  0.60318700  1
  O  O8  1  0.73960000  0.08618600  0.39681300  1
