# generated using pymatgen
data_FeH7C25NClO10
_symmetry_space_group_name_H-M   'P 1'
_cell_length_a   13.52514400
_cell_length_b   20.59972500
_cell_length_c   10.91478800
_cell_angle_alpha   120.20874500
_cell_angle_beta   102.52989800
_cell_angle_gamma   71.05444500
_symmetry_Int_Tables_number   1
_chemical_formula_structural   FeH7C25NClO10
_chemical_formula_sum   'Fe2 H14 C50 N2 Cl2 O20'
_cell_volume   2480.32381072
_cell_formula_units_Z   2
loop_
 _symmetry_equiv_pos_site_id
 _symmetry_equiv_pos_as_xyz
  1  'x, y, z'
loop_
 _atom_site_type_symbol
 _atom_site_label
 _atom_site_symmetry_multiplicity
 _atom_site_fract_x
 _atom_site_fract_y
 _atom_site_fract_z
 _atom_site_occupancy
  Fe  Fe1  1  0.50007700  0.00408800  0.23618000  1
  Fe  Fe2  1  0.49075100  0.99047500  0.76077900  1
  H  H1  1  0.93048500  0.95494300  0.63826600  1
  H  H2  1  0.78359300  0.96773700  0.73819100  1
  H  H3  1  0.20380700  0.03691200  0.26440900  1
  H  H4  1  0.87312000  0.04313500  0.33946400  1
  H  H5  1  0.01752000  0.68839400  0.76842600  1
  H  H6  1  0.13033000  0.59278600  0.83864900  1
  H  H7  1  0.98499000  0.31052100  0.23440100  1
  H  H8  1  0.87316600  0.40606000  0.16338200  1
  H  H9  1  0.30117500  0.23409300  0.45346300  1
  H  H10  1  0.24874800  0.26605900  0.91386000  1
  H  H11  1  0.15561300  0.36678100  0.84688300  1
  H  H12  1  0.69752500  0.76200200  0.54639700  1
  H  H13  1  0.75875700  0.73684100  0.09537600  1
  H  H14  1  0.85157400  0.63486300  0.16009100  1
  C  C1  1  0.21002800  0.98635500  0.85426500  1
  C  C2  1  0.11812200  0.97322200  0.77119400  1
  C  C3  1  0.03181700  0.97992300  0.83025700  1
  C  C4  1  0.93931500  0.96874600  0.74866300  1
  C  C5  1  0.85365300  0.97603500  0.80707200  1
  C  C6  1  0.21573000  0.00328300  0.99560500  1
  C  C7  1  0.12913800  0.00989400  0.05423300  1
  C  C8  1  0.03706000  0.99864900  0.97184700  1
  C  C9  1  0.95038600  0.00573600  0.03095800  1
  C  C10  1  0.85840300  0.99412800  0.94839000  1
  C  C11  1  0.77184900  0.00039300  0.00645600  1
  C  C12  1  0.13376700  0.02807400  0.19570000  1
  C  C13  1  0.04817300  0.03512300  0.25441900  1
  C  C14  1  0.95570100  0.02392600  0.17224500  1
  C  C15  1  0.86935300  0.02981900  0.22987000  1
  C  C16  1  0.77719700  0.01784700  0.14795300  1
  C  C17  1  0.69011900  0.01833100  0.21053700  1
  C  C18  1  0.62639600  0.87194400  0.24544700  1
  C  C19  1  0.31060900  0.01923200  0.08642900  1
  C  C20  1  0.39767900  0.10882400  0.47751000  1
  C  C21  1  0.59834700  0.88759300  0.52272100  1
  C  C22  1  0.67890300  0.98172700  0.91366000  1
  C  C23  1  0.37567400  0.12833200  0.76202200  1
  C  C24  1  0.29777400  0.98712300  0.79468100  1
  C  C25  1  0.84812500  0.55906000  0.31360200  1
  C  C26  1  0.89841000  0.65836700  0.52710000  1
  C  C27  1  0.96266900  0.60444400  0.56909000  1
  C  C28  1  0.96932700  0.52668800  0.48116500  1
  C  C29  1  0.91158300  0.50371200  0.35277300  1
  C  C30  1  0.02118300  0.62768800  0.69760700  1
  C  C31  1  0.08552600  0.57321900  0.73759900  1
  C  C32  1  0.09173700  0.49513100  0.64938500  1
  C  C33  1  0.03366900  0.47218500  0.52127600  1
  C  C34  1  0.03997100  0.39446200  0.43366700  1
  C  C35  1  0.98153700  0.37121100  0.30506700  1
  C  C36  1  0.91777900  0.42563000  0.26458400  1
  C  C37  1  0.15556400  0.43977400  0.68830800  1
  C  C38  1  0.10367600  0.34057000  0.47608100  1
  C  C39  1  0.29066400  0.24124200  0.55531700  1
  C  C40  1  0.34058100  0.18161300  0.58900400  1
  C  C41  1  0.32574900  0.18961700  0.71904500  1
  C  C42  1  0.26169000  0.25796600  0.81228200  1
  C  C43  1  0.20989900  0.31603900  0.77561600  1
  C  C44  1  0.22280900  0.30740500  0.64596600  1
  C  C45  1  0.70946200  0.75618900  0.44622300  1
  C  C46  1  0.65882700  0.81597500  0.41317400  1
  C  C47  1  0.67665000  0.80998200  0.28638800  1
  C  C48  1  0.74392700  0.74328500  0.19477900  1
  C  C49  1  0.79543400  0.68461300  0.22999600  1
  C  C50  1  0.77990100  0.69150600  0.35709800  1
  N  N1  1  0.84223400  0.63512200  0.40089800  1
  N  N2  1  0.16061700  0.36372600  0.60177200  1
  Cl  Cl1  1  0.11274000  0.94441100  0.58884500  1
  Cl  Cl2  1  0.06110900  0.05808300  0.43433100  1
  O  O1  1  0.59630700  0.01915000  0.14502700  1
  O  O2  1  0.66006000  0.86966700  0.13894200  1
  O  O3  1  0.70743300  0.01439300  0.32997400  1
  O  O4  1  0.54623400  0.92837600  0.31100900  1
  O  O5  1  0.38949100  0.96161100  0.08644700  1
  O  O6  1  0.31266300  0.09114800  0.17831000  1
  O  O7  1  0.46076900  0.11000900  0.40286900  1
  O  O8  1  0.37024000  0.04455700  0.43327600  1
  O  O9  1  0.53732100  0.88436500  0.59719100  1
  O  O10  1  0.61946500  0.95375800  0.56402800  1
  O  O11  1  0.59609200  0.03742200  0.91562200  1
  O  O12  1  0.68209400  0.90941600  0.81854700  1
  O  O13  1  0.27906500  0.00765900  0.69427800  1
  O  O14  1  0.44290600  0.06480100  0.68276600  1
  O  O15  1  0.39451300  0.97242500  0.84710200  1
  O  O16  1  0.35309600  0.13725200  0.88149000  1
  O  O17  1  0.79057700  0.53728100  0.18923700  1
  O  O18  1  0.89478200  0.73412800  0.61002400  1
  O  O19  1  0.21427400  0.46159100  0.81171400  1
  O  O20  1  0.10586700  0.26498700  0.39407700  1
