# Generated by REPEAT Assigner based on pymatgen
data_DB0-m2_o13_o14_f0_pcu.sym.22
_audit_creation_date              2022-05-24
_audit_creation_method            REPEAT_Assigner
_cell_length_a                    10.875383
_cell_length_b                    12.950539
_cell_length_c                    11.471407
_cell_angle_alpha                 99.742217
_cell_angle_beta                  94.334042
_cell_angle_gamma                 89.992761
_cell_volume                      1587.672163
_symmetry_space_group_name_H-M    P1
_symmetry_Int_Tables_number       1
loop_
    _symmetry_equiv_pos_site_id
    _symmetry_equiv_pos_as_xyz
    1  x,y,z
loop_
    _atom_site_type_symbol
    _atom_site_label
    _atom_site_fract_x
    _atom_site_fract_y
    _atom_site_fract_z
    _atom_type_partial_charge
    O   O1   0.542469  0.354085  0.577824  -0.589926
    O   O2   0.465944  0.342201  0.381976  -0.596391
    C   C1   0.501434  0.299098  0.474900  0.631916
    O   O3   0.341531  0.482106  0.594448  -0.514065
    O   O4   0.323583  0.518856  0.403962  -0.507892
    C   C2   0.274401  0.506282  0.502925  0.619790
    Cu  Cu1  0.518980  0.505501  0.612186  0.881280
    Cu  Cu2  0.497702  0.490421  0.380294  0.880256
    O   O5   0.492737  0.654679  0.611357  -0.615067
    O   O6   0.531784  0.640847  0.414219  -0.547134
    O   O7   0.694475  0.526605  0.593796  -0.536860
    O   O8   0.674567  0.464289  0.392516  -0.578289
    C   C3   0.508325  0.696882  0.516414  0.610681
    C   C4   0.743267  0.490933  0.493151  0.711634
    H   H1   0.111204  0.511245  0.320332  0.089276
    C   C5   0.137598  0.523105  0.722632  -0.167274
    H   H2   0.226106  0.562002  0.740915  0.107663
    C   C6   0.081958  0.499529  0.818670  -0.123227
    H   H3   0.130725  0.512995  0.905651  0.114485
    C   C7   0.966650  0.454750  0.802992  -0.107508
    H   H4   0.924960  0.430719  0.876821  0.108385
    C   C8   0.901378  0.445679  0.694484  -0.175277
    H   H5   0.811282  0.409125  0.686485  0.119315
    C   C9   0.952082  0.479178  0.599057  0.129732
    C   C10  0.077612  0.503231  0.609223  0.169883
    C   C11  0.138256  0.508814  0.506688  -0.176827
    C   C12  0.067947  0.506237  0.401077  -0.084551
    C   C13  0.941243  0.499796  0.394645  0.098947
    C   C14  0.880363  0.486161  0.493959  -0.197910
    C   C15  0.508173  0.811513  0.526445  0.099790
    C   C16  0.492969  0.184564  0.463389  -0.007160
    C   C17  0.430798  0.018334  0.348791  -0.188461
    C   C18  0.442223  0.125453  0.359565  -0.131982
    C   C19  0.533663  0.134862  0.556379  -0.206610
    C   C20  0.523704  0.027232  0.545477  0.160569
    C   C21  0.471768  0.967920  0.441941  0.217321
    C   C22  0.461722  0.859578  0.432842  -0.142665
    C   C23  0.557547  0.872184  0.629848  -0.200262
    C   C24  0.565022  0.979382  0.639475  -0.196277
    H   H6   0.593389  0.835954  0.703315  0.142774
    H   H7   0.391065  0.977036  0.265110  0.090398
    H   H8   0.605414  0.025538  0.720722  0.129034
    H   H9   0.409835  0.162054  0.285246  0.141301
    H   H10  0.573949  0.179737  0.638408  0.125485
    N   N1   0.536889  0.517104  0.788878  -0.095628
    N   N2   0.481000  0.479178  0.203645  -0.113180
    C   C25  0.402096  0.396900  0.013242  -0.185099
    C   C26  0.407912  0.405597  0.134910  -0.042110
    C   C27  0.550451  0.544167  0.154376  0.103633
    C   C28  0.547792  0.536784  0.032252  0.227589
    C   C29  0.473005  0.462141  0.961711  0.034640
    C   C30  0.467622  0.453544  0.839967  0.000794
    C   C31  0.607650  0.592950  0.856195  0.054074
    C   C32  0.616319  0.603493  0.978494  -0.161189
    H   H11  0.406963  0.395682  0.785443  0.110569
    H   H12  0.658532  0.646255  0.814188  0.099571
    H   H13  0.342165  0.338690  0.958631  0.127631
    H   H14  0.351066  0.354571  0.174452  0.140772
    H   H15  0.606726  0.602725  0.211880  0.074268
    Br  Br1  0.723286  0.711297  0.066441  -0.003750
    Br  Br2  0.860968  0.510664  0.243242  -0.099522
    Br  Br3  0.372891  0.778198  0.296977  -0.061360
