# generated using pymatgen
data_Zn2H19C43O8F
_symmetry_space_group_name_H-M   'P 1'
_cell_length_a   15.56239200
_cell_length_b   15.73068300
_cell_length_c   30.81725100
_cell_angle_alpha   90.58248800
_cell_angle_beta   90.30557300
_cell_angle_gamma   90.59174800
_symmetry_Int_Tables_number   1
_chemical_formula_structural   Zn2H19C43O8F
_chemical_formula_sum   'Zn4 H38 C86 O16 F2'
_cell_volume   7543.37669751
_cell_formula_units_Z   2
loop_
 _symmetry_equiv_pos_site_id
 _symmetry_equiv_pos_as_xyz
  1  'x, y, z'
loop_
 _atom_site_type_symbol
 _atom_site_label
 _atom_site_symmetry_multiplicity
 _atom_site_fract_x
 _atom_site_fract_y
 _atom_site_fract_z
 _atom_site_occupancy
  Zn  Zn1  1  0.49101100  0.09648900  0.50647600  1
  Zn  Zn2  1  0.48838300  0.90357800  0.50382600  1
  Zn  Zn3  1  0.08539400  0.50128300  0.00583500  1
  Zn  Zn4  1  0.89036100  0.49896700  0.00436500  1
  H  H1  1  0.75194900  0.88137400  0.32500500  1
  H  H2  1  0.14688800  0.11818000  0.64522100  1
  H  H3  1  0.11012700  0.15657800  0.14178600  1
  H  H4  1  0.86607100  0.76234900  0.82643200  1
  H  H5  1  0.86295500  0.84947200  0.14112800  1
  H  H6  1  0.11566900  0.22980600  0.82960100  1
  H  H7  1  0.11081700  0.77226400  0.18234500  1
  H  H8  1  0.86647000  0.14823000  0.86776700  1
  H  H9  1  0.86328000  0.23641300  0.18272000  1
  H  H10  1  0.11377700  0.84415700  0.86898700  1
  H  H11  1  0.14108900  0.88472600  0.36571800  1
  H  H12  1  0.76109900  0.11684900  0.68275300  1
  H  H13  1  0.83508100  0.12718500  0.36656900  1
  H  H14  1  0.22712300  0.87348300  0.68482900  1
  H  H15  1  0.11181200  0.13241000  0.27149500  1
  H  H16  1  0.95153800  0.87266600  0.69885400  1
  H  H17  1  0.86249800  0.87742400  0.27100800  1
  H  H18  1  0.03564400  0.11769300  0.70016900  1
  H  H19  1  0.10977700  0.04633100  0.19643000  1
  H  H20  1  0.86321600  0.87213700  0.77291300  1
  H  H21  1  0.86353500  0.96152000  0.19604400  1
  H  H22  1  0.12131500  0.11843900  0.77583300  1
  H  H23  1  0.11549600  0.88363800  0.23608200  1
  H  H24  1  0.86813200  0.03624100  0.81286900  1
  H  H25  1  0.85886900  0.12669200  0.23629500  1
  H  H26  1  0.11496100  0.95458700  0.81439800  1
  H  H27  1  0.02823000  0.88434200  0.31111100  1
  H  H28  1  0.87049300  0.12183500  0.73783500  1
  H  H29  1  0.94626500  0.12723000  0.31150300  1
  H  H30  1  0.11636500  0.86902200  0.73878000  1
  H  H31  1  0.13712800  0.23588200  0.33537700  1
  H  H32  1  0.23165700  0.36114000  0.34152100  1
  H  H33  1  0.45001800  0.20475000  0.32187800  1
  H  H34  1  0.35596800  0.07933300  0.31497100  1
  H  H35  1  0.82439400  0.76315000  0.68651300  1
  H  H36  1  0.81752800  0.63803800  0.63843600  1
  H  H37  1  0.85349900  0.79671700  0.52875600  1
  H  H38  1  0.86191600  0.92197300  0.57657900  1
  C  C1  1  0.60878600  0.99609500  0.56518500  1
  C  C2  1  0.37060500  0.00398200  0.44510800  1
  C  C3  1  0.60630000  0.00327500  0.44444200  1
  C  C4  1  0.37315900  0.99679300  0.56588800  1
  C  C5  1  0.11854000  0.07533000  0.29017500  1
  C  C6  1  0.90870000  0.92605300  0.69640700  1
  C  C7  1  0.18339300  0.07464800  0.32101300  1
  C  C8  1  0.84757600  0.92516200  0.66381800  1
  C  C9  1  0.85618800  0.93536600  0.28962500  1
  C  C10  1  0.07822700  0.06399800  0.69806000  1
  C  C11  1  0.79354700  0.93618600  0.32112400  1
  C  C12  1  0.14104700  0.06468900  0.66678200  1
  C  C13  1  0.05552000  0.08849700  0.19459900  1
  C  C14  1  0.92140600  0.86572900  0.79166400  1
  C  C15  1  0.05613400  0.15075500  0.16350800  1
  C  C16  1  0.92156700  0.80352300  0.82288700  1
  C  C17  1  0.91791100  0.91947200  0.19424000  1
  C  C18  1  0.06234100  0.12514000  0.79366700  1
  C  C19  1  0.91719100  0.85622600  0.16299000  1
  C  C20  1  0.06056100  0.18822800  0.82505000  1
  C  C21  1  0.05685400  0.87590600  0.21764200  1
  C  C22  1  0.92264800  0.07915500  0.81538300  1
  C  C23  1  0.05568200  0.81280200  0.18625600  1
  C  C24  1  0.92130500  0.14236500  0.84660800  1
  C  C25  1  0.91716700  0.13350100  0.21787700  1
  C  C26  1  0.06026400  0.91183600  0.81582400  1
  C  C27  1  0.91821500  0.19565200  0.18661300  1
  C  C28  1  0.05997900  0.84951500  0.84689200  1
  C  C29  1  0.07182400  0.93819100  0.31299900  1
  C  C30  1  0.86383600  0.06381200  0.71916500  1
  C  C31  1  0.13580700  0.93789500  0.34395900  1
  C  C32  1  0.80217300  0.06251300  0.68690500  1
  C  C33  1  0.90304500  0.07316400  0.31324600  1
  C  C34  1  0.12342700  0.92683400  0.72061000  1
  C  C35  1  0.84028400  0.07354200  0.34457900  1
  C  C36  1  0.18615800  0.92795500  0.68914200  1
  C  C37  1  0.98699700  0.00504700  0.25380400  1
  C  C38  1  0.99264400  0.99519500  0.75647900  1
  C  C39  1  0.06366500  0.00549800  0.28454600  1
  C  C40  1  0.91678000  0.99410700  0.72526200  1
  C  C41  1  0.19193700  0.00552200  0.34799300  1
  C  C42  1  0.79358300  0.99368800  0.65928600  1
  C  C43  1  0.91067800  0.00532300  0.28432900  1
  C  C44  1  0.06958500  0.99625500  0.72635900  1
  C  C45  1  0.78536200  0.00516700  0.34849900  1
  C  C46  1  0.19508700  0.99674200  0.66228600  1
  C  C47  1  0.98740700  0.08030200  0.22328800  1
  C  C48  1  0.99229700  0.91959200  0.78675600  1
  C  C49  1  0.98765500  0.20457900  0.15956900  1
  C  C50  1  0.99075700  0.79516500  0.85039200  1
  C  C51  1  0.98637800  0.92886100  0.22309300  1
  C  C52  1  0.99181100  0.07102400  0.78736500  1
  C  C53  1  0.98592500  0.80263600  0.15907800  1
  C  C54  1  0.99006600  0.19718700  0.85134800  1
  C  C55  1  0.72210100  0.00441300  0.38218300  1
  C  C56  1  0.25807400  0.99631900  0.62847700  1
  C  C57  1  0.66928900  0.00384200  0.41062400  1
  C  C58  1  0.31054700  0.99635400  0.59987800  1
  C  C59  1  0.25451600  0.00534500  0.38239900  1
  C  C60  1  0.72798800  0.99438500  0.62636300  1
  C  C61  1  0.30715900  0.00480600  0.41119800  1
  C  C62  1  0.67345600  0.99519000  0.59848500  1
  C  C63  1  0.98748500  0.26777100  0.12633100  1
  C  C64  1  0.98936700  0.73216400  0.88372000  1
  C  C65  1  0.98771800  0.32059800  0.09829600  1
  C  C66  1  0.98830900  0.67949100  0.91182700  1
  C  C67  1  0.98634300  0.73838400  0.12572500  1
  C  C68  1  0.98938900  0.26165600  0.88458600  1
  C  C69  1  0.98703800  0.68445600  0.09769800  1
  C  C70  1  0.98866600  0.31570900  0.91254800  1
  C  C71  1  0.98812900  0.61990100  0.06450500  1
  C  C72  1  0.98761200  0.38035100  0.94569600  1
  C  C73  1  0.98848200  0.38364400  0.06498300  1
  C  C74  1  0.98730000  0.61659300  0.94521100  1
  C  C75  1  0.24035400  0.14904500  0.32557700  1
  C  C76  1  0.20583400  0.22861000  0.33233200  1
  C  C77  1  0.25889600  0.29908600  0.33591900  1
  C  C78  1  0.34661500  0.29049700  0.33237600  1
  C  C79  1  0.38127400  0.21142800  0.32503100  1
  C  C80  1  0.32831300  0.14088700  0.32145600  1
  C  C81  1  0.84147400  0.85109300  0.63467900  1
  C  C82  1  0.83072000  0.77095300  0.65185900  1
  C  C83  1  0.82666500  0.70056200  0.62487700  1
  C  C84  1  0.83431300  0.70983500  0.58064700  1
  C  C85  1  0.84657300  0.78950100  0.56340900  1
  C  C86  1  0.85059200  0.85996000  0.59034300  1
  O  O1  1  0.58275500  0.06997900  0.55108700  1
  O  O2  1  0.39667800  0.93010900  0.45919800  1
  O  O3  1  0.57888900  0.92954200  0.45869200  1
  O  O4  1  0.40052800  0.07051200  0.55161500  1
  O  O5  1  0.57845400  0.07649400  0.45909800  1
  O  O6  1  0.40097100  0.92356900  0.55122300  1
  O  O7  1  0.57842100  0.92303600  0.55068600  1
  O  O8  1  0.40102600  0.07703500  0.45958700  1
  O  O9  1  0.06280100  0.59132500  0.05170800  1
  O  O10  1  0.91294700  0.40892400  0.95849300  1
  O  O11  1  0.91460200  0.40910600  0.04933200  1
  O  O12  1  0.06115300  0.59113100  0.96086900  1
  O  O13  1  0.06305500  0.41332400  0.05209400  1
  O  O14  1  0.91270200  0.58692600  0.95809800  1
  O  O15  1  0.91435400  0.59178300  0.04899800  1
  O  O16  1  0.06139800  0.40846700  0.96120100  1
  F  F1  1  0.39870200  0.35981000  0.33584500  1
  F  F2  1  0.83047800  0.64060900  0.55415900  1
