# generated using pymatgen
data_ZnH3C9NO4
_symmetry_space_group_name_H-M   'P 1'
_cell_length_a   8.54140900
_cell_length_b   8.75797700
_cell_length_c   12.38136000
_cell_angle_alpha   94.85158700
_cell_angle_beta   92.24450600
_cell_angle_gamma   97.09600600
_symmetry_Int_Tables_number   1
_chemical_formula_structural   ZnH3C9NO4
_chemical_formula_sum   'Zn2 H6 C18 N2 O8'
_cell_volume   914.65273086
_cell_formula_units_Z   2
loop_
 _symmetry_equiv_pos_site_id
 _symmetry_equiv_pos_as_xyz
  1  'x, y, z'
loop_
 _atom_site_type_symbol
 _atom_site_label
 _atom_site_symmetry_multiplicity
 _atom_site_fract_x
 _atom_site_fract_y
 _atom_site_fract_z
 _atom_site_occupancy
  Zn  Zn1  1  0.99438300  0.01720600  0.88250400  1
  Zn  Zn2  1  0.00561700  0.98279600  0.11749600  1
  H  H1  1  0.93304000  0.15409300  0.50105900  1
  H  H2  1  0.06696100  0.84590800  0.49894100  1
  H  H3  1  0.51676100  0.11825400  0.06980900  1
  H  H4  1  0.48323900  0.88174700  0.93019100  1
  H  H5  1  0.82183000  0.50965200  0.99312200  1
  H  H6  1  0.17817100  0.49034900  0.00687800  1
  C  C1  1  0.24886900  0.21643700  0.02507200  1
  C  C2  1  0.75113200  0.78356400  0.97492800  1
  C  C3  1  0.19172400  0.78805600  0.97236000  1
  C  C4  1  0.80827700  0.21194500  0.02764000  1
  C  C5  1  0.02376700  0.94491100  0.46653900  1
  C  C6  1  0.97623400  0.05509000  0.53346100  1
  C  C7  1  0.98197900  0.04323900  0.64885600  1
  C  C8  1  0.01802100  0.95676200  0.35114400  1
  C  C9  1  0.40324400  0.31204300  0.03433400  1
  C  C10  1  0.59675700  0.68795800  0.96566600  1
  C  C11  1  0.53322700  0.23860200  0.05417600  1
  C  C12  1  0.46677300  0.76140000  0.94582400  1
  C  C13  1  0.68230200  0.30879500  0.03780100  1
  C  C14  1  0.31769900  0.69120600  0.96219900  1
  C  C15  1  0.70430200  0.45819800  0.00891200  1
  C  C16  1  0.29569800  0.54180400  0.99108800  1
  C  C17  1  0.57574400  0.53731800  0.99489100  1
  C  C18  1  0.42425600  0.46268400  0.00510900  1
  N  N1  1  0.01343700  0.96623200  0.25838000  1
  N  N2  1  0.98656400  0.03377000  0.74162000  1
  O  O1  1  0.19625900  0.14478600  0.10819800  1
  O  O2  1  0.80374200  0.85521500  0.89180200  1
  O  O3  1  0.18036800  0.17777300  0.92822800  1
  O  O4  1  0.81963300  0.82222800  0.07177200  1
  O  O5  1  0.14602000  0.85832900  0.88936600  1
  O  O6  1  0.85398100  0.14167200  0.11063400  1
  O  O7  1  0.14528300  0.82529900  0.06961800  1
  O  O8  1  0.85471700  0.17470200  0.93038200  1
