# Generated by REPEAT Assigner based on pymatgen
data_DB0-m2_o9_o27_f0_nbo.sym.145
_audit_creation_date              2022-05-24
_audit_creation_method            REPEAT_Assigner
_cell_length_a                    21.490796
_cell_length_b                    21.532800
_cell_length_c                    24.439639
_cell_angle_alpha                 116.121954
_cell_angle_beta                  116.076920
_cell_angle_gamma                 90.008099
_cell_volume                      8853.829638
_symmetry_space_group_name_H-M    P1
_symmetry_Int_Tables_number       1
loop_
    _symmetry_equiv_pos_site_id
    _symmetry_equiv_pos_as_xyz
    1  x,y,z
loop_
    _atom_site_type_symbol
    _atom_site_label
    _atom_site_fract_x
    _atom_site_fract_y
    _atom_site_fract_z
    _atom_type_partial_charge
    C   C1    0.064349  0.553929  0.632297  0.563201
    C   C2    0.009246  0.296792  0.240355  -0.028927
    C   C3    0.571409  0.270048  0.315126  -0.112619
    C   C4    0.517705  0.192540  0.458689  -0.113906
    C   C5    0.504884  0.185195  0.506503  -0.111399
    C   C6    0.493557  0.243020  0.554079  0.041591
    C   C7    0.494851  0.306227  0.552550  -0.205710
    C   C8    0.506901  0.312973  0.504387  0.025512
    C   C9    0.518744  0.255894  0.457301  -0.036888
    C   C10   0.419056  0.249540  0.608205  -0.177729
    C   C11   0.409506  0.251313  0.661018  -0.098748
    C   C12   0.464272  0.246364  0.715060  -0.105861
    C   C13   0.249504  0.448230  0.439925  -0.088807
    C   C14   0.528536  0.239631  0.716239  -0.160670
    C   C15   0.537740  0.236481  0.662753  -0.164953
    C   C16   0.482793  0.241106  0.608418  0.264810
    C   C17   0.078669  0.784433  0.841740  0.234828
    C   C18   0.044398  0.823344  0.801510  0.290462
    C   C19   0.971787  0.829267  0.795853  -0.359700
    C   C20   0.310826  0.490727  0.502655  0.016899
    C   C21   0.305837  0.527589  0.563270  -0.034973
    C   C22   0.240439  0.519358  0.560012  -0.130521
    C   C23   0.179754  0.476754  0.497467  -0.095724
    C   C24   0.184132  0.441015  0.436942  -0.023359
    C   C25   0.386087  0.572732  0.688942  -0.167133
    C   C26   0.442213  0.622351  0.752505  -0.104468
    C   C27   0.478388  0.679437  0.757896  -0.144769
    C   C28   0.111079  0.477386  0.495770  0.917529
    C   C29   0.458077  0.687221  0.699802  -0.047445
    C   C30   0.401924  0.637700  0.636257  -0.216344
    C   C31   0.366500  0.579614  0.630369  0.228074
    C   C32   0.109019  0.667103  0.742172  -0.441022
    C   C33   0.140430  0.705659  0.814176  0.704050
    C   C34   0.170931  0.672122  0.853577  -0.654428
    C   C35   0.165148  0.599525  0.819443  0.110569
    C   C36   0.129432  0.560725  0.747478  -0.187584
    C   C37   0.102027  0.594571  0.708640  0.184211
    C   C38   0.284113  0.782458  0.070467  0.906783
    C   C39   0.926348  0.416499  0.367442  0.567055
    C   C40   0.210936  0.711727  0.930511  0.867263
    C   C41   0.298481  0.873141  0.184184  0.094764
    C   C42   0.334885  0.908685  0.256223  -0.119715
    C   C43   0.397981  0.893961  0.292135  -0.012969
    C   C44   0.424001  0.842828  0.255178  -0.129838
    C   C45   0.386670  0.806005  0.183064  0.098699
    C   C46   0.323819  0.821169  0.147138  -0.445909
    C   C47   0.942891  0.439750  0.669905  -0.116370
    C   C48   0.887579  0.439771  0.612875  -0.121237
    C   C49   0.866522  0.501973  0.619030  0.134565
    C   C50   0.879420  0.492155  0.503244  0.830582
    C   C51   0.900311  0.563912  0.682604  -0.226294
    C   C52   0.955689  0.563872  0.739595  0.010185
    C   C53   0.976828  0.501753  0.733289  -0.160491
    C   C54   0.742448  0.507856  0.560008  -0.155881
    C   C55   0.684133  0.506915  0.504260  -0.031603
    C   C56   0.690705  0.503921  0.449262  0.020937
    C   C57   0.754679  0.498218  0.449264  -0.135191
    C   C58   0.811888  0.495992  0.503632  -0.110097
    C   C59   0.806024  0.501653  0.559588  0.056056
    C   C60   0.607775  0.459891  0.324221  -0.124987
    C   C61   0.027938  0.286512  0.296854  -0.140309
    C   C62   0.553058  0.466508  0.271294  -0.142889
    C   C63   0.523471  0.524456  0.286928  -0.114891
    C   C64   0.548972  0.576145  0.355517  -0.086508
    C   C65   0.603563  0.569533  0.408472  -0.137290
    C   C66   0.632479  0.510843  0.393043  0.118777
    C   C67   0.885063  0.413992  0.255474  -0.138927
    C   C68   0.851324  0.378091  0.183606  0.122288
    C   C69   0.818417  0.306463  0.146745  -0.541938
    C   C70   0.820399  0.270838  0.182499  0.132869
    C   C71   0.856366  0.306351  0.254584  -0.167407
    C   C72   0.083807  0.334542  0.361474  -0.153233
    C   C73   0.888383  0.378130  0.291185  0.111170
    C   C74   0.713955  0.201710  0.930732  0.955449
    C   C75   0.781821  0.268904  0.070310  0.978056
    C   C76   0.706021  0.178556  0.819357  0.050917
    C   C77   0.670872  0.143926  0.747372  -0.069012
    C   C78   0.604810  0.097313  0.709751  0.056945
    C   C79   0.574650  0.084985  0.744745  -0.072258
    C   C80   0.610683  0.118149  0.816655  0.055258
    C   C81   0.676327  0.165408  0.854298  -0.474787
    C   C82   0.491364  0.614945  0.502095  0.669484
    C   C83   0.121235  0.393099  0.369819  0.156435
    C   C84   0.379410  0.493275  0.502991  0.526182
    C   C85   0.504475  0.380122  0.503099  0.728433
    C   C86   0.615492  0.504639  0.502922  0.697573
    C   C87   0.503385  0.116046  0.504704  0.722563
    C   C88   0.436319  0.931823  0.368749  0.709125
    C   C89   0.502006  0.879125  0.501546  0.708250
    C   C90   0.567049  0.060919  0.633369  0.744964
    C   C91   0.284119  0.557071  0.282456  -0.083758
    C   C92   0.347575  0.607956  0.331059  -0.188295
    C   C93   0.370322  0.636946  0.401445  0.211410
    C   C94   0.102582  0.402942  0.312967  -0.174730
    C   C95   0.328590  0.616247  0.423006  -0.204439
    C   C96   0.264709  0.566218  0.374408  -0.026990
    C   C97   0.242668  0.536176  0.304126  -0.182298
    C   C98   0.440796  0.756607  0.453492  -0.143223
    C   C99   0.501268  0.811556  0.502767  -0.086524
    C   C100  0.558262  0.801307  0.552000  -0.039047
    C   C101  0.552979  0.737452  0.551872  -0.126818
    C   C102  0.492468  0.683113  0.502893  0.016299
    C   C103  0.436390  0.692421  0.452852  0.008055
    C   C104  0.686744  0.847218  0.604448  -0.208414
    C   C105  0.046279  0.355254  0.248526  -0.111353
    C   C106  0.750021  0.896684  0.657574  -0.099160
    C   C107  0.750965  0.954619  0.713485  -0.120716
    C   C108  0.688651  0.963034  0.716206  -0.133533
    C   C109  0.625060  0.914309  0.662433  -0.211068
    C   C110  0.624042  0.856461  0.606295  0.338863
    C   C111  0.510947  0.221724  0.290774  -0.117751
    C   C112  0.493692  0.217301  0.337229  -0.151922
    C   C113  0.536098  0.262208  0.408128  0.213092
    C   C114  0.597089  0.310059  0.432437  -0.160275
    C   C115  0.614780  0.313751  0.385960  -0.124711
    Cu  Cu1   0.993446  0.425160  0.501403  0.903860
    Cu  Cu2   0.997381  0.544963  0.498248  0.989678
    Cu  Cu3   0.463382  0.463110  0.434239  0.861163
    Cu  Cu4   0.531681  0.532069  0.571242  0.943531
    Cu  Cu5   0.562601  0.997112  0.501616  0.940441
    Cu  Cu6   0.440867  0.996051  0.500627  0.942499
    H   H1    0.965520  0.259057  0.189668  0.077150
    H   H2    0.522385  0.718316  0.807754  0.112623
    H   H3    0.486009  0.732297  0.704090  0.080985
    H   H4    0.385670  0.644604  0.591127  0.126698
    H   H5    0.087514  0.693871  0.711966  0.190624
    H   H6    0.187214  0.571845  0.848660  0.056195
    H   H7    0.124565  0.503896  0.721932  0.109705
    H   H8    0.249305  0.885785  0.157474  0.036559
    H   H9    0.313677  0.948729  0.283945  0.119573
    H   H10   0.473002  0.830105  0.282164  0.115889
    H   H11   0.407864  0.765935  0.155350  0.042106
    H   H12   0.998951  0.240574  0.290422  0.114863
    H   H13   0.020123  0.501701  0.778036  0.120416
    H   H14   0.959400  0.391020  0.665012  0.112072
    H   H15   0.860228  0.390821  0.563529  0.096016
    H   H16   0.883526  0.612586  0.687747  0.122368
    H   H17   0.982390  0.612453  0.789315  0.052561
    H   H18   0.737575  0.510173  0.603002  0.116828
    H   H19   0.760645  0.496691  0.407050  0.089059
    H   H20   0.630371  0.414066  0.311631  0.106308
    H   H21   0.533256  0.426139  0.217468  0.115739
    H   H22   0.480528  0.529548  0.245401  0.108065
    H   H23   0.099238  0.325146  0.405119  0.105525
    H   H24   0.526171  0.621871  0.367849  0.095440
    H   H25   0.623740  0.610685  0.462113  0.081160
    H   H26   0.910547  0.470036  0.283477  0.116220
    H   H27   0.850049  0.407168  0.156805  0.032915
    H   H28   0.795503  0.214664  0.154659  0.041191
    H   H29   0.858431  0.277754  0.282013  0.105932
    H   H30   0.757519  0.214995  0.847751  0.047656
    H   H31   0.695330  0.154677  0.721157  0.096305
    H   H32   0.523234  0.048460  0.716473  0.097736
    H   H33   0.586180  0.107526  0.842901  0.047506
    H   H34   0.131834  0.448156  0.318723  0.125304
    H   H35   0.192623  0.496725  0.266002  0.123999
    H   H36   0.266630  0.533913  0.227331  0.104807
    H   H37   0.379788  0.624562  0.313937  0.114099
    H   H38   0.345264  0.640172  0.477987  0.083733
    H   H39   0.231790  0.551060  0.391581  0.083133
    H   H40   0.396014  0.763520  0.414756  0.107010
    H   H41   0.597334  0.729676  0.590239  0.077883
    H   H42   0.686253  0.801149  0.561187  0.101550
    H   H43   0.799016  0.889583  0.655798  0.114693
    H   H44   0.800687  0.993017  0.755595  0.102436
    H   H45   0.031556  0.363393  0.204242  0.088572
    H   H46   0.689923  0.007564  0.760922  0.114445
    H   H47   0.576361  0.920635  0.665010  0.093497
    H   H48   0.585161  0.273230  0.278725  0.100082
    H   H49   0.477241  0.186998  0.235229  0.112044
    H   H50   0.446406  0.179089  0.317904  0.096901
    H   H51   0.631691  0.344071  0.487972  0.077278
    H   H52   0.662831  0.350713  0.405061  0.114093
    H   H53   0.527153  0.148362  0.421698  0.106039
    H   H54   0.485995  0.351086  0.589525  0.103521
    H   H55   0.376311  0.254345  0.566336  0.096113
    H   H56   0.252529  0.418252  0.392600  0.081415
    H   H57   0.359312  0.257314  0.660413  0.107225
    H   H58   0.457104  0.248522  0.756901  0.098414
    H   H59   0.571852  0.237432  0.759505  0.121418
    H   H60   0.588429  0.231781  0.664150  0.079916
    H   H61   0.086342  0.815520  0.895322  -0.024698
    H   H62   0.043164  0.731333  0.815839  -0.029619
    H   H63   0.078926  0.877469  0.829334  -0.023600
    H   H64   0.037871  0.793869  0.748286  -0.073900
    H   H65   0.936802  0.775239  0.767421  0.071560
    H   H66   0.947343  0.858211  0.766812  0.085126
    H   H67   0.235854  0.549633  0.606427  0.081935
    H   H68   0.977662  0.858899  0.848862  0.070887
    H   H69   0.358085  0.527949  0.685005  0.102360
    H   H70   0.457862  0.616473  0.798153  0.107149
    N   N1    0.261108  0.685806  0.965401  -0.322014
    N   N2    0.297486  0.720877  0.034486  -0.363003
    N   N3    0.233663  0.808158  0.035687  -0.396232
    N   N4    0.197775  0.773365  0.966629  -0.207739
    N   N5    0.731547  0.207844  0.033517  -0.373240
    N   N6    0.697707  0.174811  0.964458  -0.354721
    N   N7    0.764627  0.262441  0.967547  -0.369781
    N   N8    0.797907  0.295862  0.036565  -0.344757
    O   O1    0.029548  0.487153  0.601391  -0.484352
    O   O2    0.505878  0.614482  0.560282  -0.565772
    O   O3    0.378837  0.479796  0.444548  -0.461368
    O   O4    0.438244  0.506262  0.560420  -0.504687
    O   O5    0.457508  0.379044  0.445101  -0.615555
    O   O6    0.547184  0.439156  0.561255  -0.606965
    O   O7    0.558481  0.457382  0.445093  -0.455129
    O   O8    0.614625  0.547478  0.561031  -0.622945
    O   O9    0.543358  0.076430  0.482949  -0.590663
    O   O10   0.460619  0.095075  0.522254  -0.579412
    O   O11   0.503853  0.930404  0.401741  -0.599061
    O   O12   0.065550  0.586496  0.597789  -0.576389
    O   O13   0.401342  0.965504  0.401447  -0.605816
    O   O14   0.562897  0.917916  0.520588  -0.580311
    O   O15   0.440522  0.897350  0.479588  -0.584189
    O   O16   0.602181  0.063585  0.601314  -0.620920
    O   O17   0.499512  0.026712  0.599926  -0.623313
    O   O18   0.144986  0.777449  0.845465  -0.512112
    O   O19   0.091064  0.438839  0.517444  -0.659938
    O   O20   0.074722  0.520587  0.477222  -0.671994
    O   O21   0.957921  0.381654  0.400924  -0.500819
    O   O22   0.928584  0.484992  0.399235  -0.578673
    O   O23   0.896458  0.430001  0.484862  -0.631600
    O   O24   0.919326  0.550771  0.519623  -0.629206
    O   O25   0.479794  0.557652  0.444299  -0.537641
