# generated using pymatgen
data_CuH25C29NO7
_symmetry_space_group_name_H-M   'P 1'
_cell_length_a   10.68974300
_cell_length_b   14.41648000
_cell_length_c   15.14888700
_cell_angle_alpha   65.17036300
_cell_angle_beta   103.17848800
_cell_angle_gamma   103.84766000
_symmetry_Int_Tables_number   1
_chemical_formula_structural   CuH25C29NO7
_chemical_formula_sum   'Cu2 H50 C58 N2 O14'
_cell_volume   2035.54236127
_cell_formula_units_Z   2
loop_
 _symmetry_equiv_pos_site_id
 _symmetry_equiv_pos_as_xyz
  1  'x, y, z'
loop_
 _atom_site_type_symbol
 _atom_site_label
 _atom_site_symmetry_multiplicity
 _atom_site_fract_x
 _atom_site_fract_y
 _atom_site_fract_z
 _atom_site_occupancy
  Cu  Cu1  1  0.46862700  0.91810800  0.47969700  1
  Cu  Cu2  1  0.54035400  0.08251700  0.53007500  1
  H  H1  1  0.03184300  0.04283100  0.33586200  1
  H  H2  1  0.97621700  0.96072700  0.67367600  1
  H  H3  1  0.87073700  0.86399800  0.45303900  1
  H  H4  1  0.13856200  0.13757900  0.55714500  1
  H  H5  1  0.47182000  0.34431600  0.86901600  1
  H  H6  1  0.46929400  0.64889500  0.13270400  1
  H  H7  1  0.52036300  0.67967100  0.76806100  1
  H  H8  1  0.50677400  0.32436900  0.24368900  1
  H  H9  1  0.49411000  0.93109000  0.83315800  1
  H  H10  1  0.47099700  0.06508700  0.17168600  1
  H  H11  1  0.48210200  0.52234200  0.81115200  1
  H  H12  1  0.46386100  0.47115600  0.19071300  1
  H  H13  1  0.79430300  0.47463200  0.67941600  1
  H  H14  1  0.26896700  0.55369000  0.28950700  1
  H  H15  1  0.55263300  0.72072100  0.55291100  1
  H  H16  1  0.44083500  0.27202300  0.46968100  1
  H  H17  1  0.83218400  0.31424600  0.69708000  1
  H  H18  1  0.23749800  0.71781400  0.26560000  1
  H  H19  1  0.67818900  0.61488400  0.60384500  1
  H  H20  1  0.37416100  0.40770400  0.37395600  1
  H  H21  1  0.10334500  0.22829200  0.34329900  1
  H  H22  1  0.06630200  0.28806700  0.41675200  1
  H  H23  1  0.90648500  0.37605800  0.27843400  1
  H  H24  1  0.06678100  0.40753800  0.24270200  1
  H  H25  1  0.94232800  0.31572100  0.20558600  1
  H  H26  1  0.94234100  0.71258800  0.59557500  1
  H  H27  1  0.90546500  0.77465900  0.66702700  1
  H  H28  1  0.06759400  0.68934200  0.80556300  1
  H  H29  1  0.94174700  0.59651800  0.77113700  1
  H  H30  1  0.10138400  0.62566800  0.73489400  1
  H  H31  1  0.10517100  0.88675400  0.36122700  1
  H  H32  1  0.11585300  0.75976400  0.37518500  1
  H  H33  1  0.06535600  0.81615600  0.19069600  1
  H  H34  1  0.93958000  0.83226200  0.24262900  1
  H  H35  1  0.05478700  0.94336500  0.18131300  1
  H  H36  1  0.66784600  0.07830100  0.78297100  1
  H  H37  1  0.82822700  0.14598500  0.81040900  1
  H  H38  1  0.93287500  0.01259600  0.81424800  1
  H  H39  1  0.81254600  0.95509700  0.89703500  1
  H  H40  1  0.77860300  0.94333600  0.77908800  1
  H  H41  1  0.26803000  0.17050800  0.97550500  1
  H  H42  1  0.31310800  0.04287600  0.02346700  1
  H  H43  1  0.36204600  0.07639100  0.85921500  1
  H  H44  1  0.19532400  0.08789500  0.85415900  1
  H  H45  1  0.31510900  0.20317700  0.81145300  1
  H  H46  1  0.62368600  0.95407400  0.99153900  1
  H  H47  1  0.67684900  0.82884700  0.04500500  1
  H  H48  1  0.59897300  0.79030200  0.19987300  1
  H  H49  1  0.71283600  0.91057400  0.16640400  1
  H  H50  1  0.53988900  0.91288200  0.14652300  1
  C  C1  1  0.49337200  0.12195000  0.32233300  1
  C  C2  1  0.51320800  0.87865900  0.68730700  1
  C  C3  1  0.26458900  0.00596800  0.49985000  1
  C  C4  1  0.74435400  0.99473900  0.51008600  1
  C  C5  1  0.01858800  0.02117000  0.41295500  1
  C  C6  1  0.99030900  0.98075900  0.59710700  1
  C  C7  1  0.96898700  0.08788400  0.44769900  1
  C  C8  1  0.03993900  0.91382500  0.56250600  1
  C  C9  1  0.88338200  0.99517800  0.50921700  1
  C  C10  1  0.12562900  0.00635600  0.50082800  1
  C  C11  1  0.93216900  0.92608900  0.47604100  1
  C  C12  1  0.07693600  0.07562300  0.53403400  1
  C  C13  1  0.48675900  0.18972000  0.21760400  1
  C  C14  1  0.50841000  0.81008900  0.79102300  1
  C  C15  1  0.46945800  0.20961800  0.05119700  1
  C  C16  1  0.49139400  0.78610200  0.95355100  1
  C  C17  1  0.47423100  0.14722500  0.14929500  1
  C  C18  1  0.49870100  0.84997600  0.85681800  1
  C  C19  1  0.49271900  0.29532400  0.18695500  1
  C  C20  1  0.50818300  0.70519400  0.82215900  1
  C  C21  1  0.48454300  0.35999700  0.08720000  1
  C  C22  1  0.49590800  0.63797000  0.91944700  1
  C  C23  1  0.47711200  0.31566200  0.02042700  1
  C  C24  1  0.48910500  0.68060400  0.98464400  1
  C  C25  1  0.48514900  0.46744700  0.05265300  1
  C  C26  1  0.48983400  0.52985800  0.95315900  1
  C  C27  1  0.48483300  0.48210300  0.88918200  1
  C  C28  1  0.47670100  0.51349500  0.11493600  1
  C  C29  1  0.47704200  0.37707500  0.92233000  1
  C  C30  1  0.47772100  0.61778700  0.08112700  1
  C  C31  1  0.74322000  0.30490900  0.64844400  1
  C  C32  1  0.30610100  0.71627500  0.33051200  1
  C  C33  1  0.70420500  0.21537800  0.63074400  1
  C  C34  1  0.32628300  0.79619700  0.36194900  1
  C  C35  1  0.52605300  0.28449900  0.51930800  1
  C  C36  1  0.48350400  0.71637600  0.49061500  1
  C  C37  1  0.56347400  0.37709100  0.53468000  1
  C  C38  1  0.46317800  0.63242100  0.46237500  1
  C  C39  1  0.67096200  0.38379700  0.60322300  1
  C  C40  1  0.37033500  0.63317100  0.38249300  1
  C  C41  1  0.49808800  0.46303000  0.48341800  1
  C  C42  1  0.53313400  0.54882200  0.51027700  1
  C  C43  1  0.64012500  0.55037100  0.58215200  1
  C  C44  1  0.40185100  0.46692300  0.40337800  1
  C  C45  1  0.70942100  0.46994200  0.62581500  1
  C  C46  1  0.34138300  0.55194300  0.35274000  1
  C  C47  1  0.02669500  0.25749700  0.35813800  1
  C  C48  1  0.98262900  0.34505900  0.26498600  1
  C  C49  1  0.98207400  0.74457100  0.65318600  1
  C  C50  1  0.02614300  0.65824400  0.74748600  1
  C  C51  1  0.13128800  0.84268100  0.32563400  1
  C  C52  1  0.04207600  0.85959100  0.22866400  1
  C  C53  1  0.77132100  0.09451400  0.77271900  1
  C  C54  1  0.82716400  0.99463600  0.81880400  1
  C  C55  1  0.33120400  0.12354600  0.96896600  1
  C  C56  1  0.29878300  0.12273200  0.86660900  1
  C  C57  1  0.60403700  0.87266800  0.04421200  1
  C  C58  1  0.61464300  0.87147900  0.14606300  1
  N  N1  1  0.59421700  0.20524700  0.56816400  1
  N  N2  1  0.41466800  0.79526800  0.44174600  1
  O  O1  1  0.46954300  0.02174000  0.34563300  1
  O  O2  1  0.53844000  0.97893200  0.66415000  1
  O  O3  1  0.52258000  0.16321900  0.38842800  1
  O  O4  1  0.48634600  0.83754400  0.62132400  1
  O  O5  1  0.29246000  0.93203800  0.48254500  1
  O  O6  1  0.71652900  0.06832500  0.52764900  1
  O  O7  1  0.35345000  0.07787600  0.51878500  1
  O  O8  1  0.65555400  0.92288300  0.49077300  1
  O  O9  1  0.91979700  0.17930400  0.38573300  1
  O  O10  1  0.08900400  0.82237600  0.62454000  1
  O  O11  1  0.26109900  0.87847700  0.30881100  1
  O  O12  1  0.78178200  0.14010700  0.67240900  1
  O  O13  1  0.46216900  0.16602800  0.98502300  1
  O  O14  1  0.47851300  0.82714300  0.01716900  1
