# Generated by REPEAT Assigner based on pymatgen
data_DB0-m3_o18_o141_f0_fsc
_audit_creation_date              2022-05-24
_audit_creation_method            REPEAT_Assigner
_cell_length_a                    14.127422
_cell_length_b                    8.606512
_cell_length_c                    10.925201
_cell_angle_alpha                 90.000000
_cell_angle_beta                  109.242904
_cell_angle_gamma                 90.000000
_cell_volume                      1254.155128
_symmetry_space_group_name_H-M    P1
_symmetry_Int_Tables_number       1
loop_
    _symmetry_equiv_pos_site_id
    _symmetry_equiv_pos_as_xyz
    1  x,y,z
loop_
    _atom_site_type_symbol
    _atom_site_label
    _atom_site_fract_x
    _atom_site_fract_y
    _atom_site_fract_z
    _atom_type_partial_charge
    O   O1   0.079928  0.164192  0.171795  -0.758338
    O   O2   0.921210  0.832932  0.829876  -0.749597
    O   O3   0.920072  0.164192  0.828205  -0.758339
    O   O4   0.078790  0.832932  0.170124  -0.749574
    O   O5   0.910602  0.167742  0.078190  -0.789791
    O   O6   0.090646  0.831925  0.922479  -0.776948
    O   O7   0.089398  0.167742  0.921811  -0.789704
    O   O8   0.909354  0.831925  0.077521  -0.777035
    C   C1   0.992106  0.219262  0.166869  1.004792
    C   C2   0.009398  0.778720  0.834898  0.963378
    C   C3   0.007894  0.219262  0.833131  1.004649
    C   C4   0.990602  0.778720  0.165103  0.963426
    Zn  Zn1  0.889987  0.999435  0.941690  1.073309
    Zn  Zn2  0.110013  0.999435  0.058310  1.073240
    N   N1   0.758250  0.999247  0.883539  0.167030
    N   N2   0.241750  0.999247  0.116461  0.167037
    C   C5   0.604226  0.998222  0.714014  -0.251862
    C   C6   0.395774  0.998222  0.285986  -0.251853
    C   C7   0.707141  0.998519  0.756006  -0.145323
    C   C8   0.292859  0.998519  0.243994  -0.145304
    C   C9   0.710464  0.999295  0.971990  -0.185038
    C   C10  0.289536  0.999295  0.028011  -0.185001
    C   C11  0.605928  0.998840  0.934093  0.036890
    C   C12  0.394072  0.998840  0.065907  0.036888
    C   C13  0.553767  0.998481  0.802719  0.296494
    C   C14  0.446233  0.998481  0.197282  0.296484
    C   C15  0.552512  0.998763  0.022771  0.060707
    C   C16  0.447488  0.998763  0.977230  0.060685
    C   C17  0.398351  0.998586  0.843835  -0.135002
    C   C18  0.601649  0.998586  0.156165  -0.135029
    C   C19  0.451089  0.998320  0.758611  -0.312408
    C   C20  0.548911  0.998320  0.241390  -0.312380
    H   H1   0.410678  0.998026  0.655616  0.171486
    H   H2   0.589322  0.998026  0.344384  0.171499
    H   H3   0.242897  0.999763  0.928379  0.160541
    H   H4   0.757103  0.999763  0.071621  0.160610
    H   H5   0.253162  0.998168  0.313351  0.170131
    H   H6   0.746838  0.998168  0.686649  0.170146
    H   H7   0.563336  0.997687  0.611253  0.138077
    H   H8   0.436664  0.997687  0.388748  0.138091
    H   H9   0.318422  0.998486  0.799791  0.157656
    H   H10  0.681578  0.998486  0.200209  0.157651
    C   C21  0.973231  0.498287  0.172967  -0.053769
    C   C22  0.026770  0.498287  0.827033  -0.053774
    C   C23  0.984442  0.637715  0.237062  -0.222359
    C   C24  0.013292  0.360385  0.760558  -0.256697
    C   C25  0.015559  0.637715  0.762938  -0.222381
    C   C26  0.986708  0.360385  0.239443  -0.256810
    C   C27  0.993404  0.641008  0.366729  -0.012133
    C   C28  0.998110  0.362743  0.628517  0.010164
    C   C29  0.006596  0.641008  0.633271  -0.012312
    C   C30  0.001890  0.362743  0.371483  0.010570
    C   C31  0.000193  0.795283  0.430374  0.026349
    C   C32  0.972667  0.218871  0.548849  0.082432
    C   C33  0.999807  0.795283  0.569626  0.026509
    C   C34  0.027333  0.218871  0.451151  0.082079
    C   C35  0.997394  0.502666  0.432339  -0.005209
    C   C36  0.002606  0.502666  0.567661  -0.004641
    H   H11  0.069972  0.852651  0.428441  0.032705
    H   H12  0.890819  0.216798  0.496140  0.006718
    H   H13  0.930028  0.852651  0.571559  0.032671
    H   H14  0.109181  0.216798  0.503860  0.006782
    H   H15  0.064737  0.865555  0.628078  0.031414
    H   H16  0.005913  0.114433  0.389540  -0.064165
    H   H17  0.935263  0.865555  0.371923  0.031420
    H   H18  0.994087  0.114433  0.610460  -0.064205
    H   H19  0.961259  0.497190  0.070659  0.128107
    H   H20  0.038742  0.497190  0.929341  0.128162
