# Generated by REPEAT Assigner based on pymatgen
data_DB0-m2_o1_o2_f0_nbo.sym.2
_audit_creation_date              2022-05-24
_audit_creation_method            REPEAT_Assigner
_cell_length_a                    21.536079
_cell_length_b                    21.536079
_cell_length_c                    30.130849
_cell_angle_alpha                 90.000000
_cell_angle_beta                  90.000000
_cell_angle_gamma                 90.000000
_cell_volume                      13974.768440
_symmetry_space_group_name_H-M    P1
_symmetry_Int_Tables_number       1
loop_
    _symmetry_equiv_pos_site_id
    _symmetry_equiv_pos_as_xyz
    1  x,y,z
loop_
    _atom_site_type_symbol
    _atom_site_label
    _atom_site_fract_x
    _atom_site_fract_y
    _atom_site_fract_z
    _atom_type_partial_charge
    O   O1    0.088512  0.448826  0.512427  -0.621017
    O   O2    0.448826  0.911488  0.512427  -0.621023
    O   O3    0.911488  0.551174  0.512427  -0.621025
    O   O4    0.551174  0.088512  0.512427  -0.621014
    O   O5    0.088512  0.551174  0.487573  -0.621021
    O   O6    0.448826  0.088512  0.487573  -0.621015
    O   O7    0.911488  0.448826  0.487573  -0.621021
    O   O8    0.551174  0.911488  0.487573  -0.621019
    O   O9    0.588512  0.948826  0.012427  -0.621003
    O   O10   0.948826  0.411488  0.012427  -0.621006
    O   O11   0.411488  0.051174  0.012427  -0.621013
    O   O12   0.051174  0.588512  0.012427  -0.621006
    O   O13   0.588512  0.051174  0.987573  -0.620998
    O   O14   0.948826  0.588512  0.987573  -0.620993
    O   O15   0.411488  0.948826  0.987573  -0.620998
    O   O16   0.051174  0.411488  0.987573  -0.621006
    C   C1    0.117511  0.500000  0.500000  0.978933
    C   C2    0.500000  0.882489  0.500000  0.978938
    C   C3    0.882489  0.500000  0.500000  0.978961
    C   C4    0.500000  0.117511  0.500000  0.978913
    C   C5    0.617511  0.000000  0.000000  0.978867
    C   C6    0.000000  0.382489  0.000000  0.978875
    C   C7    0.382489  0.000000  0.000000  0.978882
    C   C8    0.000000  0.617511  0.000000  0.978859
    O   O17   0.017349  0.448933  0.436770  -0.587893
    O   O18   0.448933  0.982651  0.436770  -0.587881
    O   O19   0.982651  0.551067  0.436770  -0.587890
    O   O20   0.551067  0.017349  0.436770  -0.587890
    O   O21   0.017349  0.551067  0.563230  -0.587862
    O   O22   0.448933  0.017349  0.563230  -0.587855
    O   O23   0.982651  0.448933  0.563230  -0.587881
    O   O24   0.551067  0.982651  0.563230  -0.587875
    O   O25   0.517349  0.948933  0.936770  -0.587881
    O   O26   0.948933  0.482651  0.936770  -0.587883
    O   O27   0.482651  0.051067  0.936770  -0.587890
    O   O28   0.051067  0.517349  0.936770  -0.587885
    O   O29   0.517349  0.051067  0.063230  -0.587899
    O   O30   0.948933  0.517349  0.063230  -0.587883
    O   O31   0.482651  0.948933  0.063230  -0.587885
    O   O32   0.051067  0.482651  0.063230  -0.587885
    C   C9    0.281551  0.536860  0.530239  0.129817
    C   C10   0.536860  0.718449  0.530239  0.129808
    C   C11   0.718449  0.463140  0.530239  0.129821
    C   C12   0.463140  0.281551  0.530239  0.129802
    C   C13   0.281551  0.463140  0.469761  0.129770
    C   C14   0.536860  0.281551  0.469761  0.129788
    C   C15   0.718449  0.536860  0.469761  0.129768
    C   C16   0.463140  0.718449  0.469761  0.129792
    C   C17   0.781551  0.036860  0.030239  0.129823
    C   C18   0.036860  0.218449  0.030239  0.129790
    C   C19   0.218449  0.963140  0.030239  0.129832
    C   C20   0.963140  0.781551  0.030239  0.129808
    C   C21   0.781551  0.963140  0.969761  0.129793
    C   C22   0.036860  0.781551  0.969761  0.129768
    C   C23   0.218449  0.036860  0.969761  0.129822
    C   C24   0.963140  0.218449  0.969761  0.129817
    C   C25   0.000000  0.500000  0.415826  0.838713
    C   C26   0.500000  0.000000  0.415826  0.838672
    C   C27   0.000000  0.500000  0.584174  0.838653
    C   C28   0.500000  0.000000  0.584174  0.838641
    C   C29   0.500000  0.000000  0.915826  0.838762
    C   C30   0.000000  0.500000  0.915826  0.838740
    C   C31   0.500000  0.000000  0.084174  0.838694
    C   C32   0.000000  0.500000  0.084174  0.838683
    Cu  Cu1   0.000000  0.439410  0.500000  0.899640
    Cu  Cu2   0.439410  0.000000  0.500000  0.899629
    Cu  Cu3   0.000000  0.560590  0.500000  0.899636
    Cu  Cu4   0.560590  0.000000  0.500000  0.899657
    Cu  Cu5   0.500000  0.939410  0.000000  0.899639
    Cu  Cu6   0.939410  0.500000  0.000000  0.899656
    Cu  Cu7   0.500000  0.060590  0.000000  0.899658
    Cu  Cu8   0.060590  0.500000  0.000000  0.899648
    C   C33   0.185401  0.500000  0.500000  -0.441513
    C   C34   0.500000  0.814599  0.500000  -0.441501
    C   C35   0.814599  0.500000  0.500000  -0.441538
    C   C36   0.500000  0.185401  0.500000  -0.441493
    C   C37   0.685401  0.000000  0.000000  -0.441473
    C   C38   0.000000  0.314599  0.000000  -0.441462
    C   C39   0.314599  0.000000  0.000000  -0.441459
    C   C40   0.000000  0.685401  0.000000  -0.441461
    C   C41   0.217063  0.533467  0.531962  0.164120
    C   C42   0.533467  0.782937  0.531962  0.164127
    C   C43   0.782937  0.466533  0.531962  0.164131
    C   C44   0.466533  0.217063  0.531962  0.164121
    C   C45   0.217063  0.466533  0.468038  0.164164
    C   C46   0.533467  0.217063  0.468038  0.164153
    C   C47   0.782937  0.533467  0.468038  0.164175
    C   C48   0.466533  0.782937  0.468038  0.164126
    C   C49   0.717063  0.033467  0.031962  0.164113
    C   C50   0.033467  0.282937  0.031962  0.164091
    C   C51   0.282937  0.966533  0.031962  0.164070
    C   C52   0.966533  0.717063  0.031962  0.164091
    C   C53   0.717063  0.966533  0.968038  0.164188
    C   C54   0.033467  0.717063  0.968038  0.164192
    C   C55   0.282937  0.033467  0.968038  0.164171
    C   C56   0.966533  0.282937  0.968038  0.164174
    C   C57   0.025531  0.548997  0.297760  -0.449749
    C   C58   0.548997  0.974469  0.297760  -0.449732
    C   C59   0.974469  0.451003  0.297760  -0.449746
    C   C60   0.451003  0.025531  0.297760  -0.449725
    C   C61   0.025531  0.451003  0.702240  -0.449786
    C   C62   0.548997  0.025531  0.702240  -0.449805
    C   C63   0.974469  0.548997  0.702240  -0.449484
    C   C64   0.451003  0.974469  0.702240  -0.449495
    C   C65   0.525531  0.048997  0.797760  -0.449742
    C   C66   0.048997  0.474469  0.797760  -0.449720
    C   C67   0.474469  0.951003  0.797760  -0.449753
    C   C68   0.951003  0.525531  0.797760  -0.449728
    C   C69   0.525531  0.951003  0.202240  -0.449743
    C   C70   0.048997  0.525531  0.202240  -0.449764
    C   C71   0.474469  0.048997  0.202240  -0.449748
    C   C72   0.951003  0.474469  0.202240  -0.449759
    H   H1    0.044241  0.588451  0.280177  0.173238
    H   H2    0.588451  0.955759  0.280176  0.173232
    H   H3    0.955759  0.411549  0.280176  0.173234
    H   H4    0.411549  0.044241  0.280176  0.173231
    H   H5    0.044241  0.411549  0.719824  0.173261
    H   H6    0.588451  0.044241  0.719823  0.173268
    H   H7    0.955759  0.588451  0.719824  0.173171
    H   H8    0.411549  0.955759  0.719823  0.173177
    H   H9    0.544241  0.088451  0.780176  0.173228
    H   H10   0.088451  0.455759  0.780176  0.173223
    H   H11   0.455759  0.911549  0.780177  0.173214
    H   H12   0.911549  0.544241  0.780176  0.173207
    H   H13   0.544241  0.911549  0.219824  0.173236
    H   H14   0.088451  0.544241  0.219823  0.173241
    H   H15   0.455759  0.088451  0.219824  0.173236
    H   H16   0.911549  0.455759  0.219823  0.173240
    C   C73   0.026362  0.549037  0.343593  0.403514
    C   C74   0.549037  0.973638  0.343593  0.403481
    C   C75   0.973638  0.450963  0.343593  0.403516
    C   C76   0.450963  0.026362  0.343593  0.403466
    C   C77   0.026362  0.450963  0.656407  0.403428
    C   C78   0.549037  0.026362  0.656407  0.403460
    C   C79   0.973638  0.549037  0.656407  0.403260
    C   C80   0.450963  0.973638  0.656407  0.403273
    C   C81   0.526362  0.049037  0.843593  0.403543
    C   C82   0.049037  0.473638  0.843593  0.403505
    C   C83   0.473638  0.950963  0.843593  0.403572
    C   C84   0.950963  0.526362  0.843593  0.403528
    C   C85   0.526362  0.950963  0.156407  0.403478
    C   C86   0.049037  0.526362  0.156407  0.403522
    C   C87   0.473638  0.049037  0.156407  0.403489
    C   C88   0.950963  0.473638  0.156407  0.403515
    C   C89   0.000000  0.500000  0.366981  -0.467092
    C   C90   0.500000  0.000000  0.366981  -0.467037
    C   C91   0.000000  0.500000  0.633019  -0.466950
    C   C92   0.500000  0.000000  0.633019  -0.466966
    C   C93   0.500000  0.000000  0.866981  -0.467155
    C   C94   0.000000  0.500000  0.866981  -0.467108
    C   C95   0.500000  0.000000  0.133018  -0.467059
    C   C96   0.000000  0.500000  0.133019  -0.467093
    C   C97   0.000000  0.500000  0.274479  0.245468
    C   C98   0.500000  0.000000  0.274479  0.245460
    C   C99   0.000000  0.500000  0.725521  0.245472
    C   C100  0.500000  0.000000  0.725521  0.245476
    C   C101  0.500000  0.000000  0.774479  0.245421
    C   C102  0.000000  0.500000  0.774479  0.245407
    C   C103  0.500000  0.000000  0.225521  0.245472
    C   C104  0.000000  0.500000  0.225521  0.245481
    O   O33   0.516032  0.411119  0.536814  -0.615086
    O   O34   0.411118  0.483968  0.536814  -0.615080
    O   O35   0.483968  0.588882  0.536814  -0.615081
    O   O36   0.588882  0.516032  0.536814  -0.615075
    O   O37   0.516032  0.588882  0.463186  -0.615076
    O   O38   0.411118  0.516032  0.463186  -0.615074
    O   O39   0.483968  0.411119  0.463186  -0.615077
    O   O40   0.588882  0.483968  0.463186  -0.615072
    O   O41   0.016032  0.911119  0.036814  -0.615052
    O   O42   0.911119  0.983968  0.036814  -0.615045
    O   O43   0.983968  0.088882  0.036814  -0.615049
    O   O44   0.088882  0.016032  0.036814  -0.615053
    O   O45   0.016032  0.088882  0.963186  -0.615029
    O   O46   0.911119  0.016032  0.963186  -0.615028
    O   O47   0.983968  0.911119  0.963186  -0.615028
    O   O48   0.088882  0.983968  0.963186  -0.615031
    C   C105  0.500000  0.381997  0.500000  0.960978
    C   C106  0.381997  0.500000  0.500000  0.960981
    C   C107  0.500000  0.618003  0.500000  0.960975
    C   C108  0.618003  0.500000  0.500000  0.960975
    C   C109  0.000000  0.881997  0.000000  0.960897
    C   C110  0.881997  0.000000  0.000000  0.960901
    C   C111  0.000000  0.118003  0.000000  0.960894
    C   C112  0.118003  0.000000  0.000000  0.960926
    C   C113  0.313838  0.500000  0.500000  -0.418302
    C   C114  0.500000  0.686162  0.500000  -0.418305
    C   C115  0.686162  0.500000  0.500000  -0.418305
    C   C116  0.500000  0.313838  0.500000  -0.418309
    C   C117  0.813838  0.000000  0.000000  -0.418322
    C   C118  0.000000  0.186162  0.000000  -0.418299
    C   C119  0.186162  0.000000  0.000000  -0.418332
    C   C120  0.000000  0.813838  0.000000  -0.418297
    Cu  Cu9   0.500000  0.500000  0.543499  0.893179
    Cu  Cu10  0.500000  0.500000  0.456501  0.893076
    Cu  Cu11  0.000000  0.000000  0.043499  0.893107
    Cu  Cu12  0.000000  0.000000  0.956501  0.893077
    C   C121  0.058332  0.601368  0.366830  -0.365507
    H   H17   0.093076  0.582868  0.390580  0.105915
    H   H18   0.083089  0.631012  0.342536  0.085840
    H   H19   0.023940  0.630808  0.384320  0.104689
    C   C122  0.601368  0.941668  0.366830  -0.365477
    H   H20   0.582868  0.906924  0.390580  0.105907
    H   H21   0.631013  0.916910  0.342537  0.085834
    H   H22   0.630808  0.976059  0.384320  0.104687
    C   C123  0.941668  0.398632  0.366830  -0.365507
    H   H23   0.906924  0.417132  0.390580  0.105914
    H   H24   0.916910  0.368988  0.342536  0.085839
    H   H25   0.976060  0.369192  0.384320  0.104690
    C   C124  0.398632  0.058332  0.366830  -0.365458
    H   H26   0.417132  0.093076  0.390580  0.105902
    H   H27   0.368987  0.083090  0.342537  0.085830
    H   H28   0.369192  0.023941  0.384320  0.104680
    C   C125  0.058332  0.398632  0.633170  -0.365386
    H   H29   0.093076  0.417132  0.609420  0.105881
    H   H30   0.083090  0.368987  0.657463  0.085814
    H   H31   0.023941  0.369192  0.615680  0.104661
    C   C126  0.601368  0.058332  0.633170  -0.365424
    H   H32   0.582868  0.093076  0.609420  0.105894
    H   H33   0.631012  0.083090  0.657464  0.085819
    H   H34   0.630808  0.023940  0.615680  0.104669
    C   C127  0.941668  0.601368  0.633170  -0.365441
    H   H35   0.906924  0.582868  0.609420  0.105907
    H   H36   0.916910  0.631013  0.657464  0.085828
    H   H37   0.976059  0.630808  0.615680  0.104684
    C   C128  0.398632  0.941668  0.633170  -0.365446
    H   H38   0.417132  0.906924  0.609420  0.105909
    H   H39   0.368988  0.916911  0.657464  0.085830
    H   H40   0.369192  0.976060  0.615680  0.104685
    C   C129  0.558332  0.101368  0.866830  -0.365522
    H   H41   0.593076  0.082868  0.890580  0.105918
    H   H42   0.583090  0.131012  0.842536  0.085842
    H   H43   0.523940  0.130808  0.884320  0.104692
    C   C130  0.101368  0.441668  0.866830  -0.365488
    H   H44   0.082868  0.406924  0.890580  0.105910
    H   H45   0.131013  0.416910  0.842537  0.085836
    H   H46   0.130809  0.476059  0.884320  0.104686
    C   C131  0.441668  0.898632  0.866830  -0.365537
    H   H47   0.406924  0.917133  0.890580  0.105913
    H   H48   0.416911  0.868988  0.842536  0.085853
    H   H49   0.476060  0.869192  0.884320  0.104694
    C   C132  0.898632  0.558332  0.866830  -0.365499
    H   H50   0.917132  0.593076  0.890580  0.105905
    H   H51   0.868987  0.583090  0.842537  0.085846
    H   H52   0.869192  0.523941  0.884320  0.104687
    C   C133  0.558332  0.898632  0.133170  -0.365452
    H   H53   0.593076  0.917132  0.109420  0.105899
    H   H54   0.583090  0.868987  0.157463  0.085827
    H   H55   0.523941  0.869192  0.115680  0.104677
    C   C134  0.101368  0.558332  0.133170  -0.365492
    H   H56   0.082868  0.593076  0.109420  0.105910
    H   H57   0.131012  0.583089  0.157464  0.085835
    H   H58   0.130808  0.523940  0.115680  0.104684
    C   C135  0.441668  0.101368  0.133170  -0.365470
    H   H59   0.406924  0.082868  0.109420  0.105905
    H   H60   0.416910  0.131013  0.157463  0.085829
    H   H61   0.476059  0.130809  0.115680  0.104684
    C   C136  0.898632  0.441668  0.133170  -0.365484
    H   H62   0.917132  0.406924  0.109420  0.105908
    H   H63   0.868988  0.416911  0.157464  0.085833
    H   H64   0.869192  0.476060  0.115680  0.104682
    C   C137  0.179953  0.565078  0.567681  -0.271382
    H   H65   0.208555  0.582518  0.595449  0.071937
    H   H66   0.153653  0.604542  0.553353  0.091521
    H   H67   0.147170  0.531383  0.582718  0.075425
    C   C138  0.565078  0.820047  0.567681  -0.271431
    H   H68   0.582518  0.791445  0.595449  0.071948
    H   H69   0.604542  0.846347  0.553353  0.091535
    H   H70   0.531383  0.852830  0.582717  0.075445
    C   C139  0.820047  0.434922  0.567681  -0.271425
    H   H71   0.791445  0.417482  0.595449  0.071945
    H   H72   0.846347  0.395458  0.553353  0.091533
    H   H73   0.852830  0.468617  0.582718  0.075444
    C   C140  0.434922  0.179953  0.567681  -0.271382
    H   H74   0.417482  0.208555  0.595449  0.071937
    H   H75   0.395458  0.153653  0.553353  0.091521
    H   H76   0.468617  0.147170  0.582717  0.075423
    C   C141  0.179953  0.434922  0.432319  -0.271440
    H   H77   0.208555  0.417482  0.404551  0.071955
    H   H78   0.153653  0.395458  0.446647  0.091532
    H   H79   0.147170  0.468617  0.417282  0.075432
    C   C142  0.565078  0.179953  0.432319  -0.271442
    H   H80   0.582518  0.208555  0.404551  0.071954
    H   H81   0.604542  0.153653  0.446647  0.091534
    H   H82   0.531383  0.147170  0.417282  0.075437
    C   C143  0.820047  0.565078  0.432319  -0.271444
    H   H83   0.791445  0.582518  0.404551  0.071957
    H   H84   0.846347  0.604542  0.446647  0.091533
    H   H85   0.852830  0.531383  0.417283  0.075430
    C   C144  0.434922  0.820047  0.432319  -0.271390
    H   H86   0.417482  0.791445  0.404551  0.071938
    H   H87   0.395458  0.846347  0.446647  0.091527
    H   H88   0.468617  0.852830  0.417282  0.075424
    C   C145  0.679953  0.065078  0.067681  -0.271411
    H   H89   0.708555  0.082518  0.095449  0.071948
    H   H90   0.653653  0.104542  0.053353  0.091522
    H   H91   0.647170  0.031383  0.082718  0.075433
    C   C146  0.065078  0.320047  0.067681  -0.271362
    H   H92   0.082518  0.291445  0.095449  0.071935
    H   H93   0.104542  0.346347  0.053353  0.091513
    H   H94   0.031383  0.352830  0.082717  0.075421
    C   C147  0.320047  0.934922  0.067681  -0.271339
    H   H95   0.291445  0.917482  0.095449  0.071929
    H   H96   0.346347  0.895459  0.053353  0.091508
    H   H97   0.352830  0.968617  0.082717  0.075415
    C   C148  0.934922  0.679953  0.067681  -0.271361
    H   H98   0.917482  0.708555  0.095449  0.071934
    H   H99   0.895458  0.653653  0.053353  0.091512
    H   H100  0.968617  0.647170  0.082717  0.075422
    C   C149  0.679953  0.934922  0.932319  -0.271474
    H   H101  0.708555  0.917482  0.904551  0.071968
    H   H102  0.653653  0.895459  0.946647  0.091539
    H   H103  0.647170  0.968617  0.917283  0.075430
    C   C150  0.065078  0.679953  0.932319  -0.271479
    H   H104  0.082518  0.708555  0.904551  0.071962
    H   H105  0.104542  0.653653  0.946647  0.091539
    H   H106  0.031383  0.647170  0.917282  0.075435
    C   C151  0.320047  0.065078  0.932319  -0.271474
    H   H107  0.291445  0.082518  0.904551  0.071966
    H   H108  0.346347  0.104542  0.946647  0.091540
    H   H109  0.352830  0.031383  0.917282  0.075432
    C   C152  0.934922  0.320047  0.932319  -0.271480
    H   H110  0.917482  0.291445  0.904551  0.071969
    H   H111  0.895458  0.346347  0.946647  0.091541
    H   H112  0.968617  0.352830  0.917282  0.075435
    C   C153  0.315322  0.582448  0.559287  -0.236398
    H   H113  0.290432  0.627516  0.559020  0.072270
    H   H114  0.318107  0.564290  0.593677  0.082573
    H   H115  0.362520  0.593445  0.547362  0.064475
    C   C154  0.582448  0.684678  0.559287  -0.236374
    H   H116  0.627516  0.709568  0.559020  0.072265
    H   H117  0.564291  0.681893  0.593677  0.082568
    H   H118  0.593445  0.637480  0.547362  0.064465
    C   C155  0.684678  0.417552  0.559287  -0.236396
    H   H119  0.709568  0.372484  0.559020  0.072270
    H   H120  0.681893  0.435710  0.593677  0.082572
    H   H121  0.637480  0.406555  0.547362  0.064473
    C   C156  0.417552  0.315322  0.559287  -0.236369
    H   H122  0.372484  0.290432  0.559020  0.072263
    H   H123  0.435709  0.318107  0.593677  0.082568
    H   H124  0.406555  0.362520  0.547362  0.064467
    C   C157  0.315322  0.417552  0.440713  -0.236319
    H   H125  0.290432  0.372484  0.440979  0.072252
    H   H126  0.318107  0.435709  0.406323  0.082553
    H   H127  0.362520  0.406555  0.452638  0.064448
    C   C158  0.582448  0.315322  0.440713  -0.236342
    H   H128  0.627516  0.290432  0.440979  0.072259
    H   H129  0.564290  0.318107  0.406323  0.082557
    H   H130  0.593445  0.362520  0.452638  0.064453
    C   C159  0.684678  0.582448  0.440713  -0.236320
    H   H131  0.709568  0.627516  0.440979  0.072252
    H   H132  0.681893  0.564291  0.406323  0.082553
    H   H133  0.637480  0.593445  0.452638  0.064448
    C   C160  0.417552  0.684678  0.440713  -0.236330
    H   H134  0.372484  0.709568  0.440979  0.072255
    H   H135  0.435710  0.681893  0.406323  0.082555
    H   H136  0.406555  0.637480  0.452638  0.064448
    C   C161  0.815322  0.082448  0.059287  -0.236384
    H   H137  0.790432  0.127516  0.059020  0.072269
    H   H138  0.818107  0.064290  0.093676  0.082569
    H   H139  0.862520  0.093445  0.047362  0.064470
    C   C162  0.082448  0.184678  0.059287  -0.236327
    H   H140  0.127516  0.209568  0.059021  0.072256
    H   H141  0.064291  0.181893  0.093677  0.082558
    H   H142  0.093445  0.137480  0.047362  0.064451
    C   C163  0.184678  0.917552  0.059287  -0.236380
    H   H143  0.209568  0.872484  0.059020  0.072266
    H   H144  0.181893  0.935710  0.093677  0.082570
    H   H145  0.137480  0.906555  0.047362  0.064466
    C   C164  0.917552  0.815322  0.059287  -0.236365
    H   H146  0.872484  0.790432  0.059021  0.072265
    H   H147  0.935710  0.818107  0.093677  0.082566
    H   H148  0.906555  0.862520  0.047362  0.064462
    C   C165  0.815322  0.917552  0.940713  -0.236376
    H   H149  0.790432  0.872484  0.940979  0.072256
    H   H150  0.818107  0.935709  0.906323  0.082561
    H   H151  0.862520  0.906555  0.952637  0.064477
    C   C166  0.082448  0.815322  0.940713  -0.236325
    H   H152  0.127516  0.790432  0.940979  0.072254
    H   H153  0.064290  0.818107  0.906323  0.082551
    H   H154  0.093445  0.862520  0.952638  0.064453
    C   C167  0.184678  0.082448  0.940713  -0.236413
    H   H155  0.209568  0.127516  0.940979  0.072267
    H   H156  0.181893  0.064290  0.906323  0.082568
    H   H157  0.137480  0.093445  0.952638  0.064481
    C   C168  0.917552  0.184678  0.940713  -0.236416
    H   H158  0.872484  0.209568  0.940979  0.072266
    H   H159  0.935710  0.181893  0.906323  0.082569
    H   H160  0.906555  0.137480  0.952638  0.064485
