# Generated by REPEAT Assigner based on pymatgen
data_DB0-m3_o160_o146_f0_fsc.sym.2
_audit_creation_date              2022-05-24
_audit_creation_method            REPEAT_Assigner
_cell_length_a                    13.418598
_cell_length_b                    15.308534
_cell_length_c                    11.782114
_cell_angle_alpha                 90.000000
_cell_angle_beta                  90.145145
_cell_angle_gamma                 90.000000
_cell_volume                      2420.263170
_symmetry_space_group_name_H-M    P1
_symmetry_Int_Tables_number       1
loop_
    _symmetry_equiv_pos_site_id
    _symmetry_equiv_pos_as_xyz
    1  x,y,z
loop_
    _atom_site_type_symbol
    _atom_site_label
    _atom_site_fract_x
    _atom_site_fract_y
    _atom_site_fract_z
    _atom_type_partial_charge
    C   C1   0.997442  0.304736  0.732128  -0.097867
    C   C2   0.997442  0.695264  0.732128  -0.097866
    C   C3   0.998911  0.078368  0.937697  -0.008699
    C   C4   0.998911  0.921632  0.937697  -0.008705
    C   C5   0.082845  0.208390  0.859541  -0.210366
    C   C6   0.082845  0.791610  0.859541  -0.210368
    H   H1   0.150846  0.188542  0.901590  0.118455
    H   H2   0.150846  0.811457  0.901590  0.118456
    C   C7   0.911219  0.256640  0.746918  -0.080452
    C   C8   0.911219  0.743360  0.746918  -0.080455
    H   H3   0.843611  0.273378  0.701898  0.096892
    H   H4   0.843611  0.726622  0.701898  0.096892
    C   C9   0.083339  0.280305  0.788906  -0.090598
    C   C10  0.083339  0.719695  0.788906  -0.090598
    H   H5   0.151757  0.316568  0.778047  0.103432
    H   H6   0.151757  0.683432  0.778047  0.103432
    C   C11  0.997059  0.159730  0.872666  0.251338
    C   C12  0.997059  0.840270  0.872666  0.251340
    C   C13  0.911674  0.183598  0.815260  -0.188661
    C   C14  0.911674  0.816402  0.815260  -0.188658
    H   H7   0.844926  0.144535  0.822903  0.113930
    H   H8   0.844926  0.855464  0.822903  0.113930
    C   C15  0.000625  0.305077  0.260688  -0.032562
    C   C16  0.000625  0.694923  0.260688  -0.032560
    C   C17  0.003840  0.078386  0.055054  0.089337
    C   C18  0.003840  0.921614  0.055054  0.089339
    C   C19  0.911842  0.194342  0.157493  0.289492
    C   C20  0.911842  0.805658  0.157493  0.289496
    C   C21  0.089719  0.270532  0.222745  -0.166005
    C   C22  0.089719  0.729468  0.222745  -0.166008
    H   H9   0.160206  0.298289  0.248747  0.119666
    H   H10  0.160206  0.701711  0.248747  0.119667
    C   C23  0.911832  0.267221  0.226721  -0.269341
    C   C24  0.911832  0.732779  0.226721  -0.269344
    H   H11  0.841733  0.292975  0.256686  0.133420
    H   H12  0.841733  0.707024  0.256686  0.133420
    C   C25  0.001400  0.159769  0.120227  -0.071181
    C   C26  0.001400  0.840231  0.120227  -0.071184
    C   C27  0.089867  0.198051  0.153304  -0.086437
    C   C28  0.089867  0.801949  0.153304  -0.086433
    H   H13  0.159907  0.170048  0.126478  0.090123
    H   H14  0.159907  0.829952  0.126478  0.090122
    C   C29  0.995258  0.000000  0.879955  -0.256503
    C   C30  0.006898  0.000000  0.112839  -0.213657
    H   H15  0.991595  0.000000  0.788282  0.117847
    H   H16  0.009234  0.000000  0.204560  0.122362
    O   O1   0.084824  0.594256  0.613750  -0.657531
    O   O2   0.084824  0.405744  0.613750  -0.657531
    O   O3   0.913237  0.591294  0.615557  -0.650248
    O   O4   0.913237  0.408706  0.615557  -0.650246
    C   C31  0.998693  0.622393  0.651444  0.731605
    C   C32  0.998693  0.377607  0.651444  0.731603
    O   O5   0.913933  0.594224  0.379939  -0.627155
    O   O6   0.913933  0.405776  0.379939  -0.627155
    O   O7   0.085832  0.591246  0.377931  -0.625999
    O   O8   0.085832  0.408754  0.377931  -0.625999
    C   C33  0.000117  0.622287  0.342014  0.687637
    C   C34  0.000117  0.377713  0.342014  0.687636
    Zn  Zn1  0.888297  0.500000  0.495641  0.984901
    Zn  Zn2  0.110589  0.500000  0.498051  1.024118
    C   C35  0.293874  0.500000  0.401682  -0.200735
    N   N1   0.241294  0.500000  0.498791  0.000344
    C   C36  0.288545  0.500000  0.599498  -0.069908
    C   C37  0.391024  0.500000  0.605272  -0.095214
    C   C38  0.447370  0.500000  0.506472  -0.293020
    C   C39  0.396794  0.500000  0.403979  0.682168
    C   C40  0.609236  0.500000  0.604024  -0.328247
    C   C41  0.551669  0.500000  0.505972  0.383957
    C   C42  0.600740  0.500000  0.402979  -0.157756
    C   C43  0.547023  0.500000  0.303144  0.311626
    N   N2   0.446931  0.500000  0.305269  -0.669458
    C   C44  0.711546  0.500000  0.596950  0.084500
    N   N3   0.757582  0.500000  0.495707  -0.035070
    C   C45  0.703803  0.500000  0.399154  -0.019231
    H   H17  0.246123  0.500000  0.677317  0.153796
    H   H18  0.741489  0.500000  0.318197  0.114212
    H   H19  0.585200  0.500000  0.222465  0.079386
    H   H20  0.423006  0.500000  0.689013  0.122768
    H   H21  0.578403  0.500000  0.688142  0.176030
    H   H22  0.255642  0.500000  0.320851  0.153409
    H   H23  0.754743  0.500000  0.674422  0.106679
    C   C46  0.815163  0.151978  0.127010  -0.412980
    H   H24  0.752058  0.188844  0.164102  0.104041
    H   H25  0.805687  0.150780  0.033628  0.089056
    H   H26  0.813136  0.084431  0.160806  0.118007
    C   C47  0.815163  0.848022  0.127010  -0.412982
    H   H27  0.752058  0.811156  0.164102  0.104041
    H   H28  0.813136  0.915569  0.160806  0.118008
    H   H29  0.805687  0.849219  0.033628  0.089057
