# Generated by REPEAT Assigner based on pymatgen
data_DB0-m29_o81_o1470_f0_pts.sym.64
_audit_creation_date              2022-05-24
_audit_creation_method            REPEAT_Assigner
_cell_length_a                    15.673849
_cell_length_b                    12.087016
_cell_length_c                    13.486761
_cell_angle_alpha                 91.427519
_cell_angle_beta                  87.133660
_cell_angle_gamma                 106.963506
_cell_volume                      2440.698724
_symmetry_space_group_name_H-M    P1
_symmetry_Int_Tables_number       1
loop_
    _symmetry_equiv_pos_site_id
    _symmetry_equiv_pos_as_xyz
    1  x,y,z
loop_
    _atom_site_type_symbol
    _atom_site_label
    _atom_site_fract_x
    _atom_site_fract_y
    _atom_site_fract_z
    _atom_type_partial_charge
    C   C1   0.886354  0.986696  0.868237  -0.231889
    C   C2   0.289525  0.974214  0.918548  0.065212
    C   C3   0.203611  0.961593  0.889982  -0.191850
    C   C4   0.135662  0.960132  0.959352  0.143275
    C   C5   0.052576  0.956874  0.928108  -0.210999
    C   C6   0.984154  0.963515  0.996036  -0.038497
    C   C7   0.805137  0.992424  0.840520  -0.091531
    C   C8   0.735166  0.979579  0.908681  -0.037883
    C   C9   0.900990  0.970329  0.966813  0.190726
    C   C10  0.832260  0.966351  0.037949  0.013888
    C   C11  0.747710  0.967800  0.008620  0.013644
    C   C12  0.305831  0.980521  0.019895  -0.079613
    C   C13  0.235716  0.972029  0.088715  -0.218929
    C   C14  0.151325  0.964508  0.058539  0.221301
    C   C15  0.082823  0.963635  0.127036  -0.304421
    C   C16  0.999928  0.963525  0.096001  0.242927
    C   C17  0.933501  0.965813  0.165884  -0.240217
    C   C18  0.850526  0.966236  0.137673  -0.071412
    H   H1   0.936868  0.999213  0.809373  0.140535
    H   H2   0.189570  0.957614  0.812179  0.146246
    H   H3   0.044390  0.948587  0.849449  0.156814
    H   H4   0.796112  0.003090  0.762790  0.170099
    H   H5   0.248497  0.978040  0.166971  0.183030
    H   H6   0.094667  0.965953  0.205445  0.160156
    H   H7   0.946069  0.967240  0.244043  0.156386
    H   H8   0.802454  0.970746  0.196399  0.126446
    O   O1   0.623286  0.032090  0.075746  -0.550216
    C   C19  0.672677  0.961039  0.081450  0.466730
    O   O2   0.442476  0.749261  0.209835  -0.507328
    O   O3   0.651684  0.879673  0.148539  -0.467500
    O   O4   0.524546  0.905409  0.296726  -0.638678
    C   C20  0.484632  0.793647  0.289734  0.766027
    Fe  Fe1  0.529957  0.009457  0.183987  1.465469
    O   O5   0.412102  0.935289  0.123501  -0.526040
    O   O6   0.453650  0.106309  0.042588  -0.515396
    C   C21  0.395560  0.004709  0.058325  0.746332
    O   O7   0.556108  0.170148  0.241117  -0.627736
    O   O8   0.410471  0.096154  0.286669  -0.590721
    C   C22  0.484361  0.181954  0.289633  0.676316
    O   O9   0.465402  0.851674  0.682679  -0.556676
    O   O10  0.610850  0.866951  0.647142  -0.486468
    C   C23  0.526356  0.810102  0.638771  0.530687
    O   O11  0.648244  0.040314  0.793012  -0.636219
    O   O12  0.575388  0.900165  0.902035  -0.536791
    C   C24  0.649089  0.976910  0.870266  0.717821
    O   O13  0.335656  0.952744  0.747587  -0.495560
    O   O14  0.546419  0.120748  0.633922  -0.575043
    C   C25  0.501897  0.197417  0.642257  0.480843
    O   O15  0.443714  0.010161  0.858977  -0.534194
    C   C26  0.358884  0.978115  0.839423  0.571912
    O   O16  0.446894  0.195443  0.719135  -0.454135
    Fe  Fe2  0.524987  0.007194  0.742399  1.451528
    C   C27  0.493687  0.205680  0.465352  -0.226151
    C   C28  0.499741  0.265034  0.553729  0.140525
    C   C29  0.504554  0.382126  0.554294  -0.055032
    C   C30  0.523069  0.450905  0.649306  0.032481
    C   C31  0.492962  0.559687  0.652667  0.156415
    C   C32  0.495143  0.258727  0.376783  -0.029963
    C   C33  0.499489  0.375300  0.375142  -0.096501
    C   C34  0.498847  0.435357  0.464845  0.080603
    C   C35  0.495766  0.555803  0.464953  -0.271495
    C   C36  0.499236  0.616947  0.554329  0.058031
    C   C37  0.502708  0.732566  0.553277  -0.005919
    C   C38  0.506587  0.434296  0.277297  0.205634
    C   C39  0.473605  0.540737  0.281147  -0.239187
    C   C40  0.486585  0.608282  0.376443  0.365556
    C   C41  0.485615  0.723844  0.377899  -0.276293
    C   C42  0.495893  0.783927  0.466441  -0.048580
    H   H9   0.484164  0.398619  0.710791  0.052440
    H   H10  0.461420  0.373858  0.226423  -0.000974
    H   H11  0.401336  0.513428  0.266771  0.080654
    H   H12  0.488043  0.114392  0.464645  0.196221
    H   H13  0.499161  0.874428  0.469852  0.138565
    H   H14  0.537985  0.619670  0.703724  0.025931
    H   H15  0.509577  0.596070  0.219443  0.128326
    C   C43  0.398678  0.537069  0.701203  -0.238079
    C   C44  0.325867  0.452323  0.643386  0.393152
    C   C45  0.235609  0.441858  0.694692  -0.306613
    H   H16  0.234579  0.411075  0.771643  0.064841
    H   H17  0.222306  0.527125  0.696273  0.055385
    H   H18  0.182982  0.378904  0.653295  0.050623
    H   H19  0.324912  0.483292  0.566952  -0.069457
    H   H20  0.336035  0.365370  0.640585  -0.089635
    H   H21  0.397723  0.504326  0.777485  0.056543
    H   H22  0.382105  0.619945  0.708611  0.068355
    C   C46  0.621174  0.476761  0.676102  -0.181137
    C   C47  0.686988  0.558279  0.604608  0.461102
    C   C48  0.781613  0.570899  0.633539  -0.314458
    H   H23  0.790917  0.605633  0.710390  0.055197
    H   H24  0.794917  0.485655  0.628760  0.060863
    H   H25  0.829127  0.631561  0.582037  0.056216
    H   H26  0.679307  0.522959  0.528213  -0.121316
    H   H27  0.676726  0.645174  0.607275  -0.119187
    H   H28  0.629245  0.514580  0.752072  0.036942
    H   H29  0.638909  0.394637  0.677620  0.039348
    C   C49  0.600797  0.461496  0.227791  -0.117386
    C   C50  0.673110  0.541128  0.289189  0.192911
    C   C51  0.761809  0.568999  0.230704  -0.302823
    H   H30  0.778580  0.487948  0.210942  0.052760
    H   H31  0.758000  0.615654  0.162054  0.078413
    H   H32  0.814729  0.624653  0.276661  0.061267
    H   H33  0.657954  0.623392  0.307407  -0.045213
    H   H34  0.679554  0.497049  0.358080  0.024849
    H   H35  0.618538  0.380441  0.213822  0.068604
    H   H36  0.601417  0.500649  0.154150  0.028235
