# Generated by REPEAT Assigner based on pymatgen
data_DB0-m2_o11_o11_f0_pcu.sym.15
_audit_creation_date              2022-05-24
_audit_creation_method            REPEAT_Assigner
_cell_length_a                    16.191126
_cell_length_b                    15.140638
_cell_length_c                    9.563726
_cell_angle_alpha                 90.000000
_cell_angle_beta                  90.030061
_cell_angle_gamma                 90.000000
_cell_volume                      2344.489668
_symmetry_space_group_name_H-M    P1
_symmetry_Int_Tables_number       1
loop_
    _symmetry_equiv_pos_site_id
    _symmetry_equiv_pos_as_xyz
    1  x,y,z
loop_
    _atom_site_type_symbol
    _atom_site_label
    _atom_site_fract_x
    _atom_site_fract_y
    _atom_site_fract_z
    _atom_type_partial_charge
    O   O1   0.414048  0.910286  0.616737  -0.482646
    O   O2   0.414274  0.096227  0.607348  -0.717626
    O   O3   0.915049  0.403827  0.608765  -0.547830
    O   O4   0.910973  0.585387  0.617823  -0.640564
    O   O5   0.409798  0.910781  0.375992  -0.350673
    O   O6   0.411045  0.087917  0.367041  -0.517492
    O   O7   0.910504  0.412486  0.368777  -0.524778
    O   O8   0.913671  0.594103  0.377952  -0.535809
    C   C1   0.384260  0.881295  0.497603  0.416253
    C   C2   0.385421  0.121767  0.485807  0.731338
    C   C3   0.885382  0.378581  0.487719  0.650682
    C   C4   0.884515  0.618877  0.499604  0.688739
    Cu  Cu1  0.496832  0.003597  0.632658  1.219075
    Cu  Cu2  0.997856  0.496355  0.632569  1.160621
    Cu  Cu3  0.497435  0.998232  0.353296  0.483926
    Cu  Cu4  0.996875  0.502064  0.353160  0.540429
    O   O9   0.583645  0.091864  0.609072  -0.620411
    O   O10  0.583723  0.914539  0.618427  -0.628710
    O   O11  0.084606  0.585444  0.616731  -0.611757
    O   O12  0.080504  0.403777  0.607328  -0.658998
    O   O13  0.580948  0.090721  0.369670  -0.573474
    O   O14  0.579331  0.904991  0.379230  -0.471324
    O   O15  0.079169  0.595074  0.377448  -0.461156
    O   O16  0.084468  0.413843  0.367810  -0.559668
    C   C5   0.609927  0.120525  0.488185  0.810968
    C   C6   0.609150  0.880453  0.500260  0.691727
    C   C7   0.109588  0.619412  0.498189  0.704179
    C   C8   0.110150  0.379640  0.485846  0.822809
    C   C9   0.717458  0.787242  0.394911  0.449383
    C   C10  0.718100  0.211867  0.377143  0.478851
    C   C11  0.219844  0.290040  0.373994  0.490537
    C   C12  0.216794  0.713553  0.391735  0.463761
    C   C13  0.671112  0.809411  0.505932  -0.458874
    C   C14  0.671454  0.191872  0.488626  -0.539109
    C   C15  0.171793  0.308284  0.484649  -0.540634
    C   C16  0.171455  0.690470  0.503436  -0.505310
    H   H1   0.675719  0.773322  0.603030  0.178489
    H   H2   0.675901  0.230229  0.583609  0.187922
    H   H3   0.175154  0.268081  0.577824  0.188423
    H   H4   0.176732  0.725885  0.601066  0.186935
    C   C17  0.278942  0.215474  0.374172  0.050755
    C   C18  0.275211  0.788674  0.392728  0.036470
    C   C19  0.775991  0.712193  0.395602  0.087377
    C   C20  0.777204  0.286403  0.377762  0.114594
    C   C21  0.325146  0.194761  0.486527  0.029926
    C   C22  0.323045  0.809279  0.503281  0.120757
    C   C23  0.822925  0.690427  0.506709  0.013281
    C   C24  0.824680  0.306023  0.489121  0.001285
    C   C25  0.431710  0.994174  0.916964  0.724286
    C   C26  0.931548  0.498403  0.915776  0.646261
    N   N1   0.496266  0.008549  0.841764  -0.686113
    N   N2   0.997614  0.491510  0.841708  -0.669585
    H   H5   0.544042  0.040650  0.891053  0.276785
    H   H6   0.047745  0.464581  0.892157  0.365013
    C   C27  0.433180  0.007926  0.069985  -0.265741
    C   C28  0.933557  0.484439  0.068704  -0.358921
    N   N3   0.498163  0.993951  0.144237  0.167084
    N   N4   0.995880  0.507140  0.144086  0.288677
    H   H7   0.376753  0.029177  0.120524  0.156932
    H   H8   0.879704  0.455858  0.117889  0.214785
    O   O17  0.707273  0.831320  0.271064  -0.525096
    H   H9   0.750051  0.878055  0.272739  0.344278
    O   O18  0.707444  0.166765  0.254290  -0.517896
    H   H10  0.750132  0.119952  0.256410  0.342955
    O   O19  0.210618  0.336773  0.252389  -0.512105
    H   H11  0.254063  0.382720  0.256637  0.359320
    O   O20  0.205294  0.670810  0.267047  -0.505609
    H   H12  0.248784  0.624847  0.265283  0.349324
    O   O21  0.289018  0.170126  0.251475  -0.423013
    H   H13  0.328252  0.206429  0.196638  0.313424
    O   O22  0.283127  0.835067  0.270518  -0.442392
    H   H14  0.321328  0.799232  0.212902  0.341464
    O   O23  0.784866  0.666736  0.272675  -0.433548
    H   H15  0.822405  0.703696  0.215600  0.322002
    O   O24  0.785911  0.333045  0.256042  -0.450976
    H   H16  0.823933  0.296942  0.198527  0.325959
    O   O25  0.321414  0.245763  0.604721  -0.484670
    H   H17  0.295650  0.207282  0.676193  0.381026
    O   O26  0.320309  0.759459  0.622705  -0.487743
    H   H18  0.294454  0.798516  0.693289  0.380342
    O   O27  0.818744  0.738337  0.627960  -0.502981
    H   H19  0.792085  0.698193  0.696117  0.394479
    O   O28  0.821653  0.254548  0.606799  -0.496500
    H   H20  0.796505  0.292847  0.679150  0.387920
    O   O29  0.357852  0.974713  0.854560  -0.522921
    H   H21  0.329014  0.032227  0.847886  0.333455
    O   O30  0.856596  0.510175  0.852249  -0.516205
    H   H22  0.839461  0.570473  0.879882  0.353028
    O   O31  0.554246  0.940432  0.085860  -0.333876
    H   H23  0.607337  0.972193  0.096712  0.377800
    O   O32  0.045618  0.567419  0.085779  -0.434453
    H   H24  0.017219  0.624491  0.101547  0.371095
