# Generated by REPEAT Assigner based on pymatgen
data_DB0-m3_o19_o23_f0_nbo.sym.42
_audit_creation_date              2022-05-24
_audit_creation_method            REPEAT_Assigner
_cell_length_a                    39.609111
_cell_length_b                    23.764652
_cell_length_c                    23.813070
_cell_angle_alpha                 90.000000
_cell_angle_beta                  53.792242
_cell_angle_gamma                 90.000000
_cell_volume                      18086.355623
_symmetry_space_group_name_H-M    P1
_symmetry_Int_Tables_number       1
loop_
    _symmetry_equiv_pos_site_id
    _symmetry_equiv_pos_as_xyz
    1  x,y,z
loop_
    _atom_site_type_symbol
    _atom_site_label
    _atom_site_fract_x
    _atom_site_fract_y
    _atom_site_fract_z
    _atom_type_partial_charge
    O   O1    0.000660  0.950373  0.915516  -0.662246
    O   O2    0.999345  0.050155  0.084485  -0.660686
    O   O3    0.001387  0.952909  0.082160  -0.676097
    O   O4    0.998618  0.047620  0.917840  -0.674654
    O   O5    0.500660  0.450373  0.915516  -0.662212
    O   O6    0.499345  0.550155  0.084485  -0.660656
    O   O7    0.501387  0.452909  0.082160  -0.676099
    O   O8    0.498618  0.547620  0.917840  -0.674587
    C   C1    0.999519  0.999060  0.890801  0.771867
    C   C2    0.000486  0.001465  0.109200  0.771623
    C   C3    0.499519  0.499060  0.890801  0.771556
    C   C4    0.500486  0.501466  0.109200  0.771510
    O   O9    0.062489  0.950566  0.936969  -0.619283
    O   O10   0.937517  0.049964  0.063031  -0.622354
    O   O11   0.937875  0.952737  0.060153  -0.637022
    O   O12   0.062128  0.047792  0.939849  -0.640079
    O   O13   0.562489  0.450566  0.936969  -0.619297
    O   O14   0.437517  0.549964  0.063031  -0.622377
    O   O15   0.437875  0.452737  0.060153  -0.637025
    O   O16   0.562128  0.547792  0.939849  -0.640078
    C   C5    0.081760  0.999297  0.919211  0.562761
    C   C6    0.918245  0.001237  0.080790  0.564435
    C   C7    0.581760  0.499297  0.919211  0.562882
    C   C8    0.418245  0.501237  0.080790  0.564595
    Zn  Zn1   0.000049  0.936457  0.000020  1.312128
    Zn  Zn2   0.999956  0.064072  0.999981  1.314621
    Zn  Zn3   0.500049  0.436457  0.000020  1.312133
    Zn  Zn4   0.499956  0.564072  0.999981  1.314603
    C   C9    0.226218  0.948095  0.744569  -0.467598
    C   C10   0.774027  0.051184  0.257924  -0.334193
    C   C11   0.774008  0.948479  0.255172  -0.470745
    C   C12   0.225761  0.050798  0.742319  -0.330255
    C   C13   0.726218  0.448095  0.744569  -0.467574
    C   C14   0.274027  0.551184  0.257924  -0.334139
    C   C15   0.274008  0.448479  0.255172  -0.470585
    C   C16   0.725761  0.550798  0.742319  -0.330220
    C   C17   0.273236  0.049082  0.692914  -0.128479
    C   C18   0.726839  0.944967  0.295349  -0.113194
    C   C19   0.726564  0.049106  0.307310  -0.122325
    C   C20   0.273396  0.944935  0.704394  -0.113963
    C   C21   0.773236  0.549082  0.692914  -0.128541
    C   C22   0.226839  0.444967  0.295349  -0.113209
    C   C23   0.226564  0.549106  0.307310  -0.122321
    C   C24   0.773396  0.444935  0.704393  -0.114005
    H   H1    0.287578  0.937279  0.648661  0.058592
    H   H2    0.716799  0.042914  0.361156  0.046513
    H   H3    0.712694  0.937188  0.351045  0.058911
    H   H4    0.283025  0.042986  0.639041  0.048021
    H   H5    0.787577  0.437279  0.648661  0.058592
    H   H6    0.216799  0.542914  0.361156  0.046526
    H   H7    0.212694  0.437188  0.351046  0.058913
    H   H8    0.783025  0.542986  0.639041  0.048034
    H   H9    0.219013  0.952942  0.706380  0.131309
    H   H10   0.786271  0.047877  0.289324  0.111723
    H   H11   0.781200  0.953344  0.293376  0.132048
    H   H12   0.213528  0.047431  0.710907  0.109376
    H   H13   0.719013  0.452942  0.706380  0.131321
    H   H14   0.286271  0.547876  0.289324  0.111712
    H   H15   0.281200  0.453343  0.293376  0.132022
    H   H16   0.713528  0.547431  0.710907  0.109385
    H   H17   0.286824  0.089116  0.694927  0.015005
    H   H18   0.717913  0.910144  0.275602  0.000640
    H   H19   0.712810  0.089046  0.305481  0.013638
    H   H20   0.282461  0.910165  0.723990  0.000730
    H   H21   0.786824  0.589116  0.694927  0.015002
    H   H22   0.217913  0.410144  0.275602  0.000655
    H   H23   0.212810  0.589046  0.305481  0.013639
    H   H24   0.782461  0.410165  0.723990  0.000747
    C   C25   0.372908  0.000347  0.628767  0.071541
    C   C26   0.627097  0.999867  0.371226  0.070872
    C   C27   0.872908  0.500347  0.628767  0.071515
    C   C28   0.127097  0.499867  0.371226  0.070156
    C   C29   0.210200  0.000159  0.790977  0.821791
    C   C30   0.789804  0.000691  0.209020  0.812462
    C   C31   0.710200  0.500159  0.790977  0.821569
    C   C32   0.289804  0.500691  0.209020  0.812420
    C   C33   0.289396  0.000312  0.712186  0.727699
    C   C34   0.710609  0.000237  0.287811  0.728258
    C   C35   0.789396  0.500312  0.712186  0.727811
    C   C36   0.210609  0.500237  0.287811  0.727802
    C   C37   0.274171  0.006804  0.787014  -0.050620
    C   C38   0.725807  0.006877  0.213012  -0.052111
    C   C39   0.774171  0.506803  0.787014  -0.050330
    C   C40   0.225807  0.506877  0.213012  -0.052106
    C   C41   0.226947  0.001932  0.834482  -0.289012
    C   C42   0.773051  0.002377  0.165522  -0.286276
    C   C43   0.726947  0.501932  0.834482  -0.289118
    C   C44   0.273051  0.502377  0.165522  -0.286186
    C   C45   0.335190  0.000346  0.666458  -0.528890
    C   C46   0.664815  0.999977  0.333537  -0.528983
    C   C47   0.835190  0.500346  0.666458  -0.528942
    C   C48   0.164815  0.499977  0.333537  -0.528312
    C   C49   0.164398  0.999856  0.836832  -0.614483
    C   C50   0.835606  0.000787  0.163165  -0.606106
    C   C51   0.664398  0.499856  0.836832  -0.614298
    C   C52   0.335606  0.500787  0.163165  -0.606047
    C   C53   0.126681  0.999611  0.874511  0.195797
    C   C54   0.873324  0.000959  0.125487  0.190898
    C   C55   0.626681  0.499611  0.874511  0.195650
    C   C56   0.373324  0.500959  0.125487  0.190757
    H   H25   0.217952  0.963720  0.866754  0.051046
    H   H26   0.786509  0.038221  0.128807  0.070405
    H   H27   0.782213  0.964254  0.133058  0.051250
    H   H28   0.213333  0.037652  0.871376  0.071078
    H   H29   0.717952  0.463720  0.866754  0.051082
    H   H30   0.286509  0.538221  0.128807  0.070378
    H   H31   0.282213  0.464254  0.133057  0.051236
    H   H32   0.713333  0.537652  0.871376  0.071096
    H   H33   0.287964  0.973378  0.800155  0.030729
    H   H34   0.716025  0.048451  0.206085  -0.008408
    H   H35   0.712159  0.973357  0.199711  0.030493
    H   H36   0.283774  0.048445  0.794139  -0.009537
    H   H37   0.787964  0.473377  0.800155  0.030606
    H   H38   0.216025  0.548451  0.206085  -0.008400
    H   H39   0.212159  0.473357  0.199711  0.030500
    H   H40   0.783774  0.548445  0.794139  -0.009613
    C   C57   0.999514  0.999243  0.830682  -0.106662
    C   C58   0.000488  0.001262  0.169321  -0.105993
    C   C59   0.499514  0.499243  0.830682  -0.106339
    C   C60   0.500488  0.501262  0.169321  -0.105905
    C   C61   0.999640  0.999382  0.780031  0.025376
    C   C62   0.000359  0.001061  0.219975  0.024521
    C   C63   0.499640  0.499382  0.780031  0.025058
    C   C64   0.500359  0.501061  0.219975  0.024464
    C   C65   0.999912  0.999530  0.720590  -0.011017
    C   C66   0.000084  0.000812  0.279418  -0.009962
    C   C67   0.499912  0.499530  0.720590  -0.010710
    C   C68   0.500084  0.500812  0.279418  -0.009916
    C   C69   0.000223  0.999645  0.669760  -0.066600
    C   C70   0.999771  0.000608  0.330251  -0.067528
    C   C71   0.500223  0.499645  0.669760  -0.066831
    C   C72   0.499771  0.500608  0.330251  -0.067573
    O   O17   0.500757  0.916492  0.452109  -0.665783
    O   O18   0.499248  0.083658  0.547883  -0.666888
    O   O19   0.499114  0.916246  0.550854  -0.651042
    O   O20   0.500891  0.083904  0.449138  -0.651780
    O   O21   0.000757  0.416492  0.452109  -0.665767
    O   O22   0.999248  0.583658  0.547883  -0.666899
    O   O23   0.999114  0.416246  0.550854  -0.651028
    O   O24   0.000891  0.583904  0.449138  -0.651770
    C   C73   0.499954  0.890264  0.501416  0.768861
    C   C74   0.500051  0.109887  0.498577  0.773065
    C   C75   0.999954  0.390264  0.501416  0.768694
    C   C76   0.000051  0.609887  0.498577  0.772902
    O   O25   0.436866  0.001562  0.516365  -0.686712
    O   O26   0.563139  0.998588  0.483627  -0.687277
    O   O27   0.936866  0.501562  0.516365  -0.686717
    O   O28   0.063139  0.498588  0.483627  -0.687309
    O   O29   0.437771  0.998850  0.612362  -0.650707
    O   O30   0.562234  0.001301  0.387630  -0.650836
    O   O31   0.937771  0.498850  0.612362  -0.650734
    O   O32   0.062234  0.501301  0.387630  -0.650907
    C   C77   0.417841  0.000299  0.583851  0.670612
    C   C78   0.582164  0.999848  0.416141  0.671655
    C   C79   0.917841  0.500299  0.583851  0.670686
    C   C80   0.082164  0.499848  0.416141  0.672144
    Zn  Zn5   0.498855  0.999960  0.437636  1.301604
    Zn  Zn6   0.501150  0.000190  0.562357  1.302090
    Zn  Zn7   0.998855  0.499960  0.437636  1.301636
    Zn  Zn8   0.001150  0.500190  0.562357  1.302130
    O   O33   0.035210  0.082366  0.467626  -0.635254
    O   O34   0.964783  0.917794  0.532385  -0.635643
    O   O35   0.962598  0.083012  0.535144  -0.616705
    O   O36   0.037394  0.917147  0.464868  -0.616700
    O   O37   0.535210  0.582366  0.467626  -0.635218
    O   O38   0.464783  0.417794  0.532386  -0.635596
    O   O39   0.462598  0.583012  0.535144  -0.616689
    O   O40   0.537394  0.417147  0.464868  -0.616679
    C   C81   0.999011  0.108744  0.501440  0.673747
    C   C82   0.000981  0.891414  0.498572  0.673588
    C   C83   0.499011  0.608744  0.501440  0.673680
    C   C84   0.500981  0.391415  0.498572  0.673523
    O   O41   0.036780  0.997907  0.548071  -0.642982
    O   O42   0.963212  0.002256  0.451942  -0.643224
    O   O43   0.536780  0.497907  0.548071  -0.642982
    O   O44   0.463212  0.502256  0.451942  -0.643222
    O   O45   0.964892  0.001673  0.617743  -0.667187
    O   O46   0.035099  0.998491  0.382269  -0.666863
    O   O47   0.464892  0.501673  0.617744  -0.667164
    O   O48   0.535099  0.498491  0.382269  -0.666840
    C   C85   0.000657  0.999772  0.609212  0.711403
    C   C86   0.999334  0.000398  0.390800  0.711625
    C   C87   0.500657  0.499772  0.609212  0.711478
    C   C88   0.499334  0.500398  0.390800  0.711633
    Zn  Zn9   0.046590  0.999990  0.454448  1.288654
    Zn  Zn10  0.953402  0.000170  0.545564  1.289395
    Zn  Zn11  0.546590  0.499990  0.454448  1.288627
    Zn  Zn12  0.453402  0.500170  0.545564  1.289367
    C   C89   0.499845  0.829903  0.501374  -0.118959
    C   C90   0.500157  0.170250  0.498622  -0.121605
    C   C91   0.999845  0.329903  0.501374  -0.118840
    C   C92   0.000157  0.670250  0.498622  -0.121512
    C   C93   0.499706  0.779205  0.501373  0.036047
    C   C94   0.500293  0.220949  0.498628  0.037186
    C   C95   0.999706  0.279205  0.501373  0.035979
    C   C96   0.000293  0.720949  0.498628  0.037208
    C   C97   0.999497  0.219801  0.501393  -0.016231
    C   C98   0.000498  0.780355  0.498612  -0.016815
    C   C99   0.499497  0.719801  0.501393  -0.016276
    C   C100  0.500498  0.280355  0.498612  -0.016787
    C   C101  0.999288  0.169103  0.501418  -0.055499
    C   C102  0.000705  0.831053  0.498592  -0.055347
    C   C103  0.499288  0.669103  0.501418  -0.055454
    C   C104  0.500705  0.331053  0.498592  -0.055334
    C   C105  0.210306  0.105778  0.780190  0.774815
    O   O49   0.183698  0.131662  0.780272  -0.563939
    O   O50   0.226789  0.128184  0.811083  -0.255941
    C   C106  0.212995  0.178872  0.844920  -0.110746
    H   H41   0.230419  0.189304  0.866697  0.091863
    H   H42   0.179126  0.176174  0.888025  0.083085
    H   H43   0.218568  0.212307  0.807810  0.088457
    C   C107  0.795090  0.895379  0.215864  0.882287
    O   O51   0.818366  0.871092  0.225530  -0.582044
    O   O52   0.787606  0.873121  0.172130  -0.321528
    C   C108  0.806879  0.824398  0.136462  -0.024124
    H   H44   0.796562  0.813697  0.103444  0.077683
    H   H45   0.798202  0.789569  0.173733  0.064541
    H   H46   0.841308  0.830342  0.102758  0.060614
    C   C109  0.789253  0.106299  0.220323  0.773738
    O   O53   0.815744  0.132369  0.220384  -0.563294
    O   O54   0.772684  0.128612  0.189524  -0.257166
    C   C110  0.786267  0.179419  0.155936  -0.103947
    H   H47   0.768807  0.189745  0.134195  0.090639
    H   H48   0.820149  0.176987  0.112828  0.080493
    H   H49   0.780547  0.212788  0.193212  0.087125
    C   C111  0.205356  0.894820  0.783611  0.880166
    O   O55   0.182195  0.870377  0.773800  -0.581863
    O   O56   0.212917  0.872585  0.827260  -0.322115
    C   C112  0.193844  0.823705  0.862687  -0.024312
    H   H50   0.204190  0.813054  0.895676  0.078124
    H   H51   0.202678  0.788961  0.825244  0.065434
    H   H52   0.159390  0.829386  0.896396  0.059658
    C   C113  0.710306  0.605778  0.780191  0.774819
    O   O57   0.683698  0.631663  0.780272  -0.563951
    O   O58   0.726789  0.628184  0.811084  -0.255920
    C   C114  0.712995  0.678872  0.844920  -0.110767
    H   H53   0.730419  0.689304  0.866698  0.091862
    H   H54   0.679126  0.676173  0.888026  0.083090
    H   H55   0.718568  0.712307  0.807810  0.088468
    C   C115  0.295090  0.395379  0.215864  0.882219
    O   O59   0.318366  0.371092  0.225530  -0.582022
    O   O60   0.287606  0.373121  0.172129  -0.321512
    C   C116  0.306879  0.324399  0.136462  -0.024176
    H   H56   0.296562  0.313697  0.103443  0.077696
    H   H57   0.298202  0.289569  0.173733  0.064532
    H   H58   0.341308  0.330342  0.102758  0.060638
    C   C117  0.289253  0.606299  0.220323  0.773738
    O   O61   0.315744  0.632369  0.220385  -0.563311
    O   O62   0.272684  0.628612  0.189525  -0.257146
    C   C118  0.286267  0.679419  0.155936  -0.103950
    H   H59   0.268807  0.689746  0.134195  0.090636
    H   H60   0.320149  0.676987  0.112828  0.080498
    H   H61   0.280547  0.712788  0.193212  0.087129
    C   C119  0.705356  0.394820  0.783610  0.880158
    O   O63   0.682195  0.370377  0.773800  -0.581850
    O   O64   0.712917  0.372585  0.827260  -0.322103
    C   C120  0.693844  0.323705  0.862687  -0.024342
    H   H62   0.704190  0.313054  0.895676  0.078131
    H   H63   0.702678  0.288961  0.825244  0.065437
    H   H64   0.659390  0.329386  0.896395  0.059667
