# generated using pymatgen
data_Fe2H23C52Cl3O16
_symmetry_space_group_name_H-M   'P 1'
_cell_length_a   15.43155900
_cell_length_b   11.60703500
_cell_length_c   13.76812900
_cell_angle_alpha   88.62830600
_cell_angle_beta   101.67703100
_cell_angle_gamma   107.66331100
_symmetry_Int_Tables_number   1
_chemical_formula_structural   Fe2H23C52Cl3O16
_chemical_formula_sum   'Fe2 H23 C52 Cl3 O16'
_cell_volume   2299.32496532
_cell_formula_units_Z   1
loop_
 _symmetry_equiv_pos_site_id
 _symmetry_equiv_pos_as_xyz
  1  'x, y, z'
loop_
 _atom_site_type_symbol
 _atom_site_label
 _atom_site_symmetry_multiplicity
 _atom_site_fract_x
 _atom_site_fract_y
 _atom_site_fract_z
 _atom_site_occupancy
  Fe  Fe1  1  0.52242500  0.01267100  0.80426800  1
  Fe  Fe2  1  0.51790200  0.98773200  0.21732100  1
  H  H1  1  0.97938900  0.06924200  0.22251400  1
  H  H2  1  0.85594300  0.01742300  0.91544700  1
  H  H3  1  0.07726000  0.07667600  0.10377900  1
  H  H4  1  0.96103500  0.92273700  0.91753700  1
  H  H5  1  0.06069800  0.93761400  0.79870200  1
  H  H6  1  0.17926400  0.97445900  0.10656000  1
  H  H7  1  0.52241100  0.40180800  0.65949900  1
  H  H8  1  0.46998400  0.40820900  0.33989600  1
  H  H9  1  0.54131300  0.59574300  0.36693400  1
  H  H10  1  0.46768500  0.08479600  0.48859100  1
  H  H11  1  0.53112000  0.89841300  0.51822300  1
  H  H12  1  0.80576400  0.23877300  0.27500900  1
  H  H13  1  0.80860200  0.26312600  0.45244100  1
  H  H14  1  0.86866900  0.92963000  0.50531400  1
  H  H15  1  0.86486200  0.90415200  0.32788400  1
  H  H16  1  0.29657400  0.45396300  0.54252900  1
  H  H17  1  0.20799600  0.33374900  0.65927300  1
  H  H18  1  0.43849100  0.47525400  0.89808000  1
  H  H19  1  0.52758100  0.59580300  0.78190700  1
  H  H20  1  0.17592000  0.10340200  0.69484200  1
  H  H21  1  0.16940000  0.07704500  0.51688100  1
  H  H22  1  0.22510100  0.74065800  0.56808000  1
  H  H23  1  0.23127800  0.76660700  0.74619100  1
  C  C1  1  0.83579400  0.05605900  0.18490700  1
  C  C2  1  0.91925000  0.05678900  0.16308400  1
  C  C3  1  0.92593500  0.03636600  0.06730800  1
  C  C4  1  0.84946400  0.02426700  0.99143200  1
  C  C5  1  0.76478500  0.02303000  0.01169400  1
  C  C6  1  0.75696900  0.03453000  0.10969200  1
  C  C7  1  0.01560800  0.03070600  0.04954700  1
  C  C8  1  0.02242200  0.96862900  0.97208100  1
  C  C9  1  0.12026400  0.94801200  0.85850600  1
  C  C10  1  0.20415600  0.95025100  0.83712200  1
  C  C11  1  0.28240300  0.96886900  0.91290400  1
  C  C12  1  0.27275000  0.97378500  0.01132000  1
  C  C13  1  0.18746900  0.97136900  0.03084000  1
  C  C14  1  0.11229800  0.96384800  0.95447600  1
  C  C15  1  0.47743900  0.15741300  0.66456400  1
  C  C16  1  0.37466600  0.00465100  0.88734700  1
  C  C17  1  0.68577400  0.00921300  0.92736200  1
  C  C18  1  0.47860200  0.80056200  0.67524200  1
  C  C19  1  0.48703200  0.18442200  0.31807000  1
  C  C20  1  0.34940300  0.97972300  0.09694200  1
  C  C21  1  0.66519800  0.99962200  0.13549000  1
  C  C22  1  0.55575200  0.83005100  0.35223700  1
  C  C23  1  0.48668000  0.23599000  0.58031500  1
  C  C24  1  0.50242100  0.35926100  0.58665400  1
  C  C25  1  0.48895800  0.42371000  0.50053600  1
  C  C26  1  0.47814900  0.36418700  0.40939600  1
  C  C27  1  0.47897200  0.24545900  0.40632900  1
  C  C28  1  0.47532200  0.18032400  0.49057400  1
  C  C29  1  0.52175800  0.62871900  0.42904300  1
  C  C30  1  0.53125000  0.75031900  0.43283600  1
  C  C31  1  0.52046800  0.80207500  0.51582500  1
  C  C32  1  0.48873600  0.73289700  0.59108100  1
  C  C33  1  0.46913600  0.60712500  0.58401300  1
  C  C34  1  0.49245600  0.55441400  0.50513900  1
  C  C35  1  0.83194300  0.06782600  0.28946000  1
  C  C36  1  0.81771300  0.16944900  0.32507400  1
  C  C37  1  0.82007800  0.18370500  0.42484100  1
  C  C38  1  0.83791800  0.09728500  0.48952700  1
  C  C39  1  0.85392700  0.99693300  0.45451200  1
  C  C40  1  0.85155500  0.98260600  0.35477800  1
  C  C41  1  0.41775900  0.53295500  0.65441300  1
  C  C42  1  0.32823800  0.45839500  0.62047800  1
  C  C43  1  0.27835200  0.39100900  0.68606100  1
  C  C44  1  0.31787000  0.39718200  0.78576300  1
  C  C45  1  0.40743400  0.47058000  0.81994500  1
  C  C46  1  0.45729300  0.53852700  0.75461900  1
  C  C47  1  0.20817400  0.93928400  0.73258800  1
  C  C48  1  0.18842900  0.02464300  0.66753300  1
  C  C49  1  0.18424100  0.00959300  0.56746100  1
  C  C50  1  0.19809300  0.90802600  0.53179300  1
  C  C51  1  0.21560700  0.82120100  0.59619400  1
  C  C52  1  0.22008700  0.83644600  0.69633800  1
  Cl  Cl1  1  0.84118000  0.11551100  0.61622800  1
  Cl  Cl2  1  0.25424900  0.31233300  0.86911500  1
  Cl  Cl3  1  0.19214600  0.88852700  0.40463600  1
  O  O1  1  0.54490000  0.17208400  0.74272700  1
  O  O2  1  0.42811700  0.11698700  0.90554600  1
  O  O3  1  0.41202400  0.05288300  0.64981300  1
  O  O4  1  0.40285000  0.92803700  0.84274700  1
  O  O5  1  0.61085200  0.03657900  0.93614900  1
  O  O6  1  0.69308700  0.97688300  0.83954100  1
  O  O7  1  0.53612200  0.91084000  0.69590000  1
  O  O8  1  0.41038500  0.75803900  0.72229200  1
  O  O9  1  0.50491500  0.08080000  0.33172500  1
  O  O10  1  0.48374000  0.23419100  0.23135100  1
  O  O11  1  0.43063200  0.97467100  0.08548700  1
  O  O12  1  0.33464400  0.98347500  0.18715200  1
  O  O13  1  0.62283600  0.93217800  0.37566600  1
  O  O14  1  0.63837300  0.07556500  0.18233000  1
  O  O15  1  0.49322500  0.82327200  0.27004800  1
  O  O16  1  0.60989300  0.88871800  0.11392000  1
