# Generated by REPEAT Assigner based on pymatgen
data_DB0-m3_o21_o28_f0_pcu.sym.59
_audit_creation_date              2022-05-24
_audit_creation_method            REPEAT_Assigner
_cell_length_a                    12.954535
_cell_length_b                    14.125803
_cell_length_c                    23.445464
_cell_angle_alpha                 90.017860
_cell_angle_beta                  93.529345
_cell_angle_gamma                 88.912522
_cell_volume                      4281.450567
_symmetry_space_group_name_H-M    P1
_symmetry_Int_Tables_number       1
loop_
    _symmetry_equiv_pos_site_id
    _symmetry_equiv_pos_as_xyz
    1  x,y,z
loop_
    _atom_site_type_symbol
    _atom_site_label
    _atom_site_fract_x
    _atom_site_fract_y
    _atom_site_fract_z
    _atom_type_partial_charge
    O   O1   0.400117  0.633534  0.510428  -0.682343
    O   O2   0.602937  0.361551  0.517944  -0.686222
    O   O3   0.578271  0.643173  0.516459  -0.653587
    O   O4   0.424778  0.351910  0.511912  -0.653347
    C   C1   0.485437  0.682250  0.513224  0.897601
    C   C2   0.517616  0.312836  0.515151  0.906629
    O   O5   0.412473  0.493494  0.596184  -0.648405
    O   O6   0.590591  0.501583  0.432244  -0.640689
    O   O7   0.590461  0.502745  0.602195  -0.641547
    O   O8   0.412582  0.492328  0.426237  -0.635661
    C   C3   0.501476  0.498314  0.625902  0.652677
    C   C4   0.501573  0.496746  0.402530  0.654080
    Zn  Zn1  0.384146  0.491143  0.510244  1.084441
    Zn  Zn2  0.618905  0.503940  0.518188  1.089378
    C   C5   0.528858  0.414676  0.133832  0.499268
    C   C6   0.473744  0.579564  0.894583  0.517252
    N   N1   0.501071  0.494247  0.160993  -0.211045
    N   N2   0.501561  0.500005  0.867424  -0.219541
    C   C7   0.473145  0.573425  0.132055  0.537039
    C   C8   0.529121  0.420720  0.896345  0.536243
    C   C9   0.473100  0.575017  0.073263  -0.149541
    C   C10  0.528773  0.419023  0.955124  -0.154068
    C   C11  0.501175  0.495178  0.043814  0.103622
    C   C12  0.500673  0.498862  0.984573  0.109288
    C   C13  0.529412  0.412464  0.073934  -0.230068
    C   C14  0.472589  0.581620  0.954459  -0.243542
    C   C15  0.445345  0.657167  0.044221  -0.141174
    C   C16  0.556000  0.336734  0.984152  -0.132223
    C   C17  0.444418  0.662415  0.985476  0.205254
    C   C18  0.556380  0.331361  0.042871  0.193696
    O   O9   0.554584  0.338426  0.166061  -0.452090
    O   O10  0.449242  0.656127  0.862394  -0.453920
    O   O11  0.447038  0.651555  0.160997  -0.509166
    O   O12  0.555097  0.342559  0.867398  -0.506777
    H   H1   0.424880  0.719648  0.067831  0.147361
    H   H2   0.578389  0.274727  0.960645  0.142149
    C   C19  0.593727  0.494344  0.780198  -0.134314
    C   C20  0.593506  0.490058  0.254456  -0.157438
    H   H3   0.666234  0.490729  0.805592  0.120994
    H   H4   0.665969  0.486373  0.233951  0.132357
    C   C21  0.593863  0.494323  0.721388  -0.121982
    C   C22  0.593796  0.491234  0.313278  -0.099052
    H   H5   0.667081  0.490134  0.701725  0.121480
    H   H6   0.667078  0.487793  0.337889  0.110129
    C   C23  0.501507  0.498821  0.688476  0.018656
    C   C24  0.501503  0.496065  0.339954  0.006034
    C   C25  0.409180  0.503789  0.715108  -0.111425
    C   C26  0.409092  0.500166  0.307082  -0.096915
    H   H7   0.335938  0.507539  0.690468  0.116574
    H   H8   0.335892  0.504224  0.326770  0.114640
    C   C27  0.409374  0.504724  0.773923  -0.157171
    C   C28  0.409129  0.499880  0.248274  -0.148368
    H   H9   0.336879  0.508547  0.794389  0.125086
    H   H10  0.336573  0.503196  0.222915  0.125617
    C   C29  0.501570  0.499868  0.806621  0.194411
    C   C30  0.501240  0.494505  0.221802  0.181788
    C   C31  0.526379  0.211435  0.514735  -0.366361
    C   C32  0.476684  0.783649  0.512040  -0.355139
    C   C33  0.543762  0.024586  0.512490  -0.034768
    C   C34  0.459468  0.970507  0.508617  -0.014376
    C   C35  0.469143  0.868803  0.510674  0.126451
    C   C36  0.533972  0.126282  0.513918  0.140981
    N   N3   0.229933  0.482512  0.504979  -0.172136
    N   N4   0.773119  0.512576  0.523458  -0.167817
    C   C37  0.029899  0.470607  0.497728  -0.088972
    C   C38  0.973151  0.524487  0.530710  -0.048375
    C   C39  0.862307  0.517855  0.526673  0.221038
    C   C40  0.140745  0.477237  0.501765  0.238045
    H   H11  0.010425  0.573441  0.560660  0.191630
    H   H12  0.992623  0.421654  0.467779  0.204533
    C   C41  0.413075  0.757251  0.960124  -0.211369
    C   C42  0.508118  0.813185  0.947203  0.139181
    C   C43  0.475288  0.904355  0.916437  0.249565
    C   C44  0.569671  0.961961  0.905639  -0.345933
    H   H13  0.370868  0.798874  0.991618  0.050159
    H   H14  0.357091  0.751276  0.922802  0.062420
    H   H15  0.559645  0.771187  0.920492  -0.025892
    H   H16  0.551419  0.830295  0.988065  -0.036075
    H   H17  0.423347  0.946342  0.943038  -0.063122
    H   H18  0.433853  0.887577  0.874972  -0.024594
    H   H19  0.611099  0.980041  0.946895  0.076213
    H   H20  0.544901  0.028175  0.882906  0.081375
    H   H21  0.622085  0.920630  0.878968  0.069412
    C   C45  0.585794  0.236043  0.068139  -0.190138
    C   C46  0.699345  0.232886  0.088988  0.065736
    C   C47  0.724453  0.140170  0.119909  0.268602
    C   C48  0.838390  0.135214  0.138885  -0.305391
    H   H22  0.575373  0.181120  0.034643  0.058964
    H   H23  0.533875  0.214689  0.101381  0.061310
    H   H24  0.717632  0.292847  0.118072  -0.002215
    H   H25  0.747281  0.238193  0.051573  -0.021411
    H   H26  0.705944  0.080064  0.090845  -0.055915
    H   H27  0.678049  0.135346  0.157970  -0.030804
    H   H28  0.885564  0.139060  0.101086  0.056971
    H   H29  0.855811  0.067378  0.161589  0.060769
    H   H30  0.857616  0.194893  0.168140  0.061619
    C   C49  0.352503  0.012947  0.504095  -0.077563
    C   C50  0.323933  0.045333  0.443249  0.059497
    C   C51  0.212644  0.081359  0.438549  0.262917
    C   C52  0.184094  0.114315  0.378016  -0.268773
    H   H31  0.344652  0.072096  0.534733  0.034181
    H   H32  0.297959  0.957212  0.515117  0.021966
    H   H33  0.332628  0.984597  0.413838  -0.006789
    H   H34  0.375336  0.102723  0.431040  -0.006858
    H   H35  0.203462  0.141525  0.468324  -0.063814
    H   H36  0.160415  0.023758  0.449619  -0.052654
    H   H37  0.235100  0.172703  0.366686  0.044619
    H   H38  0.102559  0.140122  0.374985  0.050209
    H   H39  0.192855  0.054565  0.347895  0.052120
    C   C53  0.650714  0.982150  0.517405  -0.068674
    C   C54  0.683454  0.950135  0.459198  0.049337
    C   C55  0.794798  0.914299  0.464303  0.289951
    C   C56  0.827502  0.881753  0.406399  -0.284488
    H   H40  0.656410  0.922813  0.548468  0.033387
    H   H41  0.704300  0.037810  0.533426  0.024579
    H   H42  0.676679  0.011020  0.429268  -0.009835
    H   H43  0.633171  0.892733  0.442307  -0.002427
    H   H44  0.802029  0.853967  0.494631  -0.069531
    H   H45  0.845977  0.971912  0.480147  -0.069311
    H   H46  0.777576  0.823345  0.390405  0.047261
    H   H47  0.909057  0.856103  0.410549  0.053804
    H   H48  0.820695  0.941671  0.375763  0.060593
