# generated using pymatgen
data_Cu3H30C47O12
_symmetry_space_group_name_H-M   'P 1'
_cell_length_a   37.42969900
_cell_length_b   21.58351200
_cell_length_c   21.54235400
_cell_angle_alpha   90.00000000
_cell_angle_beta   122.45785100
_cell_angle_gamma   90.00000000
_symmetry_Int_Tables_number   1
_chemical_formula_structural   Cu3H30C47O12
_chemical_formula_sum   'Cu12 H120 C188 O48'
_cell_volume   14684.66915603
_cell_formula_units_Z   4
loop_
 _symmetry_equiv_pos_site_id
 _symmetry_equiv_pos_as_xyz
  1  'x, y, z'
loop_
 _atom_site_type_symbol
 _atom_site_label
 _atom_site_symmetry_multiplicity
 _atom_site_fract_x
 _atom_site_fract_y
 _atom_site_fract_z
 _atom_site_occupancy
  Cu  Cu1  1  0.00000000  0.94038300  0.00000000  1
  Cu  Cu2  1  0.50000000  0.44038300  0.00000000  1
  Cu  Cu3  1  0.00000000  0.06137800  0.00000000  1
  Cu  Cu4  1  0.50000000  0.56137800  0.00000000  1
  Cu  Cu5  1  0.49771300  0.99950500  0.55840200  1
  Cu  Cu6  1  0.50228700  0.99950500  0.44159800  1
  Cu  Cu7  1  0.99771300  0.49950500  0.55840200  1
  Cu  Cu8  1  0.00228700  0.49950500  0.44159800  1
  Cu  Cu9  1  0.95856500  0.99962000  0.46178800  1
  Cu  Cu10  1  0.04143500  0.99962000  0.53821200  1
  Cu  Cu11  1  0.45856500  0.49962000  0.46178800  1
  Cu  Cu12  1  0.54143500  0.49962000  0.53821200  1
  H  H1  1  0.28101600  0.94012900  0.35698300  1
  H  H2  1  0.71898400  0.94013000  0.64301700  1
  H  H3  1  0.78101600  0.44012900  0.35698300  1
  H  H4  1  0.21898400  0.44013000  0.64301700  1
  H  H5  1  0.21028200  0.93134800  0.27852600  1
  H  H6  1  0.78971800  0.93134800  0.72147400  1
  H  H7  1  0.71028200  0.43134800  0.27852600  1
  H  H8  1  0.28971800  0.43134800  0.72147400  1
  H  H9  1  0.21129600  0.09792000  0.23188600  1
  H  H10  1  0.78870400  0.09792000  0.76811400  1
  H  H11  1  0.71129600  0.59792000  0.23188600  1
  H  H12  1  0.28870400  0.59792000  0.76811400  1
  H  H13  1  0.21210200  0.04555600  0.29774700  1
  H  H14  1  0.78789800  0.04555600  0.70225300  1
  H  H15  1  0.71210200  0.54555600  0.29774700  1
  H  H16  1  0.28789800  0.54555600  0.70225300  1
  H  H17  1  0.28259300  0.05091100  0.36645300  1
  H  H18  1  0.71740700  0.05091100  0.63354700  1
  H  H19  1  0.78259300  0.55091100  0.36645300  1
  H  H20  1  0.21740700  0.55091100  0.63354700  1
  H  H21  1  0.21565500  0.97483400  0.11515000  1
  H  H22  1  0.78434500  0.97483400  0.88485000  1
  H  H23  1  0.71565500  0.47483400  0.11515000  1
  H  H24  1  0.28434500  0.47483400  0.88485000  1
  H  H25  1  0.22000000  0.05696900  0.13387900  1
  H  H26  1  0.78000000  0.05696900  0.86612100  1
  H  H27  1  0.72000000  0.55696900  0.13387900  1
  H  H28  1  0.28000000  0.55696900  0.86612100  1
  H  H29  1  0.28582400  0.96059100  0.19237500  1
  H  H30  1  0.71417600  0.96059100  0.80762500  1
  H  H31  1  0.78582400  0.46059100  0.19237500  1
  H  H32  1  0.21417600  0.46059100  0.80762500  1
  H  H33  1  0.21695400  0.90178600  0.20691000  1
  H  H34  1  0.78304500  0.90178600  0.79309000  1
  H  H35  1  0.71695400  0.40178600  0.20691000  1
  H  H36  1  0.28304500  0.40178600  0.79309000  1
  H  H37  1  0.28753800  0.90149000  0.28945600  1
  H  H38  1  0.71246200  0.90149000  0.71054400  1
  H  H39  1  0.78753800  0.40149000  0.28945600  1
  H  H40  1  0.21246200  0.40149000  0.71054400  1
  H  H41  1  0.29157200  0.04320500  0.19663800  1
  H  H42  1  0.70842800  0.04320500  0.80336200  1
  H  H43  1  0.79157200  0.54320500  0.19663800  1
  H  H44  1  0.20842800  0.54320500  0.80336200  1
  H  H45  1  0.90012000  0.84746200  0.10025500  1
  H  H46  1  0.09988000  0.84746200  0.89974500  1
  H  H47  1  0.40012000  0.34746200  0.10025500  1
  H  H48  1  0.59988000  0.34746200  0.89974500  1
  H  H49  1  0.05535900  0.08189600  0.18880900  1
  H  H50  1  0.94464100  0.08189600  0.81119100  1
  H  H51  1  0.55535900  0.58189600  0.18880900  1
  H  H52  1  0.44464100  0.58189600  0.81119100  1
  H  H53  1  0.09703400  0.15507300  0.28460600  1
  H  H54  1  0.90296600  0.15507300  0.71539400  1
  H  H55  1  0.59703400  0.65507300  0.28460600  1
  H  H56  1  0.40296600  0.65507300  0.71539400  1
  H  H57  1  0.09266300  0.16018200  0.39403900  1
  H  H58  1  0.90733700  0.16018200  0.60596100  1
  H  H59  1  0.59266300  0.66018200  0.39403900  1
  H  H60  1  0.40733700  0.66018200  0.60596100  1
  H  H61  1  0.04761900  0.09062900  0.40819600  1
  H  H62  1  0.95238000  0.09062900  0.59180400  1
  H  H63  1  0.54761900  0.59062900  0.40819600  1
  H  H64  1  0.45238000  0.59062900  0.59180400  1
  H  H65  1  0.95079100  0.90934500  0.31740000  1
  H  H66  1  0.04920900  0.90934500  0.68260000  1
  H  H67  1  0.45079100  0.40934500  0.31740000  1
  H  H68  1  0.54920900  0.40934500  0.68260000  1
  H  H69  1  0.90518900  0.84080100  0.21834600  1
  H  H70  1  0.09481100  0.84080100  0.78165400  1
  H  H71  1  0.40518900  0.34080100  0.21834600  1
  H  H72  1  0.59481100  0.34080100  0.78165400  1
  H  H73  1  0.94157500  0.92132900  0.08236100  1
  H  H74  1  0.05842500  0.92132900  0.91763900  1
  H  H75  1  0.44157500  0.42132900  0.08236100  1
  H  H76  1  0.55842500  0.42132900  0.91763900  1
  H  H77  1  0.59347900  0.80559000  0.74776800  1
  H  H78  1  0.40652100  0.80559000  0.25223200  1
  H  H79  1  0.09347900  0.30559000  0.74776800  1
  H  H80  1  0.90652100  0.30559000  0.25223200  1
  H  H81  1  0.44596500  0.86233700  0.36509500  1
  H  H82  1  0.55403500  0.86233700  0.63490500  1
  H  H83  1  0.94596500  0.36233700  0.36509500  1
  H  H84  1  0.05403500  0.36233700  0.63490500  1
  H  H85  1  0.91096100  0.19229900  0.25141500  1
  H  H86  1  0.08903900  0.19229900  0.74858500  1
  H  H87  1  0.41096100  0.69229900  0.25141500  1
  H  H88  1  0.58903900  0.69229900  0.74858500  1
  H  H89  1  0.95393600  0.13606400  0.36389000  1
  H  H90  1  0.04606400  0.13606400  0.63611000  1
  H  H91  1  0.45393600  0.63606400  0.36389000  1
  H  H92  1  0.54606400  0.63606400  0.63611000  1
  H  H93  1  0.39560800  0.19318800  0.54803100  1
  H  H94  1  0.60439200  0.19318800  0.45196900  1
  H  H95  1  0.89560800  0.69318800  0.54803100  1
  H  H96  1  0.10439200  0.69318800  0.45196900  1
  H  H97  1  0.56012700  0.13666600  0.48100400  1
  H  H98  1  0.43987300  0.13666600  0.51899600  1
  H  H99  1  0.06012700  0.63666600  0.48100400  1
  H  H100  1  0.93987300  0.63666600  0.51899600  1
  H  H101  1  0.09945500  0.80631400  0.44024800  1
  H  H102  1  0.90054500  0.80631400  0.55975200  1
  H  H103  1  0.59945500  0.30631400  0.44024800  1
  H  H104  1  0.40054500  0.30631400  0.55975200  1
  H  H105  1  0.05130600  0.86265700  0.46016100  1
  H  H106  1  0.94869400  0.86265700  0.53983900  1
  H  H107  1  0.55130600  0.36265700  0.46016100  1
  H  H108  1  0.44869400  0.36265700  0.53983900  1
  H  H109  1  0.27552500  0.12917900  0.24082400  1
  H  H110  1  0.27576000  0.15516600  0.32018700  1
  H  H111  1  0.32268300  0.12131100  0.33194600  1
  H  H112  1  0.72447400  0.12917900  0.75917600  1
  H  H113  1  0.72423900  0.15516600  0.67981300  1
  H  H114  1  0.67731700  0.12131100  0.66805400  1
  H  H115  1  0.77552500  0.62917900  0.24082400  1
  H  H116  1  0.77576000  0.65516600  0.32018700  1
  H  H117  1  0.82268300  0.62131100  0.33194600  1
  H  H118  1  0.22447400  0.62917900  0.75917600  1
  H  H119  1  0.22423900  0.65516600  0.67981300  1
  H  H120  1  0.17731700  0.62131100  0.66805400  1
  C  C1  1  0.99887000  0.00094200  0.11653200  1
  C  C2  1  0.00113000  0.00094200  0.88346800  1
  C  C3  1  0.49887000  0.50094200  0.11653200  1
  C  C4  1  0.50113000  0.50094200  0.88346800  1
  C  C5  1  0.08016800  0.00084300  0.07679900  1
  C  C6  1  0.91983200  0.00084300  0.92320100  1
  C  C7  1  0.58016800  0.50084300  0.07679900  1
  C  C8  1  0.41983200  0.50084300  0.92320100  1
  C  C9  1  0.22544100  0.93989200  0.24703000  1
  C  C10  1  0.77455900  0.93989200  0.75296900  1
  C  C11  1  0.72544100  0.43989200  0.24703000  1
  C  C12  1  0.27455900  0.43989200  0.75296900  1
  C  C13  1  0.22427200  0.05350400  0.26147700  1
  C  C14  1  0.77572800  0.05350400  0.73852300  1
  C  C15  1  0.72427200  0.55350400  0.26147700  1
  C  C16  1  0.27572800  0.55350400  0.73852300  1
  C  C17  1  0.27227500  0.05591400  0.30789300  1
  C  C18  1  0.72772500  0.05591400  0.69210700  1
  C  C19  1  0.77227500  0.55591400  0.30789300  1
  C  C20  1  0.22772500  0.55591400  0.69210700  1
  C  C21  1  0.37452800  0.99992600  0.37270300  1
  C  C22  1  0.62547200  0.99992600  0.62729700  1
  C  C23  1  0.87452800  0.49992600  0.37270300  1
  C  C24  1  0.12547200  0.49992600  0.62729700  1
  C  C25  1  0.21007700  0.00103600  0.20636700  1
  C  C26  1  0.78992200  0.00103600  0.79363300  1
  C  C27  1  0.71007700  0.50103600  0.20636700  1
  C  C28  1  0.28992200  0.50103600  0.79363300  1
  C  C29  1  0.27308600  0.94200900  0.29948400  1
  C  C30  1  0.72691400  0.94200900  0.70051600  1
  C  C31  1  0.77308600  0.44200900  0.29948400  1
  C  C32  1  0.22691400  0.44200900  0.70051600  1
  C  C33  1  0.29007400  0.00147200  0.28732900  1
  C  C34  1  0.70992600  0.00147200  0.71267100  1
  C  C35  1  0.79007400  0.50147200  0.28732900  1
  C  C36  1  0.20992600  0.50147200  0.71267100  1
  C  C37  1  0.27625000  0.00410100  0.20694100  1
  C  C38  1  0.72374900  0.00410100  0.79305900  1
  C  C39  1  0.77625000  0.50410100  0.20694100  1
  C  C40  1  0.22374900  0.50410100  0.79305900  1
  C  C41  1  0.22852400  0.01027800  0.15927700  1
  C  C42  1  0.77147600  0.01027800  0.84072300  1
  C  C43  1  0.72852400  0.51027800  0.15927700  1
  C  C44  1  0.27147600  0.51027800  0.84072300  1
  C  C45  1  0.33640400  0.00052800  0.33408800  1
  C  C46  1  0.66359600  0.00052800  0.66591200  1
  C  C47  1  0.83640400  0.50052800  0.33408800  1
  C  C48  1  0.16359600  0.50052800  0.66591200  1
  C  C49  1  0.16377300  0.00066100  0.15957000  1
  C  C50  1  0.83622700  0.00066100  0.84043000  1
  C  C51  1  0.66377300  0.50066100  0.15957000  1
  C  C52  1  0.33622700  0.50066100  0.84043000  1
  C  C53  1  0.12562800  0.00059400  0.12149500  1
  C  C54  1  0.87437200  0.00059400  0.87850400  1
  C  C55  1  0.62562800  0.50059400  0.12149500  1
  C  C56  1  0.37437200  0.50059400  0.87850400  1
  C  C57  1  0.05186700  0.08208800  0.23523400  1
  C  C58  1  0.94813300  0.08208800  0.76476600  1
  C  C59  1  0.55186700  0.58208800  0.23523400  1
  C  C60  1  0.44813300  0.58208800  0.76476600  1
  C  C61  1  0.07623900  0.12398000  0.29006700  1
  C  C62  1  0.92376000  0.12398000  0.70993300  1
  C  C63  1  0.57623900  0.62398000  0.29006700  1
  C  C64  1  0.42376000  0.62398000  0.70993300  1
  C  C65  1  0.07391100  0.12669800  0.35133400  1
  C  C66  1  0.92608900  0.12669800  0.64866600  1
  C  C67  1  0.57391100  0.62669800  0.35133400  1
  C  C68  1  0.42608900  0.62669800  0.64866600  1
  C  C69  1  0.04815100  0.08627800  0.35893900  1
  C  C70  1  0.95184900  0.08627800  0.64106100  1
  C  C71  1  0.54815100  0.58627800  0.35893900  1
  C  C72  1  0.45184900  0.58627800  0.64106100  1
  C  C73  1  0.02401400  0.04262600  0.30472400  1
  C  C74  1  0.97598600  0.04262600  0.69527600  1
  C  C75  1  0.52401400  0.54262600  0.30472400  1
  C  C76  1  0.47598600  0.54262600  0.69527600  1
  C  C77  1  0.02463300  0.04205600  0.24101100  1
  C  C78  1  0.97536700  0.04205600  0.75898900  1
  C  C79  1  0.52463300  0.54205600  0.24101100  1
  C  C80  1  0.47536700  0.54205600  0.75898900  1
  C  C81  1  0.99918100  0.00015900  0.31362500  1
  C  C82  1  0.00081900  0.00015900  0.68637500  1
  C  C83  1  0.49918100  0.50015900  0.31362500  1
  C  C84  1  0.50081900  0.50015900  0.68637500  1
  C  C85  1  0.97396300  0.95833700  0.25785000  1
  C  C86  1  0.02603700  0.95833700  0.74215000  1
  C  C87  1  0.47396300  0.45833700  0.25785000  1
  C  C88  1  0.52603700  0.45833700  0.74215000  1
  C  C89  1  0.97289100  0.95982300  0.19258200  1
  C  C90  1  0.02710900  0.95982300  0.80741800  1
  C  C91  1  0.47289100  0.45982300  0.19258200  1
  C  C92  1  0.52710900  0.45982300  0.80741800  1
  C  C93  1  0.99868900  0.00109400  0.18444400  1
  C  C94  1  0.00131100  0.00109400  0.81555600  1
  C  C95  1  0.49868900  0.50109400  0.18444400  1
  C  C96  1  0.50131100  0.50109400  0.81555600  1
  C  C97  1  0.94993500  0.91437200  0.26689900  1
  C  C98  1  0.05006500  0.91437200  0.73310100  1
  C  C99  1  0.44993500  0.41437200  0.26689900  1
  C  C100  1  0.55006500  0.41437200  0.73310100  1
  C  C101  1  0.92386700  0.87453200  0.21075200  1
  C  C102  1  0.07613300  0.87453200  0.78924800  1
  C  C103  1  0.42386700  0.37453200  0.21075200  1
  C  C104  1  0.57613300  0.37453200  0.78924800  1
  C  C105  1  0.92114900  0.87811100  0.14484100  1
  C  C106  1  0.07885100  0.87811100  0.85515900  1
  C  C107  1  0.42114900  0.37811100  0.14484100  1
  C  C108  1  0.57885100  0.37811100  0.85515900  1
  C  C109  1  0.94540500  0.92032700  0.13558100  1
  C  C110  1  0.05459500  0.92032700  0.86441900  1
  C  C111  1  0.44540500  0.42032700  0.13558100  1
  C  C112  1  0.55459500  0.42032700  0.86441900  1
  C  C113  1  0.50000000  0.88200200  0.50000000  1
  C  C114  1  0.00000000  0.38200200  0.50000000  1
  C  C115  1  0.41993300  0.99953100  0.41882300  1
  C  C116  1  0.58006700  0.99953100  0.58117700  1
  C  C117  1  0.91993300  0.49953100  0.41882300  1
  C  C118  1  0.08006700  0.49953100  0.58117700  1
  C  C119  1  0.50000000  0.11701100  0.50000000  1
  C  C120  1  0.00000000  0.61701100  0.50000000  1
  C  C121  1  0.00000000  0.88202200  0.50000000  1
  C  C122  1  0.50000000  0.38202200  0.50000000  1
  C  C123  1  0.99944800  0.99969300  0.38182800  1
  C  C124  1  0.00055200  0.99969300  0.61817200  1
  C  C125  1  0.49944800  0.49969300  0.38182800  1
  C  C126  1  0.50055200  0.49969300  0.61817200  1
  C  C127  1  0.00000000  0.11717100  0.50000000  1
  C  C128  1  0.50000000  0.61717100  0.50000000  1
  C  C129  1  0.44947400  0.81273300  0.36823100  1
  C  C130  1  0.55052600  0.81273300  0.63176900  1
  C  C131  1  0.94947400  0.31273300  0.36823100  1
  C  C132  1  0.05052600  0.31273300  0.63176900  1
  C  C133  1  0.42638800  0.78073900  0.30314500  1
  C  C134  1  0.57361200  0.78073900  0.69685500  1
  C  C135  1  0.92638800  0.28073900  0.30314500  1
  C  C136  1  0.07361200  0.28073900  0.69685500  1
  C  C137  1  0.92875900  0.21740500  0.30270500  1
  C  C138  1  0.07124100  0.21740500  0.69729500  1
  C  C139  1  0.42875900  0.71740500  0.30270500  1
  C  C140  1  0.57124100  0.71740500  0.69729500  1
  C  C141  1  0.95333900  0.18574400  0.36760400  1
  C  C142  1  0.04666100  0.18574400  0.63239600  1
  C  C143  1  0.45333900  0.68574400  0.36760400  1
  C  C144  1  0.54666100  0.68574400  0.63239600  1
  C  C145  1  0.97625400  0.21731600  0.43412800  1
  C  C146  1  0.02374600  0.21731600  0.56587200  1
  C  C147  1  0.47625400  0.71731600  0.43412800  1
  C  C148  1  0.52374600  0.71731600  0.56587200  1
  C  C149  1  0.47547800  0.78154900  0.43423800  1
  C  C150  1  0.52452200  0.78154900  0.56576200  1
  C  C151  1  0.97547800  0.28154900  0.43423800  1
  C  C152  1  0.02452200  0.28154900  0.56576200  1
  C  C153  1  0.00000000  0.18513500  0.50000000  1
  C  C154  1  0.50000000  0.68513500  0.50000000  1
  C  C155  1  0.50000000  0.81388600  0.50000000  1
  C  C156  1  0.00000000  0.31388600  0.50000000  1
  C  C157  1  0.55638900  0.18622200  0.47636300  1
  C  C158  1  0.44361100  0.18622200  0.52363700  1
  C  C159  1  0.05638900  0.68622200  0.47636300  1
  C  C160  1  0.94361100  0.68622200  0.52363700  1
  C  C161  1  0.58223800  0.21808600  0.46029900  1
  C  C162  1  0.41776200  0.21808600  0.53970100  1
  C  C163  1  0.08223800  0.71808600  0.46029900  1
  C  C164  1  0.91776200  0.71808600  0.53970100  1
  C  C165  1  0.07959600  0.78132700  0.45402900  1
  C  C166  1  0.92040400  0.78132700  0.54597100  1
  C  C167  1  0.57959600  0.28132700  0.45402900  1
  C  C168  1  0.42040400  0.28132700  0.54597100  1
  C  C169  1  0.05208300  0.81307400  0.46617600  1
  C  C170  1  0.94791700  0.81307400  0.53382400  1
  C  C171  1  0.55208300  0.31307400  0.46617600  1
  C  C172  1  0.44791700  0.31307400  0.53382400  1
  C  C173  1  0.02654600  0.78169900  0.48458500  1
  C  C174  1  0.97345400  0.78169900  0.51541500  1
  C  C175  1  0.52654600  0.28169900  0.48458500  1
  C  C176  1  0.47345400  0.28169900  0.51541500  1
  C  C177  1  0.52744300  0.21746200  0.48670100  1
  C  C178  1  0.47255700  0.21746200  0.51329800  1
  C  C179  1  0.02744300  0.71746200  0.48670100  1
  C  C180  1  0.97255700  0.71746200  0.51329800  1
  C  C181  1  0.00000000  0.81396600  0.50000000  1
  C  C182  1  0.50000000  0.31396600  0.50000000  1
  C  C183  1  0.50000000  0.18513400  0.50000000  1
  C  C184  1  0.00000000  0.68513400  0.50000000  1
  C  C185  1  0.28763800  0.11886800  0.29925800  1
  C  C186  1  0.71236200  0.11886800  0.70074200  1
  C  C187  1  0.78763800  0.61886800  0.29925800  1
  C  C188  1  0.21236200  0.61886800  0.70074200  1
  O  O1  1  0.01088000  0.94982100  0.09890100  1
  O  O2  1  0.98912000  0.94982100  0.90109900  1
  O  O3  1  0.51088000  0.44982100  0.09890100  1
  O  O4  1  0.48912000  0.44982100  0.90109900  1
  O  O5  1  0.98721700  0.05194800  0.07629700  1
  O  O6  1  0.01278300  0.05194800  0.92370300  1
  O  O7  1  0.48721700  0.55194800  0.07629700  1
  O  O8  1  0.51278300  0.55194800  0.92370300  1
  O  O9  1  0.06057200  0.94978800  0.04063400  1
  O  O10  1  0.93942800  0.94978800  0.95936600  1
  O  O11  1  0.56057200  0.44978800  0.04063400  1
  O  O12  1  0.43942800  0.44978800  0.95936600  1
  O  O13  1  0.06018200  0.05196200  0.07481500  1
  O  O14  1  0.93981800  0.05196200  0.92518500  1
  O  O15  1  0.56018200  0.55196200  0.07481500  1
  O  O16  1  0.43981800  0.55196200  0.92518500  1
  O  O17  1  0.48633500  0.91113400  0.53741100  1
  O  O18  1  0.51366500  0.91113400  0.46258900  1
  O  O19  1  0.98633500  0.41113400  0.53741100  1
  O  O20  1  0.01366500  0.41113400  0.46258900  1
  O  O21  1  0.43776500  0.01664900  0.48818700  1
  O  O22  1  0.56223500  0.01664900  0.51181300  1
  O  O23  1  0.93776500  0.51664900  0.48818700  1
  O  O24  1  0.06223500  0.51664900  0.51181300  1
  O  O25  1  0.44162500  0.98236100  0.38953800  1
  O  O26  1  0.55837400  0.98236100  0.61046200  1
  O  O27  1  0.94162500  0.48236100  0.38953800  1
  O  O28  1  0.05837400  0.48236100  0.61046200  1
  O  O29  1  0.50980400  0.08787500  0.56119600  1
  O  O30  1  0.49019600  0.08787500  0.43880400  1
  O  O31  1  0.00980400  0.58787500  0.56119600  1
  O  O32  1  0.99019600  0.58787500  0.43880400  1
  O  O33  1  0.96489300  0.91112000  0.45108700  1
  O  O34  1  0.03510700  0.91112000  0.54891300  1
  O  O35  1  0.46489300  0.41112000  0.45108700  1
  O  O36  1  0.53510700  0.41112000  0.54891300  1
  O  O37  1  0.96453400  0.01612400  0.37864400  1
  O  O38  1  0.03546600  0.01612400  0.62135600  1
  O  O39  1  0.46453400  0.51612400  0.37864400  1
  O  O40  1  0.53546600  0.51612400  0.62135600  1
  O  O41  1  0.03461900  0.98313300  0.44330800  1
  O  O42  1  0.96538100  0.98313300  0.55669200  1
  O  O43  1  0.53461900  0.48313300  0.44330800  1
  O  O44  1  0.46538100  0.48313300  0.55669200  1
  O  O45  1  0.96503300  0.08812800  0.48426000  1
  O  O46  1  0.03496700  0.08812800  0.51574000  1
  O  O47  1  0.46503300  0.58812800  0.48426000  1
  O  O48  1  0.53496700  0.58812800  0.51574000  1
