# Generated by REPEAT Assigner based on pymatgen
data_DB0-m2_o3_o26_f0_pcu.sym.26
_audit_creation_date              2022-05-24
_audit_creation_method            REPEAT_Assigner
_cell_length_a                    17.387452
_cell_length_b                    17.886741
_cell_length_c                    19.387918
_cell_angle_alpha                 89.984338
_cell_angle_beta                  90.013045
_cell_angle_gamma                 86.031155
_cell_volume                      6015.275847
_symmetry_space_group_name_H-M    P1
_symmetry_Int_Tables_number       1
loop_
    _symmetry_equiv_pos_site_id
    _symmetry_equiv_pos_as_xyz
    1  x,y,z
loop_
    _atom_site_type_symbol
    _atom_site_label
    _atom_site_fract_x
    _atom_site_fract_y
    _atom_site_fract_z
    _atom_type_partial_charge
    O   O1   0.497429  0.433368  0.598688  -0.562299
    O   O2   0.502963  0.566636  0.401163  -0.562396
    O   O3   0.500483  0.561287  0.601523  -0.632691
    O   O4   0.499342  0.438636  0.398316  -0.628446
    C   C1   0.498829  0.496386  0.632766  0.816541
    C   C2   0.501335  0.503589  0.367105  0.811946
    O   O5   0.613112  0.430241  0.501941  -0.603424
    O   O6   0.386987  0.569685  0.497701  -0.602984
    O   O7   0.610975  0.558744  0.500069  -0.569136
    O   O8   0.389102  0.441100  0.500071  -0.570836
    C   C3   0.648248  0.492593  0.501550  0.623708
    C   C4   0.351891  0.507294  0.498419  0.624255
    Cu  Cu1  0.501272  0.425249  0.498486  0.841263
    Cu  Cu2  0.498955  0.574665  0.501317  0.846625
    C   C5   0.732767  0.488103  0.503529  -0.054436
    C   C6   0.267491  0.511903  0.496920  -0.047825
    C   C7   0.771414  0.552975  0.503794  -0.067854
    C   C8   0.228775  0.447070  0.496879  -0.073832
    C   C9   0.850913  0.549573  0.505932  -0.226172
    C   C10  0.149445  0.450441  0.495008  -0.221115
    C   C11  0.892820  0.480780  0.507280  0.272972
    C   C12  0.107447  0.519143  0.493435  0.268619
    C   C13  0.853911  0.416147  0.508041  -0.262430
    C   C14  0.146412  0.583755  0.492626  -0.255894
    C   C15  0.774515  0.419500  0.505850  -0.036086
    C   C16  0.225828  0.580577  0.494473  -0.044043
    C   C17  0.977706  0.472952  0.510384  -0.224539
    C   C18  0.022514  0.527015  0.490654  -0.227652
    H   H1   0.739849  0.607186  0.502870  0.100097
    H   H2   0.259713  0.392608  0.497882  0.102145
    H   H3   0.254325  0.632493  0.493851  0.097664
    H   H4   0.745927  0.367776  0.505867  0.095489
    H   H5   0.996829  0.580233  0.472737  0.135638
    H   H6   0.003324  0.419923  0.528714  0.135476
    H   H7   0.885870  0.362116  0.509869  0.128769
    H   H8   0.114446  0.637675  0.491391  0.127976
    H   H9   0.122162  0.398255  0.492985  0.128207
    H   H10  0.878861  0.601547  0.507665  0.129292
    C   C19  0.497954  0.571064  0.253635  0.583305
    C   C20  0.502284  0.429024  0.746225  0.589521
    C   C21  0.497892  0.569398  0.182543  -0.406157
    C   C22  0.502174  0.430749  0.817313  -0.412730
    H   H11  0.492701  0.621834  0.154756  0.114089
    H   H12  0.506219  0.378292  0.845128  0.115283
    C   C23  0.501557  0.502146  0.147404  0.147264
    C   C24  0.499170  0.498033  0.852416  0.154477
    C   C25  0.504742  0.436111  0.184422  -0.265662
    C   C26  0.495783  0.564178  0.815195  -0.270104
    H   H13  0.508939  0.382812  0.158016  0.127660
    H   H14  0.491419  0.618174  0.840465  0.129305
    C   C27  0.504421  0.437239  0.255529  0.023672
    C   C28  0.495455  0.562789  0.744199  0.025834
    H   H15  0.507307  0.384286  0.282626  0.097159
    H   H16  0.492533  0.615708  0.717088  0.097345
    C   C29  0.501549  0.504590  0.291041  -0.381984
    C   C30  0.498712  0.495424  0.708798  -0.386658
    C   C31  0.459214  0.449710  0.036514  -0.190059
    C   C32  0.540750  0.550064  0.963433  -0.190648
    H   H17  0.425663  0.410812  0.064233  0.123084
    H   H18  0.575305  0.588209  0.935927  0.122536
    C   C33  0.458583  0.448716  0.965373  -0.160203
    C   C34  0.541164  0.551138  0.034507  -0.154814
    H   H19  0.424488  0.409000  0.939386  0.122083
    H   H20  0.575921  0.590030  0.060770  0.118964
    C   C35  0.499322  0.499005  0.928256  0.137706
    C   C36  0.500493  0.501023  0.071594  0.140083
    C   C37  0.550904  0.272940  0.539244  0.026224
    C   C38  0.449808  0.726881  0.460605  0.032577
    H   H21  0.589019  0.300411  0.573754  0.132444
    H   H22  0.412660  0.698606  0.426355  0.128739
    C   C39  0.551084  0.195991  0.540153  -0.199450
    C   C40  0.448854  0.803993  0.459114  -0.204963
    H   H23  0.589653  0.164980  0.574998  0.106190
    H   H24  0.409373  0.834588  0.424399  0.109736
    C   C41  0.503051  0.159638  0.496561  0.138330
    C   C42  0.496810  0.840374  0.502729  0.140453
    C   C43  0.455669  0.202054  0.452333  -0.226497
    C   C44  0.543770  0.797915  0.547323  -0.224689
    H   H25  0.415729  0.175510  0.418991  0.117144
    H   H26  0.582805  0.824446  0.581185  0.114484
    C   C45  0.456729  0.279191  0.452864  0.072820
    C   C46  0.543409  0.720929  0.547321  0.073578
    H   H27  0.419249  0.312691  0.418806  0.102170
    H   H28  0.581569  0.688420  0.581844  0.103436
    N   N1   0.503323  0.313358  0.496334  -0.093293
    N   N2   0.496949  0.686570  0.503979  -0.098664
    C   C47  0.493576  0.037556  0.437879  -0.152288
    C   C48  0.506254  0.962442  0.561897  -0.151670
    H   H29  0.489545  0.065586  0.388495  0.115052
    H   H30  0.508479  0.934271  0.611311  0.115460
    C   C49  0.492633  0.960643  0.439525  -0.139884
    C   C50  0.507409  0.039511  0.560166  -0.142344
    H   H31  0.488412  0.930923  0.391328  0.115677
    H   H32  0.510480  0.069941  0.608111  0.116891
    C   C51  0.498640  0.922429  0.501466  0.077214
    C   C52  0.501346  0.077596  0.498162  0.079349
    N   N3   0.492644  0.642034  0.287074  -0.680538
    H   H33  0.539587  0.670943  0.271025  0.255469
    H   H34  0.442176  0.671206  0.269928  0.252550
    N   N4   0.507180  0.358054  0.712847  -0.685556
    H   H35  0.460271  0.329357  0.729506  0.257944
    H   H36  0.558223  0.329231  0.729271  0.252962
