# generated using pymatgen
data_Fe2H22C47O16
_symmetry_space_group_name_H-M   'P 1'
_cell_length_a   14.28188100
_cell_length_b   14.55067900
_cell_length_c   13.17101000
_cell_angle_alpha   86.98317500
_cell_angle_beta   93.01097800
_cell_angle_gamma   116.09738200
_symmetry_Int_Tables_number   1
_chemical_formula_structural   Fe2H22C47O16
_chemical_formula_sum   'Fe2 H22 C47 O16'
_cell_volume   2453.30605511
_cell_formula_units_Z   1
loop_
 _symmetry_equiv_pos_site_id
 _symmetry_equiv_pos_as_xyz
  1  'x, y, z'
loop_
 _atom_site_type_symbol
 _atom_site_label
 _atom_site_symmetry_multiplicity
 _atom_site_fract_x
 _atom_site_fract_y
 _atom_site_fract_z
 _atom_site_occupancy
  Fe  Fe1  1  0.50508800  0.00148700  0.16674300  1
  Fe  Fe2  1  0.49840600  0.99840900  0.70724800  1
  H  H1  1  0.10691200  0.88986500  0.75559500  1
  H  H2  1  0.97517000  0.88835000  0.85788500  1
  H  H3  1  0.97705000  0.04839400  0.84622300  1
  H  H4  1  0.81841400  0.03998900  0.77049500  1
  H  H5  1  0.26837400  0.03159800  0.16670900  1
  H  H6  1  0.95024700  0.99105400  0.28320700  1
  H  H7  1  0.79055400  0.97086800  0.21138600  1
  H  H8  1  0.47454700  0.35473800  0.24389900  1
  H  H9  1  0.46970500  0.34139100  0.56865700  1
  H  H10  1  0.47833600  0.63012300  0.62142700  1
  H  H11  1  0.43660000  0.61810600  0.29722600  1
  H  H12  1  0.54967100  0.13853700  0.41237800  1
  H  H13  1  0.41614200  0.85509700  0.45554400  1
  H  H14  1  0.41273700  0.45954500  0.32532200  1
  H  H15  1  0.50858100  0.50638200  0.54049800  1
  H  H16  1  0.16987200  0.91886700  0.34159800  1
  H  H17  1  0.20782300  0.97156100  0.51817800  1
  H  H18  1  0.22475900  0.08454800  0.64570800  1
  H  H19  1  0.13812600  0.14457100  0.62464300  1
  H  H20  1  0.27571400  0.21697300  0.60235100  1
  H  H21  1  0.16777900  0.24025400  0.43766300  1
  H  H22  1  0.13034000  0.18764700  0.26061400  1
  C  C1  1  0.23201100  0.95607700  0.86646200  1
  C  C2  1  0.12992600  0.92038900  0.83064400  1
  C  C3  1  0.05415300  0.92298000  0.88858500  1
  C  C4  1  0.90969100  0.01950900  0.89314300  1
  C  C5  1  0.25438400  0.98348200  0.96854300  1
  C  C6  1  0.17617100  0.98772700  0.02638400  1
  C  C7  1  0.07859900  0.96789900  0.98248900  1
  C  C8  1  0.00430300  0.98286200  0.03764500  1
  C  C9  1  0.81992500  0.01930000  0.85035400  1
  C  C10  1  0.73248100  0.98985600  0.90695300  1
  C  C11  1  0.91407400  0.98770600  0.99375500  1
  C  C12  1  0.83203800  0.97496700  0.05465400  1
  C  C13  1  0.73875000  0.97099500  0.01090600  1
  C  C14  1  0.19494900  0.01360600  0.12777200  1
  C  C15  1  0.11856800  0.01556500  0.18516500  1
  C  C16  1  0.02176900  0.99579200  0.14142100  1
  C  C17  1  0.94214500  0.98853500  0.20136300  1
  C  C18  1  0.84739900  0.97393200  0.15916400  1
  C  C19  1  0.65102500  0.95664800  0.07460500  1
  C  C20  1  0.43067900  0.80151400  0.27264100  1
  C  C21  1  0.35754700  0.00535100  0.01699300  1
  C  C22  1  0.51487600  0.19253300  0.22715900  1
  C  C23  1  0.46880800  0.80910100  0.63601400  1
  C  C24  1  0.63569700  0.98038900  0.85436100  1
  C  C25  1  0.50835500  0.17487000  0.59540800  1
  C  C26  1  0.30931800  0.95823700  0.79417700  1
  C  C27  1  0.51726600  0.24504800  0.31941700  1
  C  C28  1  0.48794700  0.32347500  0.31645500  1
  C  C29  1  0.47688100  0.36320700  0.40557500  1
  C  C30  1  0.48661700  0.31735900  0.49857700  1
  C  C31  1  0.51241000  0.23585000  0.50137600  1
  C  C32  1  0.53236700  0.20367700  0.41168400  1
  C  C33  1  0.44865500  0.44945000  0.39663700  1
  C  C34  1  0.47103500  0.51658300  0.47023200  1
  C  C35  1  0.45801100  0.65783700  0.54991400  1
  C  C36  1  0.44236900  0.74466700  0.54777500  1
  C  C37  1  0.42173200  0.78337800  0.45659300  1
  C  C38  1  0.42162400  0.73930000  0.36641600  1
  C  C39  1  0.43241100  0.64912100  0.36850700  1
  C  C40  1  0.44945700  0.60711700  0.46139000  1
  C  C41  1  0.14585900  0.04890200  0.29016100  1
  C  C42  1  0.17010500  0.98987100  0.36235500  1
  C  C43  1  0.19126400  0.01962600  0.46197400  1
  C  C44  1  0.18932600  0.10912400  0.48944600  1
  C  C45  1  0.20827500  0.14052700  0.59719900  1
  C  C46  1  0.16859100  0.16979400  0.41662500  1
  C  C47  1  0.14745000  0.14010100  0.31718000  1
  O  O1  1  0.60662500  0.01903500  0.06200900  1
  O  O2  1  0.40429600  0.76069700  0.18288800  1
  O  O3  1  0.61786400  0.88261600  0.14418400  1
  O  O4  1  0.47708200  0.90135200  0.28241200  1
  O  O5  1  0.36363400  0.94964100  0.09697600  1
  O  O6  1  0.44073400  0.08717400  0.98867600  1
  O  O7  1  0.57032200  0.14050400  0.22735800  1
  O  O8  1  0.43982600  0.17686500  0.15930200  1
  O  O9  1  0.41366200  0.85944800  0.65004500  1
  O  O10  1  0.56283900  0.84063900  0.67725300  1
  O  O11  1  0.64090600  0.03376700  0.76958800  1
  O  O12  1  0.54486900  0.90996400  0.88370400  1
  O  O13  1  0.27796200  0.92776400  0.70131700  1
  O  O14  1  0.53300900  0.09814500  0.59071500  1
  O  O15  1  0.40939900  0.99744000  0.81804600  1
  O  O16  1  0.46883900  0.18810700  0.67800200  1
