# Generated by REPEAT Assigner based on pymatgen
data_DB0-m2_o3_o29_f0_pcu_sqe
_audit_creation_date              2022-05-24
_audit_creation_method            REPEAT_Assigner
_cell_length_a                    27.529218
_cell_length_b                    27.528616
_cell_length_c                    26.435914
_cell_angle_alpha                 90.000000
_cell_angle_beta                  90.000000
_cell_angle_gamma                 90.000000
_cell_volume                      20034.226808
_symmetry_space_group_name_H-M    P1
_symmetry_Int_Tables_number       1
loop_
    _symmetry_equiv_pos_site_id
    _symmetry_equiv_pos_as_xyz
    1  x,y,z
loop_
    _atom_site_type_symbol
    _atom_site_label
    _atom_site_fract_x
    _atom_site_fract_y
    _atom_site_fract_z
    _atom_type_partial_charge
    O   O1    0.049722  0.949582  0.043144  -0.592198
    O   O2    0.950421  0.050609  0.956781  -0.587709
    O   O3    0.950257  0.050422  0.043198  -0.592476
    O   O4    0.049535  0.949421  0.956728  -0.587818
    O   O5    0.050531  0.049655  0.956760  -0.606527
    O   O6    0.949604  0.950254  0.043163  -0.606717
    O   O7    0.949431  0.950459  0.956725  -0.607714
    O   O8    0.050361  0.049792  0.043206  -0.608784
    O   O9    0.549817  0.449586  0.043004  -0.595153
    O   O10   0.449482  0.549560  0.956643  -0.620135
    O   O11   0.450260  0.550322  0.043050  -0.595458
    O   O12   0.550579  0.450381  0.956595  -0.620601
    O   O13   0.549513  0.550608  0.956976  -0.598361
    O   O14   0.449750  0.450101  0.043388  -0.620528
    O   O15   0.450500  0.449347  0.956975  -0.600491
    O   O16   0.550292  0.549819  0.043387  -0.621922
    C   C1    0.066250  0.932642  0.999931  0.650002
    C   C2    0.933704  0.067350  0.999995  0.649413
    C   C3    0.067310  0.066331  0.999990  0.692328
    C   C4    0.932630  0.933773  0.999939  0.692161
    C   C5    0.566996  0.433311  0.999798  0.678731
    C   C6    0.433085  0.566630  0.999854  0.678196
    C   C7    0.566585  0.567004  0.000182  0.683601
    C   C8    0.433417  0.432968  0.000181  0.684350
    Cu  Cu1   0.500034  0.499941  0.050668  0.950687
    Cu  Cu2   0.500016  0.499963  0.949322  0.956491
    Cu  Cu3   0.999992  0.000008  0.050565  0.956864
    Cu  Cu4   0.999987  0.000044  0.949349  0.943240
    C   C9    0.377415  0.377387  0.045211  -0.079831
    C   C10   0.621990  0.623135  0.955053  -0.127759
    C   C11   0.622481  0.622742  0.045184  -0.075647
    C   C12   0.378052  0.376767  0.955081  -0.124490
    C   C13   0.376800  0.621969  0.954840  -0.078020
    C   C14   0.622635  0.377412  0.044921  -0.128887
    C   C15   0.623349  0.378030  0.954788  -0.076556
    C   C16   0.377512  0.622630  0.044972  -0.127960
    C   C17   0.876678  0.878138  0.044995  -0.062974
    C   C18   0.123613  0.121662  0.954959  -0.063647
    C   C19   0.123188  0.122010  0.045092  -0.056860
    C   C20   0.876456  0.878364  0.954867  -0.057077
    C   C21   0.878280  0.123489  0.954923  -0.102162
    C   C22   0.122103  0.876886  0.044990  -0.097662
    C   C23   0.121631  0.876414  0.954855  -0.101009
    C   C24   0.877821  0.123054  0.045057  -0.097741
    H   H1    0.890338  0.891277  0.080787  0.098474
    H   H2    0.110206  0.108322  0.919142  0.099184
    H   H3    0.109750  0.108642  0.080884  0.098421
    H   H4    0.889648  0.891980  0.919077  0.098620
    H   H5    0.891987  0.110399  0.919131  0.116986
    H   H6    0.109105  0.890674  0.080786  0.117556
    H   H7    0.107903  0.889475  0.919055  0.116204
    H   H8    0.890824  0.109274  0.080856  0.117618
    H   H9    0.390668  0.390917  0.081011  0.106811
    H   H10   0.608289  0.610005  0.919274  0.128574
    H   H11   0.609439  0.609008  0.080983  0.106999
    H   H12   0.391482  0.390114  0.919277  0.129672
    H   H13   0.389773  0.608172  0.919040  0.107920
    H   H14   0.608798  0.390388  0.080703  0.129226
    H   H15   0.610403  0.391836  0.918981  0.107199
    H   H16   0.391387  0.609698  0.080761  0.128786
    C   C25   0.342006  0.341836  0.045202  -0.163075
    C   C26   0.657430  0.658656  0.955012  -0.143133
    C   C27   0.657856  0.658333  0.045139  -0.164633
    C   C28   0.342706  0.341147  0.955078  -0.148712
    C   C29   0.341303  0.657439  0.954864  -0.165301
    C   C30   0.658246  0.342059  0.044964  -0.143021
    C   C31   0.658862  0.342577  0.954838  -0.166499
    C   C32   0.341895  0.657987  0.044986  -0.143914
    C   C33   0.841120  0.842730  0.044994  -0.171227
    C   C34   0.159218  0.157027  0.954997  -0.171660
    C   C35   0.158704  0.157458  0.045122  -0.176885
    C   C36   0.840951  0.842905  0.954869  -0.176868
    C   C37   0.842770  0.158943  0.954913  -0.157340
    C   C38   0.157531  0.841341  0.044987  -0.158870
    C   C39   0.157165  0.840975  0.954863  -0.156508
    C   C40   0.842388  0.158590  0.045040  -0.160548
    H   H17   0.828595  0.828620  0.080823  0.115146
    H   H18   0.172036  0.170905  0.919179  0.115153
    H   H19   0.172562  0.170211  0.080975  0.112289
    H   H20   0.826822  0.830403  0.919040  0.112496
    H   H21   0.830315  0.173138  0.919092  0.114454
    H   H22   0.171748  0.828891  0.080800  0.110561
    H   H23   0.169629  0.826778  0.919045  0.114153
    H   H24   0.828154  0.171028  0.080853  0.110942
    H   H25   0.329194  0.328019  0.081050  0.114781
    H   H26   0.669817  0.672862  0.919172  0.109143
    H   H27   0.672042  0.670831  0.080946  0.110823
    H   H28   0.328959  0.328236  0.919242  0.106616
    H   H29   0.326986  0.669813  0.919066  0.111428
    H   H30   0.670644  0.327817  0.080789  0.109000
    H   H31   0.673209  0.330213  0.919045  0.111743
    H   H32   0.329498  0.672246  0.080803  0.109165
    C   C41   0.324309  0.323309  0.000136  0.112165
    C   C42   0.675710  0.676657  0.000051  0.107202
    C   C43   0.323452  0.675790  0.999931  0.107701
    C   C44   0.676687  0.324240  0.999923  0.108366
    C   C45   0.822926  0.824688  0.999930  0.113612
    C   C46   0.177089  0.175340  0.000077  0.113719
    C   C47   0.824464  0.176874  0.999967  0.109591
    C   C48   0.175478  0.823056  0.999926  0.107909
    C   C49   0.395712  0.395116  0.000155  -0.041527
    C   C50   0.604265  0.604893  0.000144  -0.041720
    C   C51   0.395206  0.604325  0.999890  -0.038450
    C   C52   0.604910  0.395659  0.999830  -0.039183
    C   C53   0.894637  0.896198  0.999931  -0.080231
    C   C54   0.105316  0.103895  0.000011  -0.079783
    C   C55   0.896054  0.105258  0.999995  -0.032586
    C   C56   0.103875  0.894686  0.999923  -0.033936
    C   C57   0.785523  0.750014  0.964113  -0.139355
    C   C58   0.214094  0.250341  0.035504  -0.142823
    C   C59   0.252022  0.212625  0.964739  -0.151838
    C   C60   0.748381  0.787007  0.035739  -0.149922
    C   C61   0.786955  0.251527  0.035649  -0.135911
    C   C62   0.250277  0.785812  0.964253  -0.146345
    C   C63   0.213063  0.748403  0.035603  -0.134308
    C   C64   0.749734  0.214198  0.964246  -0.147845
    C   C65   0.287411  0.248195  0.964752  -0.132523
    C   C66   0.713013  0.751409  0.035786  -0.134450
    C   C67   0.750145  0.714429  0.964148  -0.146818
    C   C68   0.249465  0.285921  0.035504  -0.141637
    C   C69   0.248651  0.713018  0.035607  -0.148360
    C   C70   0.714209  0.249625  0.964248  -0.137598
    C   C71   0.751414  0.286944  0.035666  -0.146748
    C   C72   0.285858  0.750422  0.964250  -0.138826
    H   H33   0.814282  0.747943  0.936394  0.113947
    H   H34   0.185011  0.252697  0.062824  0.114853
    H   H35   0.254506  0.183580  0.937385  0.109478
    H   H36   0.746162  0.815788  0.063422  0.108891
    H   H37   0.815814  0.253769  0.063240  0.112924
    H   H38   0.252419  0.814696  0.936682  0.108836
    H   H39   0.184190  0.746095  0.063174  0.112572
    H   H40   0.747542  0.185334  0.936658  0.109171
    H   H41   0.316488  0.245839  0.937423  0.112379
    H   H42   0.684252  0.753468  0.063505  0.112956
    H   H43   0.752343  0.685663  0.936447  0.108691
    H   H44   0.246942  0.314988  0.062828  0.107360
    H   H45   0.246526  0.684134  0.063180  0.108805
    H   H46   0.685349  0.247387  0.936656  0.114232
    H   H47   0.753568  0.315796  0.063275  0.108429
    H   H48   0.314730  0.752722  0.936677  0.114388
    C   C73   0.713519  0.714734  0.999994  0.064820
    C   C74   0.286497  0.285237  0.000125  0.058937
    C   C75   0.714673  0.286366  0.999955  0.066002
    C   C76   0.285425  0.713651  0.999935  0.067432
    C   C77   0.214985  0.213323  0.000115  0.073548
    C   C78   0.785036  0.786679  0.999920  0.071121
    C   C79   0.213497  0.785180  0.999923  0.064579
    C   C80   0.786487  0.214774  0.999947  0.065702
    C   C81   0.982429  0.038492  0.314558  0.554729
    C   C82   0.014752  0.960345  0.685459  0.552163
    C   C83   0.017693  0.961409  0.314574  0.556864
    C   C84   0.985077  0.039735  0.685424  0.553360
    C   C85   0.496476  0.542201  0.314661  0.559702
    C   C86   0.496101  0.457849  0.685239  0.558688
    C   C87   0.503655  0.457708  0.314699  0.561338
    C   C88   0.503761  0.542292  0.685226  0.559877
    O   O17   0.966830  0.075161  0.290390  -0.524349
    O   O18   0.027888  0.922783  0.709724  -0.526601
    O   O19   0.033323  0.924743  0.290422  -0.524787
    O   O20   0.971945  0.077316  0.709656  -0.526816
    O   O21   0.493798  0.581886  0.290362  -0.529326
    O   O22   0.493171  0.418179  0.709525  -0.528722
    O   O23   0.506357  0.418007  0.290436  -0.529795
    O   O24   0.506702  0.581975  0.709493  -0.529247
    N   N1    0.000034  0.999934  0.288805  -0.302647
    N   N2    0.999905  0.000047  0.711149  -0.293968
    N   N3    0.500072  0.499945  0.289005  -0.304648
    N   N4    0.499929  0.500074  0.710918  -0.300986
    C   C89   0.957762  0.004718  0.207060  -0.320257
    C   C90   0.042114  0.995052  0.792800  -0.309612
    C   C91   0.042223  0.995173  0.207034  -0.319514
    C   C92   0.957723  0.005120  0.792822  -0.309457
    C   C93   0.460528  0.515436  0.207388  -0.269467
    C   C94   0.460339  0.484735  0.792565  -0.269768
    C   C95   0.539575  0.484328  0.207381  -0.269029
    C   C96   0.539596  0.515287  0.792556  -0.269276
    C   C97   0.958824  0.004494  0.154594  0.134524
    C   C98   0.041082  0.995433  0.845272  0.126139
    C   C99   0.041141  0.995473  0.154573  0.134947
    C   C100  0.958784  0.004758  0.845296  0.126431
    C   C101  0.461363  0.514630  0.154934  0.066230
    C   C102  0.461211  0.485467  0.845029  0.068836
    C   C103  0.538719  0.485101  0.154926  0.065742
    C   C104  0.538771  0.514447  0.845020  0.068103
    C   C105  0.000001  0.999920  0.234291  0.418669
    C   C106  0.999911  0.000073  0.765618  0.408305
    C   C107  0.500066  0.499916  0.234559  0.387004
    C   C108  0.499948  0.500055  0.765376  0.384867
    C   C109  0.000081  0.999976  0.394092  0.158264
    C   C110  0.999951  0.000016  0.605910  0.150652
    C   C111  0.500041  0.499988  0.394150  0.150931
    C   C112  0.499933  0.500054  0.605755  0.151034
    C   C113  0.982324  0.038913  0.367203  -0.197101
    C   C114  0.014857  0.959895  0.632808  -0.193830
    C   C115  0.017853  0.961031  0.367226  -0.199707
    C   C116  0.985017  0.040152  0.632772  -0.195634
    C   C117  0.496781  0.542705  0.367308  -0.194987
    C   C118  0.496435  0.457356  0.632591  -0.196691
    C   C119  0.503313  0.457251  0.367344  -0.196474
    C   C120  0.503416  0.542765  0.632575  -0.196855
    C   C121  0.964311  0.078242  0.393153  -0.019672
    C   C122  0.029360  0.919138  0.606861  -0.017729
    C   C123  0.035900  0.921733  0.393209  -0.018436
    C   C124  0.970552  0.080903  0.606793  -0.016884
    C   C125  0.493548  0.585854  0.393322  -0.022349
    C   C126  0.493037  0.414221  0.606572  -0.020231
    C   C127  0.506511  0.414115  0.393388  -0.021559
    C   C128  0.506874  0.585882  0.606533  -0.020115
    N   N5    0.500052  0.499907  0.127994  -0.109687
    N   N6    0.499987  0.499977  0.871966  -0.114664
    N   N7    0.999976  0.999960  0.127721  -0.191290
    N   N8    0.999940  0.000071  0.872157  -0.179246
    H   H49   0.075193  0.991985  0.134562  0.092983
    H   H50   0.924734  0.008447  0.865284  0.094502
    H   H51   0.924767  0.008108  0.134610  0.093108
    H   H52   0.075151  0.991824  0.865242  0.094537
    H   H53   0.570880  0.473136  0.135128  0.101560
    H   H54   0.571063  0.526076  0.864817  0.101872
    H   H55   0.429151  0.526470  0.135143  0.101339
    H   H56   0.428966  0.473745  0.864843  0.101448
    H   H57   0.076647  0.991786  0.226394  0.164725
    H   H58   0.923382  0.008820  0.773370  0.162137
    H   H59   0.923353  0.008146  0.226444  0.164951
    H   H60   0.076450  0.991400  0.773327  0.162216
    H   H61   0.571831  0.471994  0.226840  0.155092
    H   H62   0.571939  0.527362  0.773081  0.154504
    H   H63   0.428255  0.527707  0.226858  0.155081
    H   H64   0.427990  0.472660  0.773106  0.154796
    H   H65   0.949580  0.109270  0.373386  0.118396
    H   H66   0.040595  0.886690  0.626642  0.118323
    H   H67   0.050660  0.890707  0.373464  0.118246
    H   H68   0.959276  0.113356  0.626548  0.118241
    H   H69   0.490156  0.620045  0.373573  0.120200
    H   H70   0.489514  0.380044  0.626321  0.119567
    H   H71   0.509870  0.379904  0.373661  0.120035
    H   H72   0.510462  0.620066  0.626262  0.119558
    C   C129  0.984161  0.040819  0.526630  0.055219
    C   C130  0.017278  0.959741  0.473371  0.049411
    C   C131  0.015893  0.959199  0.526664  0.054632
    C   C132  0.982864  0.040261  0.473337  0.048915
    C   C133  0.501394  0.543745  0.526531  0.051010
    C   C134  0.501225  0.456297  0.473376  0.051635
    C   C135  0.498571  0.456319  0.526558  0.050695
    C   C136  0.498817  0.543735  0.473344  0.051339
    C   C137  0.000004  0.000011  0.552907  0.016175
    C   C138  0.000077  0.999992  0.447093  0.016113
    C   C139  0.499965  0.500040  0.552809  0.018705
    C   C140  0.500028  0.500008  0.447096  0.018375
    C   C141  0.970233  0.081411  0.554769  -0.204472
    C   C142  0.035767  0.921021  0.445232  -0.199471
    C   C143  0.029766  0.918616  0.554837  -0.204230
    C   C144  0.964428  0.078982  0.445169  -0.199136
    C   C145  0.505816  0.586493  0.554490  -0.199312
    C   C146  0.505445  0.413519  0.445429  -0.199606
    C   C147  0.494119  0.413583  0.554532  -0.199292
    C   C148  0.494592  0.586487  0.445364  -0.199415
    H   H73   0.959339  0.115283  0.538197  0.137527
    H   H74   0.051569  0.889154  0.461818  0.135311
    H   H75   0.040655  0.884740  0.538277  0.137580
    H   H76   0.948639  0.110870  0.461720  0.135313
    H   H77   0.510076  0.621701  0.537554  0.135300
    H   H78   0.509492  0.378283  0.462363  0.136049
    H   H79   0.489887  0.378361  0.537615  0.135393
    H   H80   0.490494  0.621718  0.462287  0.136092
