# generated using pymatgen
data_CuH19C16N3O4
_symmetry_space_group_name_H-M   'P 1'
_cell_length_a   17.42487800
_cell_length_b   11.32048000
_cell_length_c   9.57615100
_cell_angle_alpha   112.45422300
_cell_angle_beta   96.01392000
_cell_angle_gamma   90.80324700
_symmetry_Int_Tables_number   1
_chemical_formula_structural   CuH19C16N3O4
_chemical_formula_sum   'Cu2 H38 C32 N6 O8'
_cell_volume   1733.14887559
_cell_formula_units_Z   2
loop_
 _symmetry_equiv_pos_site_id
 _symmetry_equiv_pos_as_xyz
  1  'x, y, z'
loop_
 _atom_site_type_symbol
 _atom_site_label
 _atom_site_symmetry_multiplicity
 _atom_site_fract_x
 _atom_site_fract_y
 _atom_site_fract_z
 _atom_site_occupancy
  Cu  Cu1  1  0.51293000  0.52621300  0.64896100  1
  Cu  Cu2  1  0.48662400  0.47338900  0.35064000  1
  H  H1  1  0.23895400  0.42467100  0.28442000  1
  H  H2  1  0.76090400  0.57956000  0.71431200  1
  H  H3  1  0.98855800  0.49425500  0.33555200  1
  H  H4  1  0.01044500  0.50439900  0.66123300  1
  H  H5  1  0.13791500  0.57850600  0.77890200  1
  H  H6  1  0.86090100  0.41528700  0.21874700  1
  H  H7  1  0.89818100  0.58462300  0.70325100  1
  H  H8  1  0.10172000  0.41948500  0.29406400  1
  H  H9  1  0.50037500  0.93748600  0.70600500  1
  H  H10  1  0.49731100  0.05990400  0.29473900  1
  H  H11  1  0.44510900  0.43185700  0.84541700  1
  H  H12  1  0.55353600  0.56879500  0.15463000  1
  H  H13  1  0.57973500  0.61587800  0.94450600  1
  H  H14  1  0.42022700  0.38195600  0.05465700  1
  H  H15  1  0.75861600  0.22824900  0.17592700  1
  H  H16  1  0.73345800  0.24780800  0.99805800  1
  H  H17  1  0.65881200  0.21482900  0.09770900  1
  H  H18  1  0.71012700  0.57652200  0.17016400  1
  H  H19  1  0.66902600  0.44085600  0.00452600  1
  H  H20  1  0.77243500  0.46211600  0.05567700  1
  H  H21  1  0.28755100  0.41298400  0.82119400  1
  H  H22  1  0.22527200  0.52574900  0.93807000  1
  H  H23  1  0.32856200  0.54537800  0.99047500  1
  H  H24  1  0.24037000  0.76584100  0.82995600  1
  H  H25  1  0.34018800  0.77735100  0.90683700  1
  H  H26  1  0.26570500  0.74113000  0.00461100  1
  H  H27  1  0.39806100  0.89015400  0.28277800  1
  H  H28  1  0.42015700  0.72647500  0.18608100  1
  H  H29  1  0.45379800  0.84667700  0.12355100  1
  H  H30  1  0.61777600  0.95220200  0.37113500  1
  H  H31  1  0.57573200  0.88811200  0.17472300  1
  H  H32  1  0.61885100  0.78423400  0.25950700  1
  H  H33  1  0.38903400  0.04848200  0.65520100  1
  H  H34  1  0.38773900  0.21739900  0.76012300  1
  H  H35  1  0.44116400  0.12190600  0.84544800  1
  H  H36  1  0.60742600  0.22358800  0.72387100  1
  H  H37  1  0.58508100  0.09907700  0.78820900  1
  H  H38  1  0.55459100  0.25841200  0.88569600  1
  C  C1  1  0.49531100  0.25854800  0.44514600  1
  C  C2  1  0.50432600  0.74086800  0.55457900  1
  C  C3  1  0.35310200  0.50187200  0.51628300  1
  C  C4  1  0.64643100  0.49765800  0.48322600  1
  C  C5  1  0.26913800  0.50315500  0.52668800  1
  C  C6  1  0.73031700  0.49594500  0.47229500  1
  C  C7  1  0.21797900  0.45982300  0.39448500  1
  C  C8  1  0.78170200  0.54201500  0.60411600  1
  C  C9  1  0.13915600  0.45815200  0.40016500  1
  C  C10  1  0.86046300  0.54362700  0.59767200  1
  C  C11  1  0.11006100  0.50125500  0.53905200  1
  C  C12  1  0.88921700  0.49767900  0.45846200  1
  C  C13  1  0.16078000  0.54359800  0.67069800  1
  C  C14  1  0.83826400  0.45247000  0.32712800  1
  C  C15  1  0.23978000  0.54558300  0.66639500  1
  C  C16  1  0.75932200  0.45045700  0.33219400  1
  C  C17  1  0.02675300  0.50096500  0.55398100  1
  C  C18  1  0.97244200  0.49802200  0.44303900  1
  C  C19  1  0.49643800  0.12025700  0.41275400  1
  C  C20  1  0.50292900  0.87904800  0.58815500  1
  C  C21  1  0.49736900  0.07110900  0.52121700  1
  C  C22  1  0.50324500  0.92984300  0.48150300  1
  C  C23  1  0.50733400  0.50372900  0.07873100  1
  C  C24  1  0.49165600  0.49612700  0.92109200  1
  C  C25  1  0.71567300  0.26588300  0.11195000  1
  C  C26  1  0.71585300  0.47378300  0.10109600  1
  C  C27  1  0.28204200  0.51506300  0.89345500  1
  C  C28  1  0.28332200  0.72599400  0.89133900  1
  C  C29  1  0.44284200  0.82718600  0.22476500  1
  C  C30  1  0.58425700  0.86945900  0.28053100  1
  C  C31  1  0.42408600  0.13404100  0.73705800  1
  C  C32  1  0.56321400  0.18509200  0.77312900  1
  N  N1  1  0.46741300  0.43381400  0.12715200  1
  N  N2  1  0.53226500  0.56483500  0.87221700  1
  N  N3  1  0.70915400  0.40092600  0.19443200  1
  N  N4  1  0.28962100  0.59159300  0.80460900  1
  N  N5  1  0.51194800  0.84694600  0.33040600  1
  N  N6  1  0.49159700  0.15603500  0.67309000  1
  O  O1  1  0.50493000  0.34055000  0.58622100  1
  O  O2  1  0.49456400  0.65907900  0.41309500  1
  O  O3  1  0.48792800  0.29480500  0.32972600  1
  O  O4  1  0.51169800  0.70481000  0.67018300  1
  O  O5  1  0.40059300  0.52802600  0.64075300  1
  O  O6  1  0.59894700  0.47162200  0.35889900  1
  O  O7  1  0.37765700  0.47376600  0.38271400  1
  O  O8  1  0.62189700  0.52575300  0.61680500  1
