# generated using pymatgen
data_CuH5C9NO6
_symmetry_space_group_name_H-M   'P 1'
_cell_length_a   8.83715800
_cell_length_b   10.88390300
_cell_length_c   9.39762400
_cell_angle_alpha   90.02004000
_cell_angle_beta   97.78190500
_cell_angle_gamma   90.00219200
_symmetry_Int_Tables_number   1
_chemical_formula_structural   CuH5C9NO6
_chemical_formula_sum   'Cu2 H10 C18 N2 O12'
_cell_volume   895.56522129
_cell_formula_units_Z   2
loop_
 _symmetry_equiv_pos_site_id
 _symmetry_equiv_pos_as_xyz
  1  'x, y, z'
loop_
 _atom_site_type_symbol
 _atom_site_label
 _atom_site_symmetry_multiplicity
 _atom_site_fract_x
 _atom_site_fract_y
 _atom_site_fract_z
 _atom_site_occupancy
  Cu  Cu1  1  0.50696500  0.49848200  0.64421300  1
  Cu  Cu2  1  0.50523000  0.49996100  0.35955500  1
  H  H1  1  0.98370900  0.49751800  0.33785800  1
  H  H2  1  0.02511500  0.50200100  0.66714500  1
  H  H3  1  0.58230900  0.88087800  0.30199800  1
  H  H4  1  0.41828600  0.11711500  0.69922400  1
  H  H5  1  0.32590500  0.37244300  0.10823200  1
  H  H6  1  0.68308400  0.62934900  0.89062900  1
  H  H7  1  0.33223800  0.36658000  0.85118700  1
  H  H8  1  0.68022900  0.63251000  0.15469500  1
  H  H9  1  0.74667900  0.12395200  0.11891700  1
  H  H10  1  0.33533500  0.88948000  0.93358300  1
  C  C1  1  0.50721600  0.26227500  0.49884200  1
  C  C2  1  0.50062100  0.73546100  0.50437600  1
  C  C3  1  0.21258800  0.49904400  0.46686300  1
  C  C4  1  0.79952000  0.50119800  0.53708400  1
  C  C5  1  0.04449900  0.49905200  0.44631000  1
  C  C6  1  0.96652900  0.50086600  0.55805900  1
  C  C7  1  0.54398600  0.05782700  0.38255000  1
  C  C8  1  0.44861500  0.93912400  0.61547100  1
  C  C9  1  0.54438100  0.93172000  0.38987100  1
  C  C10  1  0.45683000  0.06593100  0.61268800  1
  C  C11  1  0.49660700  0.87062600  0.50435400  1
  C  C12  1  0.50290000  0.12676900  0.49641000  1
  C  C13  1  0.40831700  0.42786400  0.06292300  1
  C  C14  1  0.60780100  0.56877100  0.94056200  1
  C  C15  1  0.41145300  0.42478000  0.91726900  1
  C  C16  1  0.60570400  0.57086800  0.08752600  1
  C  C17  1  0.59105900  0.11202100  0.25236700  1
  C  C18  1  0.37717900  0.88305100  0.73236600  1
  N  N1  1  0.50929500  0.49629600  0.85731700  1
  N  N2  1  0.50393900  0.50203600  0.14647000  1
  O  O1  1  0.50288000  0.31947100  0.62134500  1
  O  O2  1  0.50847100  0.67863000  0.38226700  1
  O  O3  1  0.51235200  0.32163400  0.37870500  1
  O  O4  1  0.50095100  0.67663900  0.62560500  1
  O  O5  1  0.28547300  0.50135500  0.59775200  1
  O  O6  1  0.72700000  0.50525000  0.40622900  1
  O  O7  1  0.28316700  0.50237000  0.35296400  1
  O  O8  1  0.72934600  0.50302500  0.65096600  1
  O  O9  1  0.50116600  0.17348500  0.17209600  1
  O  O10  1  0.73036700  0.07872600  0.20983000  1
  O  O11  1  0.28605900  0.79910900  0.70665600  1
  O  O12  1  0.39787500  0.93559500  0.86834700  1
