# Generated by REPEAT Assigner based on pymatgen
data_DB0-m29_o89_o540_f0_pts.sym.23
_audit_creation_date              2022-05-24
_audit_creation_method            REPEAT_Assigner
_cell_length_a                    14.189124
_cell_length_b                    24.317967
_cell_length_c                    13.192834
_cell_angle_alpha                 97.334523
_cell_angle_beta                  93.148928
_cell_angle_gamma                 74.131814
_cell_volume                      4341.941766
_symmetry_space_group_name_H-M    P1
_symmetry_Int_Tables_number       1
loop_
    _symmetry_equiv_pos_site_id
    _symmetry_equiv_pos_as_xyz
    1  x,y,z
loop_
    _atom_site_type_symbol
    _atom_site_label
    _atom_site_fract_x
    _atom_site_fract_y
    _atom_site_fract_z
    _atom_type_partial_charge
    C   C1   0.864998  0.994623  0.121125  -0.257237
    C   C2   0.773935  0.994009  0.078135  0.064114
    C   C3   0.758527  0.997524  0.973464  -0.107257
    C   C4   0.832695  0.003785  0.916166  -0.126805
    C   C5   0.922889  0.004565  0.959788  0.097504
    C   C6   0.939886  0.999903  0.062576  0.250430
    C   C7   0.996234  0.009168  0.899486  -0.269366
    C   C8   0.087226  0.009630  0.941451  0.194866
    C   C9   0.105112  0.005336  0.044241  0.183512
    C   C10  0.031562  0.000361  0.105447  -0.293521
    C   C11  0.160116  0.014237  0.879963  -0.171144
    C   C12  0.251979  0.015508  0.920222  -0.056554
    C   C13  0.268568  0.013214  0.025046  0.028918
    C   C14  0.196115  0.007389  0.085072  -0.270138
    H   H1   0.875820  0.991705  0.201893  0.141462
    H   H2   0.820934  0.006165  0.835028  0.178066
    H   H3   0.982209  0.012498  0.818833  0.164153
    H   H4   0.144658  0.016153  0.799210  0.152336
    H   H5   0.212164  0.006702  0.165783  0.217782
    N   N1   0.018327  0.038686  0.289275  -0.262413
    C   C15  0.049432  0.018099  0.378679  -0.048085
    C   C16  0.102126  0.961053  0.360906  -0.206264
    C   C17  0.102931  0.946527  0.256296  -0.193740
    C   C18  0.050723  0.995397  0.214707  0.346730
    H   H6   0.976888  0.080364  0.279647  0.313872
    H   H7   0.034588  0.043122  0.452673  0.149449
    H   H8   0.136067  0.933172  0.417885  0.168631
    H   H9   0.137464  0.905110  0.215187  0.144980
    O   O1   0.603498  0.006966  0.115789  -0.556168
    C   C19  0.695375  0.993515  0.146944  0.608498
    O   O2   0.619240  0.881874  0.212499  -0.507552
    O   O3   0.716185  0.984558  0.242614  -0.522961
    O   O4   0.541510  0.955760  0.329410  -0.604615
    C   C20  0.591414  0.901853  0.306402  0.620069
    Fe  Fe1  0.509641  0.008402  0.222217  1.506484
    O   O5   0.395428  0.985480  0.150502  -0.659100
    O   O6   0.394658  0.061870  0.067604  -0.499318
    C   C21  0.359357  0.018408  0.078433  0.749291
    O   O7   0.491506  0.088315  0.294136  -0.671354
    O   O8   0.334146  0.083880  0.293152  -0.564018
    C   C22  0.401147  0.110297  0.325363  0.737389
    O   O9   0.530231  0.925639  0.701763  -0.652967
    O   O10  0.690285  0.925298  0.708179  -0.523123
    C   C23  0.620791  0.901596  0.672513  0.695231
    O   O11  0.631825  0.025684  0.846938  -0.667502
    O   O12  0.630695  0.949935  0.930798  -0.506346
    C   C24  0.667904  0.992468  0.918670  0.799808
    O   O13  0.308249  0.021227  0.752837  -0.541268
    O   O14  0.485586  0.058369  0.669216  -0.603294
    C   C25  0.432046  0.111547  0.691531  0.619481
    O   O15  0.421305  0.007164  0.881836  -0.564052
    C   C26  0.329648  0.015928  0.849760  0.659413
    O   O16  0.400617  0.130714  0.784524  -0.505267
    Fe  Fe2  0.515575  0.004983  0.775208  1.492258
    C   C27  0.275205  0.330525  0.574692  0.434770
    O   O17  0.367897  0.320444  0.611171  -0.494055
    N   N2   0.238406  0.285825  0.540924  -0.145366
    C   C28  0.146277  0.295066  0.502276  0.421294
    C   C29  0.323493  0.199773  0.435216  -0.288340
    C   C30  0.386447  0.145473  0.424004  0.081393
    C   C31  0.399587  0.145930  0.605889  0.082754
    C   C32  0.338714  0.201586  0.617800  -0.259291
    C   C33  0.301419  0.228673  0.531876  0.324455
    C   C34  0.126937  0.396660  0.523932  0.073558
    C   C35  0.219767  0.386438  0.566984  -0.106886
    C   C36  0.258407  0.431999  0.597993  -0.032295
    C   C37  0.089636  0.350442  0.493148  -0.075599
    C   C38  0.425254  0.119293  0.508636  -0.184795
    H   H10  0.317904  0.223371  0.693151  0.166970
    H   H11  0.331597  0.425366  0.630658  0.129206
    C   C39  0.596287  0.892937  0.489013  -0.174204
    C   C40  0.053624  0.554731  0.532623  0.061817
    C   C41  0.930628  0.516405  0.439550  0.071104
    C   C42  0.964818  0.563097  0.478591  0.005690
    C   C43  0.083085  0.603018  0.574736  -0.175581
    C   C44  0.026802  0.657436  0.562374  -0.023271
    C   C45  0.939538  0.665485  0.508205  -0.136036
    C   C46  0.909014  0.618539  0.464707  0.115829
    C   C47  0.821776  0.627723  0.408680  -0.069195
    C   C48  0.761306  0.683829  0.409754  0.377936
    N   N3   0.792391  0.728866  0.454671  -0.145545
    C   C49  0.881497  0.720536  0.500362  0.454041
    C   C50  0.701495  0.813195  0.561823  -0.266022
    C   C51  0.635906  0.866719  0.573482  0.077194
    C   C52  0.623954  0.867210  0.391718  0.073921
    C   C53  0.687659  0.812401  0.379421  -0.240326
    C   C54  0.725914  0.785138  0.464924  0.279747
    O   O18  0.912687  0.766170  0.541179  -0.492883
    C   C55  0.110501  0.498610  0.543471  0.035274
    C   C56  0.072687  0.452324  0.510014  0.063063
    C   C57  0.981532  0.461135  0.461318  0.004865
    C   C58  0.204816  0.487267  0.586675  -0.181314
    H   H12  0.733485  0.793258  0.628881  0.157751
    H   H13  0.052016  0.693506  0.598093  0.125897
    H   H14  0.147945  0.601118  0.621615  0.136771
    H   H15  0.242277  0.519814  0.609962  0.141438
    O   O19  0.110182  0.249960  0.470628  -0.495672
    C   C59  0.996290  0.359655  0.452060  -0.065914
    H   H16  0.291837  0.219809  0.368147  0.152132
    H   H17  0.963739  0.324459  0.430279  0.131695
    C   C60  0.848382  0.525726  0.375165  -0.113395
    C   C61  0.795541  0.580299  0.357322  -0.145617
    O   O20  0.668056  0.693674  0.375145  -0.435980
    C   C62  0.942597  0.414263  0.436772  -0.149115
    H   H18  0.827304  0.490740  0.330200  0.122966
    H   H19  0.710414  0.791570  0.303987  0.171312
    H   H20  0.868950  0.418205  0.407795  0.147508
    H   H21  0.470700  0.075562  0.496143  0.151353
    H   H22  0.548753  0.936127  0.501571  0.149034
    C   C63  0.719043  0.584589  0.276374  0.791373
    O   O21  0.667456  0.551453  0.267685  -0.555151
    O   O22  0.712450  0.621037  0.205650  -0.466824
    C   C64  0.645401  0.623327  0.126272  0.479185
    C   C65  0.654367  0.668053  0.060077  -0.305509
    H   H23  0.570237  0.635436  0.156729  -0.027787
    H   H24  0.659764  0.580775  0.079325  -0.053235
    H   H25  0.640179  0.710711  0.106585  0.107466
    H   H26  0.600152  0.670061  0.995886  0.061921
    H   H27  0.729354  0.656150  0.029290  0.069222
