# generated using pymatgen
data_ZnH20C25NO4
_symmetry_space_group_name_H-M   'P 1'
_cell_length_a   15.20436400
_cell_length_b   14.02937500
_cell_length_c   15.04040100
_cell_angle_alpha   90.00000000
_cell_angle_beta   90.00590400
_cell_angle_gamma   90.00000000
_symmetry_Int_Tables_number   1
_chemical_formula_structural   ZnH20C25NO4
_chemical_formula_sum   'Zn2 H40 C50 N2 O8'
_cell_volume   3208.23369122
_cell_formula_units_Z   2
loop_
 _symmetry_equiv_pos_site_id
 _symmetry_equiv_pos_as_xyz
  1  'x, y, z'
loop_
 _atom_site_type_symbol
 _atom_site_label
 _atom_site_symmetry_multiplicity
 _atom_site_fract_x
 _atom_site_fract_y
 _atom_site_fract_z
 _atom_site_occupancy
  Zn  Zn1  1  0.50000000  0.61389000  0.50000000  1
  Zn  Zn2  1  0.50000000  0.39684800  0.50000000  1
  H  H1  1  0.64153000  0.50522100  0.78136900  1
  H  H2  1  0.35847000  0.50522100  0.21863100  1
  H  H3  1  0.36517700  0.50535400  0.77410100  1
  H  H4  1  0.63482300  0.50535400  0.22590000  1
  H  H5  1  0.28360800  0.50522200  0.08483600  1
  H  H6  1  0.71639200  0.50522200  0.91516400  1
  H  H7  1  0.06159000  0.65063500  0.45686800  1
  H  H8  1  0.93915200  0.36000800  0.45556300  1
  H  H9  1  0.93841000  0.65063500  0.54313300  1
  H  H10  1  0.06084800  0.36000800  0.54443700  1
  H  H11  1  0.22023400  0.65134100  0.46138000  1
  H  H12  1  0.78028600  0.35949000  0.45702800  1
  H  H13  1  0.77976600  0.65134100  0.53862000  1
  H  H14  1  0.21971300  0.35949000  0.54297300  1
  H  H15  1  0.37096900  0.07216600  0.44310400  1
  H  H16  1  0.56982100  0.93850700  0.62358500  1
  H  H17  1  0.62903000  0.07216600  0.55689600  1
  H  H18  1  0.43017900  0.93850700  0.37641500  1
  H  H19  1  0.37426200  0.24532000  0.44185900  1
  H  H20  1  0.57064700  0.76523900  0.62010600  1
  H  H21  1  0.62573700  0.24532000  0.55814100  1
  H  H22  1  0.42935300  0.76523900  0.37989400  1
  H  H23  1  0.25463600  0.43988900  0.85993700  1
  H  H24  1  0.25416000  0.56837100  0.85670500  1
  H  H25  1  0.17091600  0.45479600  0.00952100  1
  H  H26  1  0.13464000  0.65417400  0.93050600  1
  H  H27  1  0.20605100  0.63656500  0.02458800  1
  H  H28  1  0.09155700  0.60438900  0.03214400  1
  H  H29  1  0.09638200  0.52013600  0.83114000  1
  H  H30  1  0.03152800  0.48486100  0.92618600  1
  H  H31  1  0.10387800  0.39994900  0.87417900  1
  H  H32  1  0.74536400  0.43988900  0.14006300  1
  H  H33  1  0.74584000  0.56837200  0.14329500  1
  H  H34  1  0.82908400  0.45479600  0.99047900  1
  H  H35  1  0.86536000  0.65417400  0.06949400  1
  H  H36  1  0.79394900  0.63656500  0.97541200  1
  H  H37  1  0.90844300  0.60438900  0.96785600  1
  H  H38  1  0.90361800  0.52013600  0.16886100  1
  H  H39  1  0.96847200  0.48486100  0.07381400  1
  H  H40  1  0.89612200  0.39994800  0.12582100  1
  C  C1  1  0.32784800  0.50540700  0.50246500  1
  C  C2  1  0.67215200  0.50540700  0.49753500  1
  C  C3  1  0.49710400  0.50535200  0.32629100  1
  C  C4  1  0.50289600  0.50535200  0.67370900  1
  C  C5  1  0.57991200  0.50537900  0.81721300  1
  C  C6  1  0.42008800  0.50537900  0.18278700  1
  C  C7  1  0.50233900  0.50539000  0.77061500  1
  C  C8  1  0.49766000  0.50539000  0.22938500  1
  C  C9  1  0.42340600  0.50558700  0.81494700  1
  C  C10  1  0.57659400  0.50558700  0.18505300  1
  C  C11  1  0.42077500  0.50592200  0.90745000  1
  C  C12  1  0.57922500  0.50592200  0.09255000  1
  C  C13  1  0.49971300  0.50588000  0.95412700  1
  C  C14  1  0.50028700  0.50588000  0.04587300  1
  C  C15  1  0.57865100  0.50559300  0.90886500  1
  C  C16  1  0.42134900  0.50559300  0.09113500  1
  C  C17  1  0.34079800  0.50608600  0.95329500  1
  C  C18  1  0.65920200  0.50608600  0.04670500  1
  C  C19  1  0.34274200  0.50547300  0.04558900  1
  C  C20  1  0.65725800  0.50547300  0.95441200  1
  C  C21  1  0.09508000  0.58668600  0.47809900  1
  C  C22  1  0.90528000  0.42404100  0.47593800  1
  C  C23  1  0.90492000  0.58668600  0.52190100  1
  C  C24  1  0.09472000  0.42404100  0.52406200  1
  C  C25  1  0.18574000  0.58699100  0.47990000  1
  C  C26  1  0.81456600  0.42386600  0.47589400  1
  C  C27  1  0.81426000  0.58699100  0.52010100  1
  C  C28  1  0.18543400  0.42386600  0.52410600  1
  C  C29  1  0.23144700  0.50546500  0.50243700  1
  C  C30  1  0.76855300  0.50546500  0.49756300  1
  C  C31  1  0.04853400  0.50532700  0.50055900  1
  C  C32  1  0.95146600  0.50532700  0.49944100  1
  C  C33  1  0.42890600  0.10832300  0.46739400  1
  C  C34  1  0.53971300  0.90234900  0.56796300  1
  C  C35  1  0.57109400  0.10832300  0.53260600  1
  C  C36  1  0.46028700  0.90234900  0.43203700  1
  C  C37  1  0.43013900  0.20659500  0.46762700  1
  C  C38  1  0.53934700  0.80407700  0.56674200  1
  C  C39  1  0.56986100  0.20659500  0.53237300  1
  C  C40  1  0.46065200  0.80407700  0.43325800  1
  C  C41  1  0.50000000  0.05784000  0.50000000  1
  C  C42  1  0.50000000  0.95282900  0.50000000  1
  C  C43  1  0.25542500  0.50536900  0.90123600  1
  C  C44  1  0.16959000  0.50659200  0.95399000  1
  C  C45  1  0.14953100  0.60667400  0.98748700  1
  C  C46  1  0.09568100  0.47605100  0.89234400  1
  C  C47  1  0.74457500  0.50536900  0.09876400  1
  C  C48  1  0.83040900  0.50659200  0.04601000  1
  C  C49  1  0.85046900  0.60667400  0.01251300  1
  C  C50  1  0.90431900  0.47605100  0.10765600  1
  N  N1  1  0.50000000  0.25424300  0.50000000  1
  N  N2  1  0.50000000  0.75648100  0.50000000  1
  O  O1  1  0.36897400  0.58766300  0.50148000  1
  O  O2  1  0.63101700  0.42313900  0.49754600  1
  O  O3  1  0.63102600  0.58766300  0.49852000  1
  O  O4  1  0.36898300  0.42313900  0.50245400  1
  O  O5  1  0.49844400  0.58769100  0.36754200  1
  O  O6  1  0.50241200  0.42299800  0.63245300  1
  O  O7  1  0.50155600  0.58769100  0.63245800  1
  O  O8  1  0.49758700  0.42299800  0.36754700  1
