data_DB0-m2_o23_o24_f0_pcu.sym.33_repeat
_audit_creation_date              2024-02-23
_audit_creation_method            'Materials Studio'
_symmetry_space_group_name_H-M    'P1'
_symmetry_Int_Tables_number       1
_symmetry_cell_setting            triclinic
loop_
_symmetry_equiv_pos_as_xyz
  x,y,z
_cell_length_a                    15.8727
_cell_length_b                    14.4393
_cell_length_c                    10.6716
_cell_angle_alpha                 90.0000
_cell_angle_beta                  90.0111
_cell_angle_gamma                 90.0000
loop_
_atom_site_label
_atom_site_type_symbol
_atom_site_fract_x
_atom_site_fract_y
_atom_site_fract_z
_atom_site_U_iso_or_equiv
_atom_site_adp_type
_atom_site_occupancy
O1     O     0.37544   0.57981   0.49866   0.00000  Uiso   1.00
O2     O     0.37528   0.42063   0.49827   0.00000  Uiso   1.00
C1     C     0.33612   0.50027   0.49445   0.00000  Uiso   1.00
O3     O     0.50065   0.57991   0.31278   0.00000  Uiso   1.00
O4     O     0.50047   0.42072   0.31236   0.00000  Uiso   1.00
C2     C     0.49813   0.50041   0.25419   0.00000  Uiso   1.00
Cu1    Cu    0.49788   0.59281   0.49489   0.00000  Uiso   1.00
Cu2    Cu    0.49769   0.40733   0.49441   0.00000  Uiso   1.00
O5     O     0.62031   0.57968   0.49902   0.00000  Uiso   1.00
O6     O     0.62014   0.42014   0.49859   0.00000  Uiso   1.00
O7     O     0.50046   0.57960   0.67698   0.00000  Uiso   1.00
O8     O     0.50031   0.42004   0.67656   0.00000  Uiso   1.00
C3     C     0.65942   0.49986   0.49493   0.00000  Uiso   1.00
C4     C     0.49793   0.49973   0.73506   0.00000  Uiso   1.00
C5     C     0.49857   0.58658   0.03489   0.00000  Uiso   1.00
C6     C     0.43036   0.45722   0.03580   0.00000  Uiso   1.00
C7     C     0.43047   0.54324   0.95356   0.00000  Uiso   1.00
H1     H     0.37395   0.57905   0.91635   0.00000  Uiso   1.00
H2     H     0.49872   0.65873   0.07053   0.00000  Uiso   1.00
H3     H     0.37374   0.42166   0.07312   0.00000  Uiso   1.00
C8     C     0.49833   0.49962   0.87438   0.00000  Uiso   1.00
C9     C     0.56644   0.54294   0.95342   0.00000  Uiso   1.00
C10    C     0.49821   0.41357   0.95437   0.00000  Uiso   1.00
C11    C     0.56632   0.45690   0.03573   0.00000  Uiso   1.00
C12    C     0.49845   0.50053   0.11488   0.00000  Uiso   1.00
H4     H     0.62306   0.57850   0.91613   0.00000  Uiso   1.00
H5     H     0.49804   0.34142   0.91874   0.00000  Uiso   1.00
H6     H     0.62285   0.42109   0.07293   0.00000  Uiso   1.00
C13    C     0.04591   0.58732   0.56021   0.00000  Uiso   1.00
C14    C     0.04618   0.41349   0.56177   0.00000  Uiso   1.00
C15    C     0.95083   0.41651   0.57316   0.00000  Uiso   1.00
C16    C     0.95058   0.58396   0.57174   0.00000  Uiso   1.00
H7     H     0.93498   0.57570   0.67232   0.00000  Uiso   1.00
H8     H     0.93515   0.42561   0.67359   0.00000  Uiso   1.00
H9     H     0.07398   0.59209   0.65518   0.00000  Uiso   1.00
H10    H     0.07424   0.40978   0.65683   0.00000  Uiso   1.00
H11    H     0.06618   0.35173   0.50763   0.00000  Uiso   1.00
H12    H     0.06566   0.64862   0.50493   0.00000  Uiso   1.00
C17    C     0.74982   0.49975   0.49650   0.00000  Uiso   1.00
C18    C     0.07762   0.50015   0.49541   0.00000  Uiso   1.00
C19    C     0.91806   0.49983   0.49828   0.00000  Uiso   1.00
C20    C     0.95053   0.49922   0.36089   0.00000  Uiso   1.00
C21    C     0.04677   0.49945   0.36120   0.00000  Uiso   1.00
C22    C     0.82576   0.49972   0.49756   0.00000  Uiso   1.00
C23    C     0.16980   0.50031   0.49562   0.00000  Uiso   1.00
C24    C     0.24572   0.50035   0.49534   0.00000  Uiso   1.00
H13    H     0.07246   0.56064   0.31153   0.00000  Uiso   1.00
H14    H     0.07272   0.43793   0.31256   0.00000  Uiso   1.00
C25    C     0.58685   0.05269   0.53177   0.00000  Uiso   1.00
C26    C     0.58711   0.94779   0.53129   0.00000  Uiso   1.00
C27    C     0.47565   0.05228   0.36898   0.00000  Uiso   1.00
C28    C     0.47526   0.94743   0.36948   0.00000  Uiso   1.00
H15    H     0.63324   0.92250   0.46114   0.00000  Uiso   1.00
H16    H     0.63334   0.07859   0.46256   0.00000  Uiso   1.00
H17    H     0.41210   0.07808   0.34354   0.00000  Uiso   1.00
H18    H     0.41135   0.92206   0.34525   0.00000  Uiso   1.00
H19    H     0.52182   0.07749   0.29883   0.00000  Uiso   1.00
H20    H     0.52075   0.92146   0.29887   0.00000  Uiso   1.00
N1     N     0.49947   0.73123   0.49791   0.00000  Uiso   1.00
N2     N     0.49899   0.26891   0.49676   0.00000  Uiso   1.00
C29    C     0.49961   0.08746   0.49800   0.00000  Uiso   1.00
C30    C     0.49982   0.91268   0.49847   0.00000  Uiso   1.00
C31    C     0.43698   0.94768   0.59441   0.00000  Uiso   1.00
C32    C     0.43647   0.05256   0.59356   0.00000  Uiso   1.00
C33    C     0.49976   0.81135   0.49843   0.00000  Uiso   1.00
C34    C     0.49936   0.18878   0.49748   0.00000  Uiso   1.00
H21    H     0.45343   0.07867   0.68799   0.00000  Uiso   1.00
H22    H     0.45486   0.92260   0.68898   0.00000  Uiso   1.00
H23    H     0.37253   0.07766   0.56901   0.00000  Uiso   1.00
H24    H     0.37312   0.92161   0.57125   0.00000  Uiso   1.00
H25    H     0.60452   0.07810   0.62626   0.00000  Uiso   1.00
H26    H     0.60556   0.92201   0.62527   0.00000  Uiso   1.00
N3     N     0.91921   0.58103   0.29441   0.00000  Uiso   1.00
H27    H     0.95584   0.63875   0.31601   0.00000  Uiso   1.00
H28    H     0.92601   0.57193   0.19797   0.00000  Uiso   1.00
N4     N     0.91951   0.41662   0.29591   0.00000  Uiso   1.00
H29    H     0.92602   0.42489   0.19929   0.00000  Uiso   1.00
H30    H     0.95649   0.35932   0.31829   0.00000  Uiso   1.00
N5     N     0.91334   0.32919   0.53393   0.00000  Uiso   1.00
H31    H     0.94745   0.27574   0.57604   0.00000  Uiso   1.00
H32    H     0.85262   0.32550   0.57115   0.00000  Uiso   1.00
N6     N     0.91273   0.67075   0.53112   0.00000  Uiso   1.00
H33    H     0.85208   0.67458   0.56860   0.00000  Uiso   1.00
H34    H     0.94676   0.72474   0.57209   0.00000  Uiso   1.00
