# Generated by REPEAT Assigner based on pymatgen
data_DB0-m3_o13_o15_f0_pcu.sym.1
_audit_creation_date              2022-05-24
_audit_creation_method            REPEAT_Assigner
_cell_length_a                    10.944586
_cell_length_b                    11.888989
_cell_length_c                    13.076948
_cell_angle_alpha                 91.192312
_cell_angle_beta                  89.995984
_cell_angle_gamma                 85.823253
_cell_volume                      1696.684457
_symmetry_space_group_name_H-M    P1
_symmetry_Int_Tables_number       1
loop_
    _symmetry_equiv_pos_site_id
    _symmetry_equiv_pos_as_xyz
    1  x,y,z
loop_
    _atom_site_type_symbol
    _atom_site_label
    _atom_site_fract_x
    _atom_site_fract_y
    _atom_site_fract_z
    _atom_type_partial_charge
    O   O1   0.506419  0.418402  0.658167  -0.649064
    O   O2   0.493583  0.581594  0.341829  -0.648542
    O   O3   0.491219  0.612231  0.645853  -0.667367
    O   O4   0.508783  0.387766  0.354143  -0.666375
    C   C1   0.498448  0.520115  0.699821  0.698029
    C   C2   0.501553  0.479882  0.300175  0.696253
    O   O5   0.689686  0.402722  0.506086  -0.727819
    O   O6   0.310315  0.597274  0.493911  -0.729924
    O   O7   0.674481  0.596763  0.493848  -0.732626
    O   O8   0.325520  0.403233  0.506148  -0.731837
    C   C3   0.739096  0.499713  0.499957  1.015410
    C   C4   0.260906  0.500284  0.500039  1.016548
    Zn  Zn1  0.509988  0.372155  0.508133  1.031201
    Zn  Zn2  0.490013  0.627842  0.491863  1.032567
    H   H1   0.880403  0.595858  0.165201  0.086372
    H   H2   0.119598  0.404139  0.834795  0.086315
    C   C5   0.878590  0.447961  0.677979  -0.283020
    C   C6   0.121411  0.552035  0.322017  -0.282893
    C   C7   0.943525  0.422736  0.765572  -0.077879
    C   C8   0.056476  0.577261  0.234424  -0.077688
    C   C9   0.068757  0.423030  0.765625  -0.056881
    C   C10  0.931244  0.576967  0.234371  -0.056923
    C   C11  0.129647  0.448546  0.678084  -0.316207
    C   C12  0.870354  0.551451  0.321912  -0.316366
    C   C13  0.065521  0.472986  0.588382  0.272545
    C   C14  0.934480  0.527011  0.411614  0.273305
    C   C15  0.938805  0.472692  0.588330  0.243990
    C   C16  0.061197  0.527305  0.411666  0.243076
    C   C17  0.126833  0.500293  0.500052  -0.494256
    C   C18  0.873168  0.499703  0.499944  -0.494758
    H   H3   0.780242  0.448396  0.683112  0.149898
    H   H4   0.219759  0.551601  0.316885  0.150216
    H   H5   0.895711  0.403603  0.834698  0.087315
    H   H6   0.104291  0.596393  0.165298  0.087234
    H   H7   0.227875  0.449494  0.683309  0.166441
    H   H8   0.772126  0.550503  0.316687  0.166891
    C   C19  0.502434  0.468607  0.188188  -0.012342
    C   C20  0.497567  0.531390  0.811808  -0.014200
    C   C21  0.488462  0.647584  0.963782  -0.236694
    C   C22  0.511539  0.352413  0.036214  -0.235365
    C   C23  0.489295  0.637102  0.858595  -0.146153
    C   C24  0.510706  0.362895  0.141401  -0.147373
    C   C25  0.504990  0.436439  0.871564  -0.154813
    C   C26  0.495011  0.563558  0.128432  -0.156445
    C   C27  0.504130  0.447251  0.976911  0.177135
    C   C28  0.495871  0.552745  0.023086  0.178940
    H   H9   0.488484  0.646932  0.163374  0.091162
    H   H10  0.511518  0.353065  0.836623  0.090980
    H   H11  0.516614  0.287266  0.186083  0.122487
    H   H12  0.483387  0.712731  0.813914  0.122034
    H   H13  0.481957  0.730701  0.999355  0.136708
    H   H14  0.518044  0.269296  0.000641  0.136540
    N   N1   0.523007  0.204126  0.518888  0.037171
    N   N2   0.476995  0.795871  0.481108  0.036901
    C   C29  0.387595  0.961424  0.405961  -0.202670
    C   C30  0.612406  0.038572  0.594035  -0.202035
    C   C31  0.397470  0.845674  0.414421  -0.081132
    C   C32  0.602531  0.154323  0.585576  -0.081786
    C   C33  0.548104  0.857975  0.540545  -0.153823
    C   C34  0.451897  0.142021  0.459451  -0.154102
    C   C35  0.540290  0.973947  0.533783  0.196150
    C   C36  0.459711  0.026049  0.466214  0.196906
    H   H15  0.388568  0.183371  0.406387  0.170811
    H   H16  0.611433  0.816626  0.593609  0.170868
    H   H17  0.658981  0.205196  0.632826  0.166874
    H   H18  0.341021  0.794801  0.367171  0.166673
    H   H19  0.323553  0.000692  0.352251  0.143822
    H   H20  0.676448  0.999304  0.647746  0.143590
