# generated using pymatgen
data_ZnH4C19(N3O2)2
_symmetry_space_group_name_H-M   'P 1'
_cell_length_a   14.19144200
_cell_length_b   8.55225000
_cell_length_c   13.40342200
_cell_angle_alpha   90.00000000
_cell_angle_beta   90.95632300
_cell_angle_gamma   90.00000000
_symmetry_Int_Tables_number   1
_chemical_formula_structural   ZnH4C19(N3O2)2
_chemical_formula_sum   'Zn2 H8 C38 N12 O8'
_cell_volume   1626.53011283
_cell_formula_units_Z   2
loop_
 _symmetry_equiv_pos_site_id
 _symmetry_equiv_pos_as_xyz
  1  'x, y, z'
loop_
 _atom_site_type_symbol
 _atom_site_label
 _atom_site_symmetry_multiplicity
 _atom_site_fract_x
 _atom_site_fract_y
 _atom_site_fract_z
 _atom_site_occupancy
  Zn  Zn1  1  0.89594400  0.50274300  0.51348600  1
  Zn  Zn2  1  0.10405600  0.50274300  0.48651300  1
  H  H1  1  0.00301100  0.75313400  0.83652300  1
  H  H2  1  0.99698900  0.75313400  0.16347700  1
  H  H3  1  0.04634400  0.00268500  0.56707300  1
  H  H4  1  0.95365600  0.00268500  0.43292600  1
  H  H5  1  0.40392300  0.31708100  0.60135500  1
  H  H6  1  0.59607800  0.31708100  0.39864500  1
  H  H7  1  0.55434100  0.70926200  0.59622700  1
  H  H8  1  0.44566000  0.70926200  0.40377300  1
  C  C1  1  0.02390300  0.14234800  0.69536200  1
  C  C2  1  0.97609700  0.14234800  0.30463700  1
  C  C3  1  0.01062100  0.14287500  0.79702500  1
  C  C4  1  0.98937900  0.14287500  0.20297500  1
  C  C5  1  0.00830200  0.00271800  0.84841300  1
  C  C6  1  0.99169800  0.00271800  0.15158700  1
  C  C7  1  0.01062200  0.86252400  0.79706000  1
  C  C8  1  0.98937900  0.86252400  0.20293900  1
  C  C9  1  0.02390500  0.86308300  0.69539000  1
  C  C10  1  0.97609500  0.86308300  0.30460900  1
  C  C11  1  0.03547300  0.00270700  0.64637300  1
  C  C12  1  0.96452700  0.00270700  0.35362700  1
  C  C13  1  0.00211600  0.00274200  0.95514700  1
  C  C14  1  0.99788500  0.00274200  0.04485300  1
  C  C15  1  0.01654000  0.72110400  0.63535400  1
  C  C16  1  0.98346000  0.72110400  0.36464500  1
  C  C17  1  0.98346300  0.28432500  0.36468100  1
  C  C18  1  0.01653700  0.28432500  0.63531900  1
  C  C19  1  0.54573400  0.40533300  0.59321900  1
  C  C20  1  0.45426600  0.40533300  0.40678100  1
  C  C21  1  0.56000500  0.43064100  0.40966400  1
  C  C22  1  0.43999500  0.43064100  0.59033500  1
  C  C23  1  0.58865600  0.50207700  0.51029500  1
  C  C24  1  0.41134400  0.50207700  0.48970500  1
  C  C25  1  0.44915200  0.66842600  0.48216400  1
  C  C26  1  0.55084800  0.66842600  0.51783600  1
  C  C27  1  0.30851300  0.50274900  0.47964900  1
  C  C28  1  0.69148700  0.50274900  0.52035100  1
  C  C29  1  0.00052800  0.28809200  0.84940800  1
  C  C30  1  0.99947200  0.28809200  0.15059200  1
  C  C31  1  0.56624900  0.23919600  0.57896100  1
  C  C32  1  0.43375100  0.23919600  0.42103800  1
  C  C33  1  0.58645000  0.53364900  0.32759700  1
  C  C34  1  0.41355000  0.53364900  0.67240300  1
  C  C35  1  0.41580600  0.45372300  0.30953500  1
  C  C36  1  0.58419500  0.45372300  0.69046500  1
  C  C37  1  0.60625900  0.77637100  0.45758500  1
  C  C38  1  0.39374100  0.77637100  0.54241400  1
  N  N1  1  0.22703400  0.50307800  0.47474900  1
  N  N2  1  0.77296600  0.50307800  0.52525100  1
  N  N3  1  0.99239100  0.40517700  0.89164100  1
  N  N4  1  0.00760900  0.40517700  0.10835800  1
  N  N5  1  0.58246300  0.10785600  0.56768700  1
  N  N6  1  0.41753800  0.10785600  0.43231300  1
  N  N7  1  0.60737000  0.61509500  0.26269700  1
  N  N8  1  0.39263000  0.61509500  0.73730300  1
  N  N9  1  0.38542700  0.49196500  0.23269800  1
  N  N10  1  0.61457400  0.49196500  0.76730200  1
  N  N11  1  0.65003500  0.86165800  0.40996000  1
  N  N12  1  0.34996500  0.86165800  0.59003900  1
  O  O1  1  0.09227600  0.67189800  0.59022100  1
  O  O2  1  0.90772400  0.67189800  0.40977800  1
  O  O3  1  0.93187500  0.66602000  0.61575400  1
  O  O4  1  0.06812500  0.66602000  0.38424500  1
  O  O5  1  0.90772900  0.33357100  0.40979000  1
  O  O6  1  0.09227100  0.33357100  0.59021000  1
  O  O7  1  0.06811700  0.33946600  0.38424800  1
  O  O8  1  0.93188300  0.33946600  0.61575200  1
