# generated using pymatgen
data_ZnH20C35N3Cl3O4
_symmetry_space_group_name_H-M   'P 1'
_cell_length_a   10.81082800
_cell_length_b   15.90765200
_cell_length_c   17.15244400
_cell_angle_alpha   89.12261300
_cell_angle_beta   90.00587200
_cell_angle_gamma   92.79447500
_symmetry_Int_Tables_number   1
_chemical_formula_structural   ZnH20C35N3Cl3O4
_chemical_formula_sum   'Zn2 H40 C70 N6 Cl6 O8'
_cell_volume   2945.93584909
_cell_formula_units_Z   2
loop_
 _symmetry_equiv_pos_site_id
 _symmetry_equiv_pos_as_xyz
  1  'x, y, z'
loop_
 _atom_site_type_symbol
 _atom_site_label
 _atom_site_symmetry_multiplicity
 _atom_site_fract_x
 _atom_site_fract_y
 _atom_site_fract_z
 _atom_site_occupancy
  Zn  Zn1  1  0.49069700  0.40322200  0.49311700  1
  Zn  Zn2  1  0.49813400  0.59379600  0.50486900  1
  H  H1  1  0.07260600  0.47034200  0.62879800  1
  H  H2  1  0.91272200  0.52998200  0.37006900  1
  H  H3  1  0.89675900  0.36694000  0.54726700  1
  H  H4  1  0.08982100  0.62927200  0.44795300  1
  H  H5  1  0.42318600  0.39272300  0.24928300  1
  H  H6  1  0.53760500  0.61155100  0.74740700  1
  H  H7  1  0.47710600  0.34627200  0.89369500  1
  H  H8  1  0.54807600  0.65321500  0.10786000  1
  H  H9  1  0.61960800  0.26515000  0.57336000  1
  H  H10  1  0.37028100  0.73205300  0.42391800  1
  H  H11  1  0.61629200  0.11336700  0.56777600  1
  H  H12  1  0.37900700  0.88396900  0.42645000  1
  H  H13  1  0.64867200  0.87527500  0.60927300  1
  H  H14  1  0.35062800  0.12210200  0.38284500  1
  H  H15  1  0.63434600  0.72110800  0.60304900  1
  H  H16  1  0.36032400  0.27627200  0.39174100  1
  H  H17  1  0.12333700  0.16309600  0.40041800  1
  H  H18  1  0.09519100  0.18308300  0.25948800  1
  H  H19  1  0.04133900  0.32116800  0.20708300  1
  H  H20  1  0.01233500  0.43755700  0.29408800  1
  H  H21  1  0.79213000  0.65751900  0.77210600  1
  H  H22  1  0.85810400  0.80402800  0.74103100  1
  H  H23  1  0.97132400  0.83792600  0.61949300  1
  H  H24  1  0.01921700  0.72726300  0.53004100  1
  H  H25  1  0.13338800  0.31206000  0.99919300  1
  H  H26  1  0.24396900  0.18068100  0.00265500  1
  H  H27  1  0.44399500  0.17532400  0.07035400  1
  H  H28  1  0.53471600  0.30152100  0.13303100  1
  H  H29  1  0.49004600  0.83205100  0.92233400  1
  H  H30  1  0.69325900  0.84006200  0.98674300  1
  H  H31  1  0.81862900  0.71526800  0.99332800  1
  H  H32  1  0.74188500  0.58300500  0.93473900  1
  H  H33  1  0.20238800  0.20122000  0.68800700  1
  H  H34  1  0.36163000  0.09631300  0.68257200  1
  H  H35  1  0.57554500  0.13472900  0.72191200  1
  H  H36  1  0.63091400  0.27851100  0.76416100  1
  H  H37  1  0.54576200  0.87271100  0.28933800  1
  H  H38  1  0.75366800  0.86323000  0.34583600  1
  H  H39  1  0.85648200  0.72870700  0.34518600  1
  H  H40  1  0.75211500  0.60406200  0.28733100  1
  C  C1  1  0.49019300  0.48422300  0.65189900  1
  C  C2  1  0.49914200  0.51288900  0.34634700  1
  C  C3  1  0.73664000  0.50268600  0.50137900  1
  C  C4  1  0.25196200  0.49432600  0.49636500  1
  C  C5  1  0.94303900  0.42622000  0.52490300  1
  C  C6  1  0.04452600  0.57073800  0.47253800  1
  C  C7  1  0.03597500  0.48270700  0.56971200  1
  C  C8  1  0.95202500  0.51417700  0.42780400  1
  C  C9  1  0.11366600  0.49373500  0.49645700  1
  C  C10  1  0.87457100  0.50309200  0.50098700  1
  C  C11  1  0.02258700  0.43777900  0.45226100  1
  C  C12  1  0.96530500  0.55877900  0.54535600  1
  C  C13  1  0.49369800  0.47904800  0.73826700  1
  C  C14  1  0.49671500  0.51950800  0.26038800  1
  C  C15  1  0.51923600  0.55282200  0.77865600  1
  C  C16  1  0.45348400  0.45006700  0.21890600  1
  C  C17  1  0.52858100  0.55356400  0.85911700  1
  C  C18  1  0.44158400  0.45327900  0.13874200  1
  C  C19  1  0.51205400  0.47815800  0.90100300  1
  C  C20  1  0.47697100  0.52711900  0.09844200  1
  C  C21  1  0.48996100  0.40469800  0.86102400  1
  C  C22  1  0.51868500  0.59648100  0.13955900  1
  C  C23  1  0.47889100  0.40387000  0.78098800  1
  C  C24  1  0.52998600  0.59371200  0.21968400  1
  C  C25  1  0.43122100  0.76406800  0.46499800  1
  C  C26  1  0.55955200  0.23309800  0.53183500  1
  C  C27  1  0.43722300  0.85087300  0.46659600  1
  C  C28  1  0.55704700  0.14642400  0.52824900  1
  C  C29  1  0.51686000  0.89195700  0.51844600  1
  C  C30  1  0.47941200  0.10537200  0.47528700  1
  C  C31  1  0.58637800  0.84451000  0.56816800  1
  C  C32  1  0.41004700  0.15284100  0.42553300  1
  C  C33  1  0.57813900  0.75791400  0.56474200  1
  C  C34  1  0.41505500  0.23932800  0.43080300  1
  C  C35  1  0.05061600  0.36719900  0.39873600  1
  C  C36  1  0.08473200  0.28954200  0.42764400  1
  C  C37  1  0.09899200  0.22373500  0.37747700  1
  C  C38  1  0.08317900  0.23482400  0.29846100  1
  C  C39  1  0.05298800  0.31211800  0.26919100  1
  C  C40  1  0.03629300  0.37783400  0.31894300  1
  C  C41  1  0.93280600  0.62730000  0.59984400  1
  C  C42  1  0.86812100  0.60875900  0.66838700  1
  C  C43  1  0.84196700  0.67233400  0.71870900  1
  C  C44  1  0.87897100  0.75449600  0.70136600  1
  C  C45  1  0.94235400  0.77342000  0.63332200  1
  C  C46  1  0.96931600  0.71027200  0.58282800  1
  C  C47  1  0.38628500  0.37875500  0.10022200  1
  C  C48  1  0.27275400  0.38128600  0.06306700  1
  C  C49  1  0.22218900  0.31013000  0.02797100  1
  C  C50  1  0.28391300  0.23634600  0.03016000  1
  C  C51  1  0.39590800  0.23332200  0.06817600  1
  C  C52  1  0.44662400  0.30422300  0.10349200  1
  C  C53  1  0.57206400  0.63271100  0.89536600  1
  C  C54  1  0.50169900  0.70309400  0.89173400  1
  C  C55  1  0.54544400  0.77730700  0.92470100  1
  C  C56  1  0.65923700  0.78177800  0.96102600  1
  C  C57  1  0.72936600  0.71181200  0.96484300  1
  C  C58  1  0.68586000  0.63744300  0.93219200  1
  C  C59  1  0.44891300  0.32193100  0.74653200  1
  C  C60  1  0.32816200  0.29955400  0.72665300  1
  C  C61  1  0.29718300  0.21883100  0.70287600  1
  C  C62  1  0.38624200  0.15982300  0.70043100  1
  C  C63  1  0.50612700  0.18137800  0.72238900  1
  C  C64  1  0.53734400  0.26224800  0.74557300  1
  C  C65  1  0.58874600  0.66759600  0.25715300  1
  C  C66  1  0.53142500  0.74349800  0.25713500  1
  C  C67  1  0.59084200  0.81353500  0.28906500  1
  C  C68  1  0.70734400  0.80822500  0.32086100  1
  C  C69  1  0.76482100  0.73280000  0.32066000  1
  C  C70  1  0.70586800  0.66273400  0.28858900  1
  N  N1  1  0.51605000  0.47248800  0.98351600  1
  N  N2  1  0.47313600  0.53405700  0.01613200  1
  N  N3  1  0.50184400  0.71911600  0.51319200  1
  N  N4  1  0.48729300  0.27792400  0.48461000  1
  N  N5  1  0.52928900  0.98078400  0.52203400  1
  N  N6  1  0.46800300  0.01655300  0.47110600  1
  Cl  Cl1  1  0.11130000  0.27125200  0.52718500  1
  Cl  Cl2  1  0.81837900  0.50544600  0.69395600  1
  Cl  Cl3  1  0.18854900  0.47272400  0.06319800  1
  Cl  Cl4  1  0.35424500  0.69842400  0.84898300  1
  Cl  Cl5  1  0.21233900  0.37160600  0.73702400  1
  Cl  Cl6  1  0.38177400  0.75139800  0.21920400  1
  O  O1  1  0.48817600  0.41520300  0.61062200  1
  O  O2  1  0.50025900  0.58175300  0.38749100  1
  O  O3  1  0.49421700  0.55958200  0.61915800  1
  O  O4  1  0.49453800  0.43740700  0.37878600  1
  O  O5  1  0.67576400  0.42968400  0.49664900  1
  O  O6  1  0.31298600  0.56736300  0.50141300  1
  O  O7  1  0.68205300  0.57438100  0.50477000  1
  O  O8  1  0.30677800  0.42265700  0.49308900  1
