# Generated by REPEAT Assigner based on pymatgen
data_DB0-m2_o13_o21_f0_pcu.sym.9_sqe
_audit_creation_date              2022-05-24
_audit_creation_method            REPEAT_Assigner
_cell_length_a                    11.625485
_cell_length_b                    13.001396
_cell_length_c                    14.029642
_cell_angle_alpha                 89.572831
_cell_angle_beta                  90.426698
_cell_angle_gamma                 99.524643
_cell_volume                      2091.213356
_symmetry_space_group_name_H-M    P1
_symmetry_Int_Tables_number       1
loop_
    _symmetry_equiv_pos_site_id
    _symmetry_equiv_pos_as_xyz
    1  x,y,z
loop_
    _atom_site_type_symbol
    _atom_site_label
    _atom_site_fract_x
    _atom_site_fract_y
    _atom_site_fract_z
    _atom_type_partial_charge
    O   O1   0.580940  0.356959  0.486768  -0.597060
    O   O2   0.411836  0.644488  0.510544  -0.592238
    O   O3   0.382262  0.342614  0.500090  -0.449466
    O   O4   0.610517  0.658832  0.497253  -0.448161
    C   C1   0.476319  0.300655  0.491244  0.651649
    C   C2   0.516483  0.700792  0.506247  0.644683
    O   O5   0.603569  0.505680  0.633494  -0.520332
    O   O6   0.389258  0.495718  0.363791  -0.522984
    O   O7   0.403354  0.484054  0.640378  -0.505894
    O   O8   0.589329  0.517359  0.356913  -0.510405
    C   C3   0.505992  0.493072  0.681329  0.739860
    C   C4   0.486758  0.508393  0.315934  0.749244
    Cu  Cu1  0.612650  0.509077  0.494572  0.737511
    Cu  Cu2  0.380129  0.492368  0.502715  0.723019
    C   C5   0.480737  0.514760  0.213848  -0.275800
    C   C6   0.512011  0.487041  0.783424  -0.270586
    C   C7   0.466958  0.528877  0.026125  -0.093029
    C   C8   0.525903  0.473327  0.971155  -0.095060
    C   C9   0.517981  0.481130  0.869050  0.022505
    C   C10  0.474781  0.520925  0.128234  0.024333
    H   H1   0.580024  0.421969  0.003279  0.156804
    H   H2   0.412778  0.580182  0.993987  0.156187
    C   C11  0.528930  0.815432  0.509324  -0.155285
    C   C12  0.463923  0.186022  0.488504  -0.160446
    C   C13  0.346309  0.016447  0.475339  -0.399167
    C   C14  0.646542  0.985007  0.522838  -0.392663
    C   C15  0.356177  0.123682  0.472285  0.389041
    C   C16  0.636682  0.877743  0.525678  0.385733
    C   C17  0.560702  0.138748  0.504029  -0.122088
    C   C18  0.432154  0.862759  0.494026  -0.127229
    C   C19  0.549989  0.031333  0.505992  0.133465
    C   C20  0.442878  0.970163  0.492160  0.145327
    H   H3   0.347596  0.816154  0.481445  0.094201
    H   H4   0.645220  0.185430  0.516644  0.094885
    H   H5   0.261981  0.968706  0.464123  0.188164
    H   H6   0.730865  0.032740  0.534100  0.187180
    N   N1   0.786820  0.521996  0.488558  -0.169598
    N   N2   0.205938  0.479390  0.508419  -0.135649
    C   C21  0.024354  0.387265  0.563518  -0.392458
    C   C22  0.969031  0.617509  0.438208  -0.411268
    C   C23  0.144535  0.401031  0.560753  0.450742
    C   C24  0.848733  0.602621  0.439234  0.476148
    C   C25  0.148254  0.549746  0.464921  0.183318
    C   C26  0.844953  0.454368  0.535646  0.222908
    C   C27  0.028137  0.543385  0.476456  0.078230
    C   C28  0.965246  0.461214  0.524980  0.037927
    H   H7   0.978073  0.318490  0.598249  0.180195
    H   H8   0.015356  0.686610  0.403975  0.180552
    O   O9   0.734736  0.834903  0.543215  -0.343023
    C   C29  0.750144  0.838232  0.642089  0.107123
    H   H9   0.665664  0.839629  0.677838  -0.003901
    H   H10  0.813069  0.908744  0.661726  0.012853
    H   H11  0.784635  0.767731  0.666148  0.027290
    O   O10  0.258161  0.166475  0.454492  -0.343353
    C   C30  0.243007  0.162925  0.355595  0.112343
    H   H12  0.180234  0.092304  0.335984  0.011605
    H   H13  0.327594  0.161557  0.320006  -0.005123
    H   H14  0.208500  0.233339  0.331323  0.026119
    O   O11  0.784853  0.375728  0.590357  -0.119000
    C   C31  0.801125  0.408468  0.685204  -0.120569
    H   H15  0.823951  0.494669  0.688158  0.077137
    H   H16  0.871173  0.372878  0.719696  0.043236
    H   H17  0.719748  0.382661  0.725519  0.103078
    O   O12  0.208074  0.628159  0.409826  -0.105673
    C   C32  0.190879  0.595210  0.315113  -0.130183
    H   H18  0.120995  0.631308  0.280938  0.045158
    H   H19  0.167178  0.509060  0.312360  0.080741
    H   H20  0.272113  0.620290  0.274393  0.104548
    O   O13  0.793560  0.672673  0.391141  -0.249360
    C   C33  0.809244  0.654762  0.294271  -0.028911
    H   H21  0.817530  0.571965  0.282798  0.021804
    H   H22  0.888091  0.706744  0.267873  0.037737
    H   H23  0.732466  0.671956  0.253551  0.082484
    O   O14  0.199730  0.329979  0.607395  -0.246197
    C   C34  0.185388  0.346574  0.704685  -0.020249
    H   H24  0.106811  0.294356  0.731261  0.035133
    H   H25  0.177517  0.429241  0.717405  0.020217
    H   H26  0.262628  0.328604  0.744273  0.079989
