# generated using pymatgen
data_Cu3H29C54O12F7
_symmetry_space_group_name_H-M   'P 1'
_cell_length_a   49.98785700
_cell_length_b   38.56543900
_cell_length_c   31.71996900
_cell_angle_alpha   90.00000000
_cell_angle_beta   129.85453700
_cell_angle_gamma   90.00000000
_symmetry_Int_Tables_number   1
_chemical_formula_structural   Cu3H29C54O12F7
_chemical_formula_sum   'Cu12 H116 C216 O48 F28'
_cell_volume   46943.15994266
_cell_formula_units_Z   4
loop_
 _symmetry_equiv_pos_site_id
 _symmetry_equiv_pos_as_xyz
  1  'x, y, z'
loop_
 _atom_site_type_symbol
 _atom_site_label
 _atom_site_symmetry_multiplicity
 _atom_site_fract_x
 _atom_site_fract_y
 _atom_site_fract_z
 _atom_site_occupancy
  Cu  Cu1  1  0.00000000  0.03413100  0.50000000  1
  Cu  Cu2  1  0.50000000  0.53413100  0.50000000  1
  Cu  Cu3  1  0.00000000  0.96645600  0.50000000  1
  Cu  Cu4  1  0.50000000  0.46645600  0.50000000  1
  Cu  Cu5  1  0.03406100  0.00009100  0.03451900  1
  Cu  Cu6  1  0.96593900  0.00009100  0.96548100  1
  Cu  Cu7  1  0.53406100  0.50009100  0.03451900  1
  Cu  Cu8  1  0.46593900  0.50009100  0.96548100  1
  Cu  Cu9  1  0.49984900  0.00008400  0.95869100  1
  Cu  Cu10  1  0.50015100  0.00008400  0.04130900  1
  Cu  Cu11  1  0.99984900  0.50008400  0.95869100  1
  Cu  Cu12  1  0.00015100  0.50008400  0.04130900  1
  H  H1  1  0.04796100  0.02779200  0.33055600  1
  H  H2  1  0.95203900  0.02779200  0.66944400  1
  H  H3  1  0.54796100  0.52779200  0.33055600  1
  H  H4  1  0.45203900  0.52779200  0.66944400  1
  H  H5  1  0.99964600  0.94466400  0.28261300  1
  H  H6  1  0.00035400  0.94466400  0.71738700  1
  H  H7  1  0.49964600  0.44466400  0.28261300  1
  H  H8  1  0.50035400  0.44466400  0.71738700  1
  H  H9  1  0.04230800  0.96396400  0.33086900  1
  H  H10  1  0.95769200  0.96396400  0.66913100  1
  H  H11  1  0.54230800  0.46396400  0.33086900  1
  H  H12  1  0.45769200  0.46396400  0.66913100  1
  H  H13  1  0.95108000  0.02808200  0.23287500  1
  H  H14  1  0.04892100  0.02808100  0.76712500  1
  H  H15  1  0.45108000  0.52808200  0.23287500  1
  H  H16  1  0.54892100  0.52808100  0.76712500  1
  H  H17  1  0.94630800  0.98174100  0.23390000  1
  H  H18  1  0.05369200  0.98174100  0.76610000  1
  H  H19  1  0.44630800  0.48174100  0.23390000  1
  H  H20  1  0.55369200  0.48174100  0.76610000  1
  H  H21  1  0.01019700  0.05526800  0.29872900  1
  H  H22  1  0.98980400  0.05526800  0.70127100  1
  H  H23  1  0.51019700  0.55526800  0.29872900  1
  H  H24  1  0.48980400  0.55526800  0.70127100  1
  H  H25  1  0.99943700  0.05579900  0.21786400  1
  H  H26  1  0.00056300  0.05579900  0.78213700  1
  H  H27  1  0.49943700  0.55579900  0.21786400  1
  H  H28  1  0.50056300  0.55579900  0.78213700  1
  H  H29  1  0.95050300  0.97309500  0.16778800  1
  H  H30  1  0.04949700  0.97309500  0.83221200  1
  H  H31  1  0.45050300  0.47309500  0.16778800  1
  H  H32  1  0.54949700  0.47309500  0.83221200  1
  H  H33  1  0.32870100  0.95824100  0.87230600  1
  H  H34  1  0.67129900  0.95824100  0.12769500  1
  H  H35  1  0.82870100  0.45824100  0.87230600  1
  H  H36  1  0.17129900  0.45824100  0.12769500  1
  H  H37  1  0.32827900  0.04165400  0.78297100  1
  H  H38  1  0.67172100  0.04165400  0.21703000  1
  H  H39  1  0.82827900  0.54165400  0.78297100  1
  H  H40  1  0.17172100  0.54165400  0.21703000  1
  H  H41  1  0.28099500  0.00840200  0.71316300  1
  H  H42  1  0.71900600  0.00840200  0.28683800  1
  H  H43  1  0.78099500  0.50840200  0.71316300  1
  H  H44  1  0.21900600  0.50840200  0.28683800  1
  H  H45  1  0.21807200  0.99032200  0.78272400  1
  H  H46  1  0.78192800  0.99032200  0.21727600  1
  H  H47  1  0.71807200  0.49032200  0.78272400  1
  H  H48  1  0.28192800  0.49032200  0.21727600  1
  H  H49  1  0.28126200  0.99099000  0.84673300  1
  H  H50  1  0.71873800  0.99099000  0.15326700  1
  H  H51  1  0.78126200  0.49099000  0.84673300  1
  H  H52  1  0.21873800  0.49099000  0.15326700  1
  H  H53  1  0.17205700  0.95171200  0.70357100  1
  H  H54  1  0.82794400  0.95171200  0.29642900  1
  H  H55  1  0.67205700  0.45171200  0.70357100  1
  H  H56  1  0.32794400  0.45171200  0.29642900  1
  H  H57  1  0.10879200  0.95171600  0.64124000  1
  H  H58  1  0.89120800  0.95171700  0.35876000  1
  H  H59  1  0.60879200  0.45171600  0.64124000  1
  H  H60  1  0.39120800  0.45171700  0.35876000  1
  H  H61  1  0.10806500  0.04886900  0.57505600  1
  H  H62  1  0.89193500  0.04886900  0.42494500  1
  H  H63  1  0.60806500  0.54886900  0.57505600  1
  H  H64  1  0.39193500  0.54886900  0.42494500  1
  H  H65  1  0.17130000  0.04859600  0.63776800  1
  H  H66  1  0.82870000  0.04859600  0.36223200  1
  H  H67  1  0.67130000  0.54859600  0.63776800  1
  H  H68  1  0.32870000  0.54859600  0.36223200  1
  H  H69  1  0.49143100  0.89179800  0.92471600  1
  H  H70  1  0.50856900  0.89179800  0.07528400  1
  H  H71  1  0.99143100  0.39179800  0.92471600  1
  H  H72  1  0.00856900  0.39179800  0.07528400  1
  H  H73  1  0.49227800  0.82916900  0.92537800  1
  H  H74  1  0.50772200  0.82916900  0.07462200  1
  H  H75  1  0.99227800  0.32916900  0.92537800  1
  H  H76  1  0.00772200  0.32916900  0.07462200  1
  H  H77  1  0.54014300  0.78138600  0.08735500  1
  H  H78  1  0.45985700  0.78138600  0.91264500  1
  H  H79  1  0.04014300  0.28138600  0.08735500  1
  H  H80  1  0.95985700  0.28138600  0.91264500  1
  H  H81  1  0.03905400  0.21887500  0.08758500  1
  H  H82  1  0.96094600  0.21887500  0.91241600  1
  H  H83  1  0.53905400  0.71887500  0.08758500  1
  H  H84  1  0.46094600  0.71887500  0.91241600  1
  H  H85  1  0.94469800  0.17109100  0.93540300  1
  H  H86  1  0.05530200  0.17109100  0.06459700  1
  H  H87  1  0.44469800  0.67109100  0.93540300  1
  H  H88  1  0.55530200  0.67109100  0.06459700  1
  H  H89  1  0.94485000  0.10846200  0.93452700  1
  H  H90  1  0.05515000  0.10846200  0.06547300  1
  H  H91  1  0.44485000  0.60846200  0.93452700  1
  H  H92  1  0.55515000  0.60846200  0.06547300  1
  H  H93  1  0.49161000  0.10838000  0.05819100  1
  H  H94  1  0.50839000  0.10838000  0.94180900  1
  H  H95  1  0.99161000  0.60838000  0.05819100  1
  H  H96  1  0.00839000  0.60838000  0.94180900  1
  H  H97  1  0.49244600  0.17101000  0.05922000  1
  H  H98  1  0.50755400  0.17101000  0.94078000  1
  H  H99  1  0.99244600  0.67101000  0.05922000  1
  H  H100  1  0.00755400  0.67101000  0.94078000  1
  H  H101  1  0.54007200  0.21878600  0.99357000  1
  H  H102  1  0.45992800  0.21878600  0.00643000  1
  H  H103  1  0.04007200  0.71878600  0.99357000  1
  H  H104  1  0.95992800  0.71878600  0.00643000  1
  H  H105  1  0.03899400  0.78130500  0.99117000  1
  H  H106  1  0.96100600  0.78130400  0.00883000  1
  H  H107  1  0.53899400  0.28130500  0.99117000  1
  H  H108  1  0.46100600  0.28130400  0.00883000  1
  H  H109  1  0.94470100  0.82908000  0.95291000  1
  H  H110  1  0.05529900  0.82908000  0.04709000  1
  H  H111  1  0.44470100  0.32908000  0.95291000  1
  H  H112  1  0.55529900  0.32908000  0.04709000  1
  H  H113  1  0.94484800  0.89171000  0.95407400  1
  H  H114  1  0.05515200  0.89171000  0.04592600  1
  H  H115  1  0.44484800  0.39171000  0.95407400  1
  H  H116  1  0.55515200  0.39171000  0.04592600  1
  C  C1  1  0.06593700  0.00029200  0.56589300  1
  C  C2  1  0.93406300  0.00029200  0.43410700  1
  C  C3  1  0.56593700  0.50029200  0.56589300  1
  C  C4  1  0.43406300  0.50029200  0.43410700  1
  C  C5  1  0.99952000  0.00030600  0.41956700  1
  C  C6  1  0.00048000  0.00030600  0.58043300  1
  C  C7  1  0.49952000  0.50030600  0.41956700  1
  C  C8  1  0.50048000  0.50030600  0.58043300  1
  C  C9  1  0.02007300  0.03105200  0.29413300  1
  C  C10  1  0.97992700  0.03105200  0.70586800  1
  C  C11  1  0.52007300  0.53105200  0.29413300  1
  C  C12  1  0.47992700  0.53105200  0.70586800  1
  C  C13  1  0.01607300  0.96714300  0.29024300  1
  C  C14  1  0.98392700  0.96714300  0.70975700  1
  C  C15  1  0.51607300  0.46714300  0.29024300  1
  C  C16  1  0.48392700  0.46714300  0.70975700  1
  C  C17  1  0.01931600  0.96876300  0.24588300  1
  C  C18  1  0.98068400  0.96876300  0.75411700  1
  C  C19  1  0.51931600  0.46876300  0.24588300  1
  C  C20  1  0.48068400  0.46876300  0.75411700  1
  C  C21  1  0.99966600  0.00013900  0.12515000  1
  C  C22  1  0.00033400  0.00013900  0.87485000  1
  C  C23  1  0.49966600  0.50013900  0.12515000  1
  C  C24  1  0.50033400  0.50013900  0.87485000  1
  C  C25  1  0.99944700  0.00027900  0.28952200  1
  C  C26  1  0.00055300  0.00027900  0.71047800  1
  C  C27  1  0.49944700  0.50027900  0.28952200  1
  C  C28  1  0.50055300  0.50027900  0.71047800  1
  C  C29  1  0.01619700  0.03331400  0.24271300  1
  C  C30  1  0.98380400  0.03331400  0.75728700  1
  C  C31  1  0.51619700  0.53331400  0.24271300  1
  C  C32  1  0.48380400  0.53331400  0.75728700  1
  C  C33  1  0.99948400  0.00017300  0.20946800  1
  C  C34  1  0.00051600  0.00017300  0.79053200  1
  C  C35  1  0.49948400  0.50017300  0.20946800  1
  C  C36  1  0.50051600  0.50017300  0.79053200  1
  C  C37  1  0.96226600  0.99842300  0.18805700  1
  C  C38  1  0.03773400  0.99842200  0.81194300  1
  C  C39  1  0.46226600  0.49842300  0.18805700  1
  C  C40  1  0.53773400  0.49842200  0.81194300  1
  C  C41  1  0.96233700  0.00254200  0.23572300  1
  C  C42  1  0.03766300  0.00254200  0.76427700  1
  C  C43  1  0.46233700  0.50254200  0.23572300  1
  C  C44  1  0.53766300  0.50254200  0.76427700  1
  C  C45  1  0.99957600  0.00016000  0.16319000  1
  C  C46  1  0.00042400  0.00016000  0.83681000  1
  C  C47  1  0.49957600  0.50016000  0.16319000  1
  C  C48  1  0.50042400  0.50016000  0.83681000  1
  C  C49  1  0.99939000  0.00034200  0.33583100  1
  C  C50  1  0.00061000  0.00034200  0.66416900  1
  C  C51  1  0.49939000  0.50034200  0.33583100  1
  C  C52  1  0.50061000  0.50034200  0.66416900  1
  C  C53  1  0.99940600  0.00035200  0.37397500  1
  C  C54  1  0.00059400  0.00035200  0.62602500  1
  C  C55  1  0.49940600  0.50035200  0.37397500  1
  C  C56  1  0.50059400  0.50035200  0.62602500  1
  C  C57  1  0.37798500  0.97727800  0.90296900  1
  C  C58  1  0.62201500  0.97727800  0.09703100  1
  C  C59  1  0.87798500  0.47727800  0.90296900  1
  C  C60  1  0.12201500  0.47727800  0.09703100  1
  C  C61  1  0.34215100  0.97711000  0.86668900  1
  C  C62  1  0.65784900  0.97711000  0.13331100  1
  C  C63  1  0.84215100  0.47711000  0.86668900  1
  C  C64  1  0.15784900  0.47711000  0.13331100  1
  C  C65  1  0.32389700  0.99994000  0.82302000  1
  C  C66  1  0.67610300  0.99994000  0.17698000  1
  C  C67  1  0.82389700  0.49994000  0.82302000  1
  C  C68  1  0.17610300  0.49994000  0.17698000  1
  C  C69  1  0.34191800  0.02285000  0.81584700  1
  C  C70  1  0.65808200  0.02285000  0.18415300  1
  C  C71  1  0.84191800  0.52285000  0.81584700  1
  C  C72  1  0.15808200  0.52285000  0.18415300  1
  C  C73  1  0.37775100  0.02282900  0.85165400  1
  C  C74  1  0.62224900  0.02282900  0.14834600  1
  C  C75  1  0.87775100  0.52282900  0.85165400  1
  C  C76  1  0.12224900  0.52282900  0.14834600  1
  C  C77  1  0.39599000  0.00008800  0.89553600  1
  C  C78  1  0.60401000  0.00008800  0.10446400  1
  C  C79  1  0.89599000  0.50008800  0.89553600  1
  C  C80  1  0.10401000  0.50008800  0.10446400  1
  C  C81  1  0.26751800  0.00518200  0.72919400  1
  C  C82  1  0.73248200  0.00518200  0.27080600  1
  C  C83  1  0.76751800  0.50518200  0.72919400  1
  C  C84  1  0.23248200  0.50518200  0.27080600  1
  C  C85  1  0.23168300  0.00535600  0.69312100  1
  C  C86  1  0.76831800  0.00535600  0.30687900  1
  C  C87  1  0.73168300  0.50535600  0.69312100  1
  C  C88  1  0.26831800  0.50535600  0.30687900  1
  C  C89  1  0.21376500  0.99987400  0.71215500  1
  C  C90  1  0.78623500  0.99987400  0.28784500  1
  C  C91  1  0.71376500  0.49987400  0.71215500  1
  C  C92  1  0.28623500  0.49987400  0.28784500  1
  C  C93  1  0.23186300  0.99413900  0.76730600  1
  C  C94  1  0.76813800  0.99413900  0.23269400  1
  C  C95  1  0.73186300  0.49413900  0.76730600  1
  C  C96  1  0.26813800  0.49413900  0.23269400  1
  C  C97  1  0.26768700  0.99436400  0.80347200  1
  C  C98  1  0.73231300  0.99436400  0.19652800  1
  C  C99  1  0.76768700  0.49436400  0.80347200  1
  C  C100  1  0.23231300  0.49436400  0.19652800  1
  C  C101  1  0.28574200  0.99986000  0.78461400  1
  C  C102  1  0.71425800  0.99986000  0.21538600  1
  C  C103  1  0.78574200  0.49986000  0.78461400  1
  C  C104  1  0.21425800  0.49986000  0.21538600  1
  C  C105  1  0.15802200  0.97315300  0.67549500  1
  C  C106  1  0.84197800  0.97315300  0.32450600  1
  C  C107  1  0.65802200  0.47315300  0.67549500  1
  C  C108  1  0.34197800  0.47315300  0.32450600  1
  C  C109  1  0.12218800  0.97309800  0.63988600  1
  C  C110  1  0.87781200  0.97309800  0.36011500  1
  C  C111  1  0.62218800  0.47309800  0.63988600  1
  C  C112  1  0.37781200  0.47309800  0.36011500  1
  C  C113  1  0.10394300  0.00024400  0.60359400  1
  C  C114  1  0.89605700  0.00024400  0.39640600  1
  C  C115  1  0.60394300  0.50024400  0.60359400  1
  C  C116  1  0.39605700  0.50024400  0.39640600  1
  C  C117  1  0.12177900  0.02734500  0.60304500  1
  C  C118  1  0.87822100  0.02734500  0.39695500  1
  C  C119  1  0.62177900  0.52734500  0.60304500  1
  C  C120  1  0.37822100  0.52734500  0.39695500  1
  C  C121  1  0.15759800  0.02708000  0.63813600  1
  C  C122  1  0.84240200  0.02708000  0.36186400  1
  C  C123  1  0.65759800  0.52708000  0.63813600  1
  C  C124  1  0.34240200  0.52708000  0.36186400  1
  C  C125  1  0.17578800  0.99995500  0.67432900  1
  C  C126  1  0.82421200  0.99995500  0.32567100  1
  C  C127  1  0.67578800  0.49995500  0.67432900  1
  C  C128  1  0.32421200  0.49995500  0.32567100  1
  C  C129  1  0.00000000  0.06587700  0.00000000  1
  C  C130  1  0.50000000  0.56587700  0.00000000  1
  C  C131  1  0.99978300  0.00011300  0.07979300  1
  C  C132  1  0.00021700  0.00011300  0.92020700  1
  C  C133  1  0.49978300  0.50011300  0.07979300  1
  C  C134  1  0.50021700  0.50011300  0.92020700  1
  C  C135  1  0.00000000  0.93430400  0.00000000  1
  C  C136  1  0.50000000  0.43430400  0.00000000  1
  C  C137  1  0.50000000  0.93437500  0.00000000  1
  C  C138  1  0.00000000  0.43437500  0.00000000  1
  C  C139  1  0.43405400  0.00013400  0.93377900  1
  C  C140  1  0.56594600  0.00013400  0.06622100  1
  C  C141  1  0.93405400  0.50013400  0.93377900  1
  C  C142  1  0.06594600  0.50013400  0.06622100  1
  C  C143  1  0.50000000  0.06579400  0.00000000  1
  C  C144  1  0.00000000  0.56579400  0.00000000  1
  C  C145  1  0.49501600  0.87830500  0.95786900  1
  C  C146  1  0.50498400  0.87830500  0.04213100  1
  C  C147  1  0.99501600  0.37830500  0.95786900  1
  C  C148  1  0.00498400  0.37830500  0.04213100  1
  C  C149  1  0.49519800  0.84256800  0.95801900  1
  C  C150  1  0.50480200  0.84256800  0.04198100  1
  C  C151  1  0.99519800  0.34256800  0.95801900  1
  C  C152  1  0.00480200  0.34256800  0.04198100  1
  C  C153  1  0.50000000  0.82437000  0.00000000  1
  C  C154  1  0.00000000  0.32437000  0.00000000  1
  C  C155  1  0.50000000  0.89638400  0.00000000  1
  C  C156  1  0.00000000  0.39638400  0.00000000  1
  C  C157  1  0.52208600  0.76799700  0.04869200  1
  C  C158  1  0.47791400  0.76799700  0.95130800  1
  C  C159  1  0.02208600  0.26799700  0.04869200  1
  C  C160  1  0.97791400  0.26799700  0.95130800  1
  C  C161  1  0.02200800  0.23226300  0.04870900  1
  C  C162  1  0.97799200  0.23226300  0.95129200  1
  C  C163  1  0.52200800  0.73226300  0.04870900  1
  C  C164  1  0.47799200  0.73226300  0.95129200  1
  C  C165  1  0.00000000  0.21405700  0.00000000  1
  C  C166  1  0.50000000  0.71405700  0.00000000  1
  C  C167  1  0.50000000  0.78620300  0.00000000  1
  C  C168  1  0.00000000  0.28620300  0.00000000  1
  C  C169  1  0.96926600  0.15769200  0.96348400  1
  C  C170  1  0.03073400  0.15769200  0.03651600  1
  C  C171  1  0.46926600  0.65769200  0.96348400  1
  C  C172  1  0.53073400  0.65769200  0.03651600  1
  C  C173  1  0.96929200  0.12195500  0.96329100  1
  C  C174  1  0.03070800  0.12195500  0.03671000  1
  C  C175  1  0.46929200  0.62195500  0.96329100  1
  C  C176  1  0.53070800  0.62195500  0.03671000  1
  C  C177  1  0.00000000  0.10387300  0.00000000  1
  C  C178  1  0.50000000  0.60387300  0.00000000  1
  C  C179  1  0.00000000  0.17589100  0.00000000  1
  C  C180  1  0.50000000  0.67589100  0.00000000  1
  C  C181  1  0.49511900  0.12187000  0.03218900  1
  C  C182  1  0.50488100  0.12187000  0.96781100  1
  C  C183  1  0.99511900  0.62187000  0.03218900  1
  C  C184  1  0.00488100  0.62187000  0.96781100  1
  C  C185  1  0.49529400  0.15760800  0.03239600  1
  C  C186  1  0.50470600  0.15760800  0.96760400  1
  C  C187  1  0.99529400  0.65760800  0.03239600  1
  C  C188  1  0.00470600  0.65760800  0.96760400  1
  C  C189  1  0.50000000  0.17580600  0.00000000  1
  C  C190  1  0.00000000  0.67580600  0.00000000  1
  C  C191  1  0.50000000  0.10378900  0.00000000  1
  C  C192  1  0.00000000  0.60378900  0.00000000  1
  C  C193  1  0.52204800  0.23217800  0.99583400  1
  C  C194  1  0.47795200  0.23217800  0.00416600  1
  C  C195  1  0.02204800  0.73217800  0.99583400  1
  C  C196  1  0.97795200  0.73217800  0.00416600  1
  C  C197  1  0.02197500  0.76791200  0.99567000  1
  C  C198  1  0.97802500  0.76791200  0.00433000  1
  C  C199  1  0.52197500  0.26791200  0.99567000  1
  C  C200  1  0.47802500  0.26791200  0.00433000  1
  C  C201  1  0.00000000  0.78611800  0.00000000  1
  C  C202  1  0.50000000  0.28611800  0.00000000  1
  C  C203  1  0.50000000  0.21397200  0.00000000  1
  C  C204  1  0.00000000  0.71397200  0.00000000  1
  C  C205  1  0.96926700  0.84248200  0.97444300  1
  C  C206  1  0.03073300  0.84248200  0.02555700  1
  C  C207  1  0.46926700  0.34248200  0.97444300  1
  C  C208  1  0.53073300  0.34248200  0.02555700  1
  C  C209  1  0.96929100  0.87822100  0.97467700  1
  C  C210  1  0.03070900  0.87822100  0.02532300  1
  C  C211  1  0.46929100  0.37822100  0.97467700  1
  C  C212  1  0.53070900  0.37822100  0.02532300  1
  C  C213  1  0.00000000  0.89630500  0.00000000  1
  C  C214  1  0.50000000  0.39630500  0.00000000  1
  C  C215  1  0.00000000  0.82428500  0.00000000  1
  C  C216  1  0.50000000  0.32428500  0.00000000  1
  O  O1  1  0.04956500  0.02883500  0.53770600  1
  O  O2  1  0.95043500  0.02883500  0.46229500  1
  O  O3  1  0.54956500  0.52883500  0.53770600  1
  O  O4  1  0.45043500  0.52883500  0.46229500  1
  O  O5  1  0.04975400  0.97175300  0.56161500  1
  O  O6  1  0.95024600  0.97175300  0.43838600  1
  O  O7  1  0.54975400  0.47175300  0.56161500  1
  O  O8  1  0.45024600  0.47175300  0.43838600  1
  O  O9  1  0.98982700  0.02885500  0.42969500  1
  O  O10  1  0.01017300  0.02885500  0.57030500  1
  O  O11  1  0.48982700  0.52885500  0.42969500  1
  O  O12  1  0.51017300  0.52885500  0.57030500  1
  O  O13  1  0.00941600  0.97173600  0.44927000  1
  O  O14  1  0.99058400  0.97173600  0.55073000  1
  O  O15  1  0.50941600  0.47173600  0.44927000  1
  O  O16  1  0.49058400  0.47173600  0.55073000  1
  O  O17  1  0.02874900  0.04958600  0.04054300  1
  O  O18  1  0.97125100  0.04958600  0.95945700  1
  O  O19  1  0.52874900  0.54958600  0.04054300  1
  O  O20  1  0.47125100  0.54958600  0.95945700  1
  O  O21  1  0.02862100  0.99071700  0.08921600  1
  O  O22  1  0.97137900  0.99071700  0.91078400  1
  O  O23  1  0.52862100  0.49071700  0.08921600  1
  O  O24  1  0.47137900  0.49071700  0.91078400  1
  O  O25  1  0.97104300  0.00947200  0.03083500  1
  O  O26  1  0.02895700  0.00947200  0.96916500  1
  O  O27  1  0.47104300  0.50947200  0.03083500  1
  O  O28  1  0.52895700  0.50947200  0.96916500  1
  O  O29  1  0.02880200  0.95059700  0.01777900  1
  O  O30  1  0.97119800  0.95059700  0.98222100  1
  O  O31  1  0.52880200  0.45059700  0.01777900  1
  O  O32  1  0.47119800  0.45059700  0.98222100  1
  O  O33  1  0.49010800  0.95065900  0.95534800  1
  O  O34  1  0.50989200  0.95065900  0.04465200  1
  O  O35  1  0.99010800  0.45065900  0.95534800  1
  O  O36  1  0.00989200  0.45065900  0.04465200  1
  O  O37  1  0.45022700  0.00983000  0.91531400  1
  O  O38  1  0.54977300  0.00983000  0.08468600  1
  O  O39  1  0.95022700  0.50983000  0.91531400  1
  O  O40  1  0.04977300  0.50983000  0.08468600  1
  O  O41  1  0.45050100  0.99037600  0.98497300  1
  O  O42  1  0.54949900  0.99037600  0.01502800  1
  O  O43  1  0.95050100  0.49037600  0.98497300  1
  O  O44  1  0.04949900  0.49037600  0.01502800  1
  O  O45  1  0.50963800  0.04951000  0.97496000  1
  O  O46  1  0.49036200  0.04951000  0.02504100  1
  O  O47  1  0.00963800  0.54951000  0.97496000  1
  O  O48  1  0.99036200  0.54951000  0.02504100  1
  F  F1  1  0.04848400  0.03829000  0.25697500  1
  F  F2  1  0.95151600  0.03829100  0.74302500  1
  F  F3  1  0.54848400  0.53829000  0.25697500  1
  F  F4  1  0.45151600  0.53829100  0.74302500  1
  F  F5  1  0.39510300  0.95384700  0.94445400  1
  F  F6  1  0.60489700  0.95384800  0.05554700  1
  F  F7  1  0.89510300  0.45384700  0.94445400  1
  F  F8  1  0.10489700  0.45384800  0.05554700  1
  F  F9  1  0.39464300  0.04631500  0.84436400  1
  F  F10  1  0.60535700  0.04631500  0.15563600  1
  F  F11  1  0.89464300  0.54631500  0.84436400  1
  F  F12  1  0.10535700  0.54631500  0.15563600  1
  F  F13  1  0.21433200  0.00943100  0.63871100  1
  F  F14  1  0.78566800  0.00943100  0.36128900  1
  F  F15  1  0.71433200  0.50943100  0.63871100  1
  F  F16  1  0.28566800  0.50943100  0.36128900  1
  F  F17  1  0.05409000  0.97102300  0.26999900  1
  F  F18  1  0.94591000  0.97102300  0.73000100  1
  F  F19  1  0.55409000  0.47102300  0.26999900  1
  F  F20  1  0.44591000  0.47102300  0.73000100  1
  F  F21  1  0.00556100  0.93884900  0.21469200  1
  F  F22  1  0.99443900  0.93884900  0.78530800  1
  F  F23  1  0.50556100  0.43884900  0.21469200  1
  F  F24  1  0.49443900  0.43884900  0.78530800  1
  F  F25  1  0.94256600  0.02454300  0.15020400  1
  F  F26  1  0.05743400  0.02454200  0.84979600  1
  F  F27  1  0.44256600  0.52454300  0.15020400  1
  F  F28  1  0.55743400  0.52454200  0.84979600  1
