# Generated by REPEAT Assigner based on pymatgen
data_DB0-m2_o14_o23_f0_pcu.sym.9_sqe
_audit_creation_date              2022-05-24
_audit_creation_method            REPEAT_Assigner
_cell_length_a                    15.870055
_cell_length_b                    10.897925
_cell_length_c                    9.467710
_cell_angle_alpha                 89.986464
_cell_angle_beta                  89.982351
_cell_angle_gamma                 89.999223
_cell_volume                      1637.446722
_symmetry_space_group_name_H-M    P1
_symmetry_Int_Tables_number       1
loop_
    _symmetry_equiv_pos_site_id
    _symmetry_equiv_pos_as_xyz
    1  x,y,z
loop_
    _atom_site_type_symbol
    _atom_site_label
    _atom_site_fract_x
    _atom_site_fract_y
    _atom_site_fract_z
    _atom_type_partial_charge
    O   O1   0.497800  0.315140  0.615491  -0.461321
    O   O2   0.500116  0.316889  0.371829  -0.541092
    C   C1   0.505045  0.258320  0.493833  0.679399
    O   O3   0.375998  0.486208  0.622502  -0.595433
    O   O4   0.374195  0.482489  0.378060  -0.503483
    C   C2   0.335978  0.485328  0.501037  0.754017
    Cu  Cu1  0.498655  0.493044  0.637674  0.791472
    Cu  Cu2  0.496133  0.495728  0.355114  0.755326
    O   O5   0.493484  0.671033  0.618709  -0.429955
    O   O6   0.486270  0.673504  0.379525  -0.569513
    O   O7   0.620829  0.490749  0.612944  -0.640912
    O   O8   0.618762  0.499664  0.372422  -0.581829
    C   C3   0.488111  0.731305  0.501004  0.580846
    C   C4   0.659242  0.498862  0.491932  0.811351
    C   C5   0.042084  0.402528  0.609894  -0.050741
    C   C6   0.047806  0.446451  0.351805  -0.467256
    C   C7   0.952719  0.429153  0.355745  0.798496
    H   H1   0.916354  0.323366  0.618952  0.057445
    H   H2   0.059268  0.306238  0.585263  0.000947
    H   H3   0.069316  0.511768  0.270026  0.089533
    H   H4   0.077037  0.356539  0.327099  0.078797
    C   C8   0.749651  0.497186  0.490167  -0.172903
    C   C9   0.077509  0.487379  0.496608  0.606850
    C   C10  0.946759  0.414969  0.616239  -0.181438
    C   C11  0.917792  0.491730  0.490916  0.417113
    C   C12  0.952330  0.620364  0.520796  -0.051727
    C   C13  0.047635  0.617358  0.522681  -0.128668
    C   C14  0.825573  0.494838  0.489892  -0.318753
    C   C15  0.169643  0.484519  0.500685  -0.281316
    C   C16  0.245565  0.483787  0.502144  -0.216419
    H   H5   0.070485  0.649106  0.627150  0.020377
    H   H6   0.072740  0.679200  0.439709  0.021677
    H   H7   0.930684  0.649796  0.626832  0.014236
    H   H8   0.069133  0.427257  0.714061  0.008734
    H   H9   0.929328  0.461175  0.716360  0.044873
    H   H10  0.929108  0.692512  0.449151  0.006198
    H   H11  0.478754  0.104394  0.276287  0.079766
    C   C17  0.561319  0.111569  0.737793  -0.312706
    H   H12  0.596087  0.196299  0.729926  0.155913
    C   C18  0.559199  0.055660  0.867636  -0.002417
    H   H13  0.586979  0.100152  0.958414  0.072741
    C   C19  0.517500  0.946610  0.882728  -0.158593
    H   H14  0.509665  0.906473  0.986304  0.138981
    C   C20  0.488327  0.886009  0.765225  -0.124835
    H   H15  0.452664  0.803966  0.785022  0.079991
    C   C21  0.499112  0.935236  0.630343  0.101461
    C   C22  0.522990  0.057523  0.621068  0.242366
    C   C23  0.509037  0.122415  0.495918  -0.261589
    C   C24  0.488707  0.057445  0.375421  -0.000345
    H   H16  0.471449  0.882938  0.280921  0.103857
    C   C25  0.482383  0.931155  0.378902  -0.113909
    C   C26  0.486320  0.867798  0.505519  -0.126316
    C   C27  0.600223  0.662492  0.139797  -0.086335
    H   H17  0.602863  0.674382  0.250497  0.141795
    C   C28  0.653517  0.739621  0.068999  -0.136700
    H   H18  0.692662  0.803406  0.126758  0.092846
    C   C29  0.656739  0.736001  0.926021  -0.004123
    H   H19  0.698545  0.796692  0.869015  0.080382
    C   C30  0.606534  0.655321  0.854413  -0.240511
    H   H20  0.614091  0.660400  0.743520  0.146824
    C   C31  0.551536  0.574733  0.923174  0.271822
    C   C32  0.548381  0.577841  0.070391  0.039588
    N   N1   0.495553  0.501210  0.142994  -0.114524
    C   C33  0.447834  0.421125  0.068279  0.317214
    H   H21  0.413423  0.352813  0.864452  0.158291
    C   C34  0.451855  0.417796  0.921682  -0.109117
    N   N2   0.503154  0.493578  0.849463  -0.131623
    O   O9   0.396274  0.339851  0.136774  -0.200636
    C   C35  0.314191  0.379804  0.109292  -0.121449
    H   H22  0.289453  0.333743  0.013448  0.049909
    H   H23  0.313495  0.480785  0.094514  0.059922
    H   H24  0.273070  0.356025  0.199982  0.135599
    O   O10  0.941150  0.301790  0.372811  -0.404243
    C   C36  0.877614  0.259366  0.281987  -0.014156
    H   H25  0.900086  0.254798  0.170877  0.025733
    H   H26  0.817890  0.311215  0.294554  0.040095
    H   H27  0.862638  0.163558  0.312488  0.055383
    O   O11  0.914422  0.464652  0.226565  -0.381969
    C   C37  0.909951  0.591915  0.206081  -0.033423
    H   H28  0.968769  0.640264  0.233549  0.026504
    H   H29  0.853980  0.630812  0.259712  0.046271
    H   H30  0.900420  0.608686  0.091660  0.071338
