# Generated by REPEAT Assigner based on pymatgen
data_DB0-m3_o153_o156_f0_fsc.sym.72
_audit_creation_date              2022-05-24
_audit_creation_method            REPEAT_Assigner
_cell_length_a                    8.522713
_cell_length_b                    13.048141
_cell_length_c                    17.482450
_cell_angle_alpha                 90.610699
_cell_angle_beta                  93.315331
_cell_angle_gamma                 86.466942
_cell_volume                      1937.154088
_symmetry_space_group_name_H-M    P1
_symmetry_Int_Tables_number       1
loop_
    _symmetry_equiv_pos_site_id
    _symmetry_equiv_pos_as_xyz
    1  x,y,z
loop_
    _atom_site_type_symbol
    _atom_site_label
    _atom_site_fract_x
    _atom_site_fract_y
    _atom_site_fract_z
    _atom_type_partial_charge
    C   C1   0.051378  0.863186  0.004095  0.239886
    C   C2   0.919274  0.805675  0.005808  0.108533
    C   C3   0.770054  0.853846  0.002377  -0.210433
    C   C4   0.750585  0.959030  0.999697  -0.279036
    C   C5   0.879485  0.017704  0.000940  0.287690
    C   C6   0.030442  0.970764  0.002967  -0.115203
    C   C7   0.855484  0.123798  0.000143  -0.346702
    C   C8   0.981875  0.184789  0.999939  0.102722
    C   C9   0.132551  0.138430  0.002987  0.210605
    C   C10  0.156591  0.033210  0.005881  -0.232853
    C   C11  0.961898  0.291185  0.995111  -0.108163
    C   C12  0.091581  0.346683  0.987925  -0.161871
    C   C13  0.240839  0.301313  0.995223  -0.038080
    C   C14  0.262036  0.197033  0.003765  -0.281245
    C   C15  0.200132  0.811048  0.002339  -0.369704
    C   C16  0.215829  0.706021  0.011681  0.009745
    C   C17  0.085327  0.652905  0.021207  -0.136024
    C   C18  0.937481  0.699896  0.012639  -0.209551
    H   H1   0.666358  0.810354  0.003096  0.107998
    H   H2   0.633022  0.995433  0.997845  0.160487
    H   H3   0.075056  0.427745  0.978888  0.130346
    H   H4   0.380121  0.161518  0.008921  0.104038
    H   H5   0.276804  0.003352  0.010845  0.130766
    H   H6   0.736989  0.158687  0.997907  0.123902
    H   H7   0.306587  0.848328  0.993874  0.153401
    H   H8   0.099466  0.572055  0.031611  0.134617
    O   O1   0.430578  0.395103  0.065715  -0.688703
    O   O2   0.419732  0.400669  0.933639  -0.703199
    C   C19  0.373865  0.366078  0.998207  0.860967
    O   O3   0.409274  0.613465  0.940583  -0.748883
    O   O4   0.430385  0.607704  0.072826  -0.744509
    C   C20  0.366266  0.645817  0.008267  0.868978
    O   O5   0.748857  0.603832  0.941663  -0.712945
    O   O6   0.758890  0.598760  0.073651  -0.722410
    C   C21  0.804723  0.633876  0.009231  0.950680
    O   O7   0.769893  0.385391  0.066322  -0.742969
    O   O8   0.748083  0.390678  0.934467  -0.729757
    C   C22  0.811485  0.351690  0.998743  0.886565
    Zn  Zn1  0.579612  0.504945  0.918195  1.050752
    Zn  Zn2  0.599727  0.493958  0.088999  1.030101
    C   C23  0.606856  0.592339  0.779783  -0.238866
    N   N1   0.569253  0.508970  0.817700  0.154387
    C   C24  0.540968  0.421114  0.779497  -0.182408
    C   C25  0.654122  0.674475  0.662817  -0.297335
    C   C26  0.615487  0.588763  0.701222  0.208689
    C   C27  0.586815  0.499404  0.661295  -0.052545
    C   C28  0.549747  0.414073  0.700493  0.135511
    C   C29  0.519691  0.323497  0.660765  -0.252128
    C   C30  0.697486  0.758016  0.545870  -0.139654
    C   C31  0.660448  0.671734  0.584280  0.142718
    C   C32  0.629160  0.582975  0.544142  0.030043
    C   C33  0.700679  0.756436  0.467244  -0.242007
    C   C34  0.668230  0.668170  0.426936  0.243481
    C   C35  0.593333  0.496204  0.582678  0.000621
    C   C36  0.563757  0.406847  0.542546  0.034867
    C   C37  0.529607  0.319037  0.581126  0.062427
    C   C38  0.504591  0.229473  0.538441  0.028369
    C   C39  0.633728  0.581280  0.465453  -0.064127
    C   C40  0.603051  0.492833  0.425171  0.081753
    C   C41  0.568403  0.405868  0.463453  -0.078405
    C   C42  0.537580  0.318195  0.422200  0.240185
    C   C43  0.504849  0.230965  0.459769  -0.225686
    C   C44  0.669937  0.666872  0.348104  -0.362960
    C   C45  0.638909  0.578285  0.307879  0.256198
    C   C46  0.606781  0.491476  0.346362  -0.108746
    C   C47  0.576900  0.403680  0.305379  0.239639
    C   C48  0.542299  0.316710  0.343387  -0.326470
    C   C49  0.638259  0.576575  0.229002  -0.265038
    N   N2   0.610745  0.489602  0.189436  0.192604
    C   C50  0.580388  0.403549  0.226455  -0.259539
    H   H9   0.631856  0.661950  0.810954  0.159487
    H   H10  0.678535  0.744017  0.694258  0.146947
    H   H11  0.723567  0.827304  0.577130  0.098229
    H   H12  0.728610  0.824587  0.437477  0.134113
    H   H13  0.485502  0.161152  0.427686  0.100005
    H   H14  0.695751  0.735182  0.317942  0.165368
    H   H15  0.518595  0.247420  0.311453  0.160882
    H   H16  0.556553  0.334539  0.194269  0.167884
    H   H17  0.514560  0.356133  0.812287  0.104402
    H   H18  0.657898  0.646099  0.198989  0.185000
    C   C51  0.462764  0.237423  0.702324  0.374544
    C   C52  0.310178  0.209691  0.687668  -0.194344
    Cl  Cl1  0.185771  0.277721  0.620175  -0.037110
    C   C53  0.255441  0.128596  0.726133  -0.017807
    C   C54  0.353191  0.074833  0.779246  -0.105214
    C   C55  0.505841  0.102062  0.793848  -0.223832
    C   C56  0.560719  0.183147  0.755438  0.036070
    H   H19  0.135820  0.107139  0.714607  0.114239
    H   H20  0.310218  0.011250  0.809355  0.105800
    H   H21  0.582589  0.059764  0.835372  0.121390
    H   H22  0.680664  0.204099  0.766800  0.052124
    C   C57  0.487316  0.129498  0.572622  0.256011
    C   C58  0.354125  0.077281  0.554448  -0.049640
    Cl  Cl2  0.203233  0.132907  0.493281  -0.077722
    C   C59  0.338170  0.982187  0.585707  -0.098245
    C   C60  0.456278  0.938665  0.634368  -0.136323
    C   C61  0.591455  0.989516  0.650784  0.162746
    C   C62  0.607929  0.084218  0.618994  -0.394212
    H   H23  0.232820  0.941917  0.572270  0.090504
    H   H24  0.443243  0.864366  0.659161  0.098829
    H   H25  0.684862  0.954926  0.688271  0.044623
    H   H26  0.714866  0.123412  0.630917  0.129133
