# Generated by REPEAT Assigner based on pymatgen
data_DB0-m3_o8_o18_f0_pcu.sym.117_sqe
_audit_creation_date              2022-05-24
_audit_creation_method            REPEAT_Assigner
_cell_length_a                    15.919704
_cell_length_b                    16.075335
_cell_length_c                    17.119154
_cell_angle_alpha                 90.893181
_cell_angle_beta                  88.873268
_cell_angle_gamma                 105.276035
_cell_volume                      4225.185665
_symmetry_space_group_name_H-M    P1
_symmetry_Int_Tables_number       1
loop_
    _symmetry_equiv_pos_site_id
    _symmetry_equiv_pos_as_xyz
    1  x,y,z
loop_
    _atom_site_type_symbol
    _atom_site_label
    _atom_site_fract_x
    _atom_site_fract_y
    _atom_site_fract_z
    _atom_type_partial_charge
    O   O1   0.512853  0.430294  0.387812  -0.558688
    O   O2   0.484671  0.572251  0.615307  -0.480099
    O   O3   0.505874  0.571651  0.383064  -0.722188
    O   O4   0.491230  0.430761  0.620073  -0.664171
    C   C1   0.514124  0.500132  0.348564  0.725562
    C   C2   0.483334  0.502406  0.654537  0.681404
    O   O5   0.372295  0.389393  0.496104  -0.730320
    O   O6   0.624945  0.613065  0.506770  -0.739201
    O   O7   0.366732  0.531212  0.492672  -0.553521
    O   O8   0.630554  0.471075  0.510521  -0.606704
    C   C3   0.328797  0.448254  0.492547  0.730847
    C   C4   0.668420  0.554135  0.510360  0.770704
    Zn  Zn1  0.502802  0.407388  0.504071  1.008623
    Zn  Zn2  0.494419  0.595035  0.499054  1.013709
    C   C5   0.233849  0.421039  0.484217  -0.072533
    C   C6   0.763499  0.581676  0.517375  -0.103168
    C   C7   0.107453  0.322967  0.433776  -0.326930
    C   C8   0.890221  0.680263  0.566608  -0.294361
    C   C9   0.194952  0.343956  0.448411  -0.029421
    C   C10  0.802366  0.658316  0.553829  -0.067269
    C   C11  0.183848  0.475463  0.508089  -0.176703
    C   C12  0.813769  0.528382  0.491279  -0.113483
    C   C13  0.095373  0.457084  0.490706  0.031072
    C   C14  0.902646  0.547348  0.507348  0.018992
    C   C15  0.058491  0.379591  0.453296  0.307716
    C   C16  0.939546  0.624632  0.545118  0.271111
    C   C17  0.043230  0.513760  0.508529  -0.015024
    C   C18  0.955051  0.491158  0.488558  0.037538
    C   C19  0.921105  0.412166  0.451309  -0.106398
    C   C20  0.077452  0.593167  0.544989  -0.076992
    C   C21  0.972238  0.357668  0.434369  -0.322902
    C   C22  0.026161  0.647273  0.562661  -0.286190
    H   H1   0.943717  0.296955  0.405209  0.138899
    H   H2   0.054768  0.708069  0.591653  0.142214
    H   H3   0.780081  0.472269  0.459012  0.099834
    H   H4   0.217170  0.531417  0.540675  0.158012
    H   H5   0.764047  0.699844  0.575247  0.105056
    H   H6   0.232943  0.301179  0.429091  0.071716
    H   H7   0.077799  0.262646  0.404445  0.145524
    H   H8   0.919841  0.740294  0.596408  0.141600
    H   H9   0.854667  0.389102  0.433624  0.121817
    H   H10  0.144220  0.616915  0.561502  0.128589
    C   C23  0.518277  0.495928  0.262063  -0.164878
    C   C24  0.479583  0.507245  0.740961  -0.105575
    C   C25  0.487532  0.554378  0.220622  0.044351
    C   C26  0.517019  0.454220  0.782924  0.007051
    C   C27  0.469962  0.542993  0.142091  -0.288392
    C   C28  0.532241  0.466764  0.861834  -0.282937
    C   C29  0.493193  0.476905  0.101121  0.600258
    C   C30  0.502408  0.529599  0.901933  0.475973
    C   C31  0.529340  0.420911  0.141026  -0.550327
    C   C32  0.463399  0.582524  0.860704  -0.450729
    C   C33  0.542059  0.429595  0.221214  0.095803
    C   C34  0.450431  0.570916  0.780735  0.081861
    N   N1   0.486788  0.468058  0.018661  -0.278488
    N   N2   0.506946  0.538652  0.984446  -0.233829
    H   H11  0.541725  0.406700  0.752564  0.103263
    H   H12  0.469149  0.605734  0.251074  0.077498
    N   N3   0.487037  0.718000  0.497535  -0.059699
    N   N4   0.510023  0.284388  0.505587  -0.120059
    C   C35  0.546519  0.783595  0.534080  0.017189
    C   C36  0.453494  0.219397  0.465597  0.079982
    C   C37  0.543479  0.868451  0.527553  -0.144553
    C   C38  0.459373  0.135185  0.468884  -0.176535
    C   C39  0.480353  0.889576  0.484588  0.235089
    C   C40  0.519915  0.113404  0.514781  0.285036
    C   C41  0.419942  0.824446  0.449021  0.005529
    C   C42  0.574382  0.177396  0.557438  -0.108114
    C   C43  0.423057  0.739365  0.456277  -0.094307
    C   C44  0.571076  0.262577  0.550396  -0.048753
    N   N5   0.473392  0.975371  0.478992  -0.085770
    N   N6   0.526057  0.027366  0.520710  -0.094062
    H   H13  0.415328  0.087207  0.433874  0.103477
    H   H14  0.590689  0.917358  0.558792  0.096035
    C   C45  0.383210  0.231875  0.416359  0.728798
    O   O9   0.395696  0.291535  0.371146  -0.435788
    N   N7   0.303588  0.165473  0.412294  -0.746201
    H   H15  0.270689  0.164751  0.465750  0.278682
    H   H16  0.266076  0.181511  0.368524  0.332909
    C   C46  0.615764  0.770747  0.584359  0.717728
    O   O10  0.601106  0.712629  0.631372  -0.469942
    N   N8   0.696375  0.835870  0.587985  -0.692747
    H   H17  0.729916  0.834299  0.535186  0.264154
    H   H18  0.732574  0.820501  0.633143  0.314649
    C   C47  0.352670  0.846975  0.402389  0.570951
    O   O11  0.275756  0.819369  0.419660  -0.447710
    N   N9   0.377455  0.904335  0.338218  -0.915905
    H   H19  0.349289  0.871387  0.288226  0.371094
    H   H20  0.350078  0.955920  0.348161  0.359532
    C   C48  0.635262  0.154308  0.611648  0.685654
    O   O12  0.639950  0.180890  0.678979  -0.470238
    N   N10  0.689515  0.101008  0.585965  -0.925410
    H   H21  0.754064  0.136708  0.592524  0.342323
    H   H22  0.678229  0.048815  0.623843  0.355464
    C   C49  0.353441  0.674460  0.418562  0.584060
    O   O13  0.281662  0.653395  0.449713  -0.416642
    N   N11  0.364112  0.647068  0.340512  -0.429075
    H   H23  0.304662  0.606163  0.323511  0.226495
    H   H24  0.377376  0.701461  0.305156  0.264424
    C   C50  0.639443  0.327803  0.589621  0.677146
    O   O14  0.624393  0.358007  0.652201  -0.387930
    N   N12  0.726591  0.348901  0.559384  -0.663769
    H   H25  0.765905  0.387906  0.601022  0.283403
    H   H26  0.747299  0.292841  0.552718  0.276962
    C   C51  0.590649  0.421009  0.897233  0.853415
    O   O15  0.642089  0.456778  0.946846  -0.540230
    N   N13  0.593748  0.338197  0.868118  -0.866796
    H   H27  0.582024  0.295959  0.915170  0.366836
    H   H28  0.657029  0.343560  0.847337  0.319799
    C   C52  0.414559  0.593193  0.108940  0.606108
    O   O16  0.422138  0.667430  0.130466  -0.551469
    N   N14  0.344058  0.551769  0.059870  -0.568105
    H   H29  0.306998  0.595532  0.051392  0.274115
    H   H30  0.305237  0.499668  0.090685  0.254311
    C   C53  0.554297  0.351975  0.096664  1.109596
    O   O17  0.499080  0.298443  0.061247  -0.639466
    N   N15  0.643294  0.349519  0.091178  -0.854492
    H   H31  0.648541  0.293334  0.118119  0.326719
    H   H32  0.681193  0.402762  0.121328  0.344505
    C   C54  0.431671  0.648762  0.902947  0.965085
    O   O18  0.354133  0.645007  0.903852  -0.601298
    N   N16  0.491860  0.722459  0.935845  -0.813033
    H   H33  0.455642  0.762255  0.960024  0.352642
    H   H34  0.524558  0.702494  0.981136  0.293168
    C   C55  0.581492  0.368554  0.260428  0.640891
    O   O19  0.546584  0.291349  0.257283  -0.527520
    N   N17  0.663290  0.398707  0.298336  -0.769549
    H   H35  0.654522  0.380769  0.356893  0.329411
    H   H36  0.682348  0.465905  0.295601  0.250101
    C   C56  0.403205  0.624404  0.740020  0.740233
    O   O20  0.426660  0.702860  0.745421  -0.533665
    N   N18  0.329748  0.584459  0.693541  -0.846211
    H   H37  0.305380  0.633358  0.671247  0.331145
    H   H38  0.282292  0.546946  0.730594  0.295022
