# Generated by REPEAT Assigner based on pymatgen
data_DB0-m29_o90_o47_f0_pts.sym.53
_audit_creation_date              2022-05-24
_audit_creation_method            REPEAT_Assigner
_cell_length_a                    9.380971
_cell_length_b                    16.855785
_cell_length_c                    15.221814
_cell_angle_alpha                 110.488763
_cell_angle_beta                  94.225341
_cell_angle_gamma                 78.512286
_cell_volume                      2209.480907
_symmetry_space_group_name_H-M    P1
_symmetry_Int_Tables_number       1
loop_
    _symmetry_equiv_pos_site_id
    _symmetry_equiv_pos_as_xyz
    1  x,y,z
loop_
    _atom_site_type_symbol
    _atom_site_label
    _atom_site_fract_x
    _atom_site_fract_y
    _atom_site_fract_z
    _atom_type_partial_charge
    C   C1   0.092879  0.984905  0.176522  0.011720
    C   C2   0.985612  0.982531  0.232576  -0.156187
    C   C3   0.842302  0.989271  0.203852  0.056910
    C   C4   0.805977  0.000356  0.119107  -0.249936
    C   C5   0.912671  0.000275  0.061221  0.331315
    C   C6   0.057985  0.987299  0.086340  -0.099116
    C   C7   0.871314  0.013142  0.977759  -0.311183
    C   C8   0.973521  0.017289  0.919286  0.189293
    C   C9   0.119090  0.004559  0.944059  -0.026057
    C   C10  0.162435  0.977899  0.020582  0.076416
    C   C11  0.932746  0.033792  0.836387  -0.050766
    C   C12  0.035894  0.045781  0.784559  -0.077800
    C   C13  0.179520  0.038500  0.812215  -0.057485
    C   C14  0.220743  0.017614  0.891414  -0.088430
    H   H1   0.013584  0.980941  0.302126  0.200342
    H   H2   0.693334  0.009034  0.097471  0.194561
    H   H3   0.004379  0.057475  0.719844  0.193307
    H   H4   0.333150  0.013837  0.913060  0.158159
    H   H5   0.756518  0.026553  0.963543  0.155352
    O   O1   0.591359  0.000526  0.240825  -0.597545
    C   C15  0.728919  0.990379  0.265817  0.634593
    O   O2   0.583721  0.827246  0.267272  -0.562043
    O   O3   0.764274  0.982233  0.347667  -0.539904
    O   O4   0.533946  0.921510  0.414080  -0.524500
    C   C16  0.588288  0.843697  0.358214  0.595244
    Fe  Fe1  0.471624  0.000577  0.342525  1.483017
    O   O5   0.286370  0.963319  0.283738  -0.633791
    O   O6   0.301402  0.054138  0.205334  -0.571920
    C   C17  0.233675  0.999757  0.221712  0.713289
    O   O7   0.466811  0.120649  0.433473  -0.602149
    O   O8   0.225064  0.118223  0.431054  -0.494889
    C   C18  0.334976  0.157118  0.465882  0.643326
    O   O9   0.555131  0.919844  0.587175  -0.609566
    O   O10  0.797963  0.920409  0.593457  -0.497071
    C   C19  0.687687  0.882481  0.556818  0.658388
    O   O11  0.734336  0.075219  0.741881  -0.632337
    O   O12  0.719559  0.968950  0.797597  -0.510213
    C   C20  0.786384  0.029720  0.795663  0.654443
    O   O13  0.253241  0.057345  0.673540  -0.554257
    O   O14  0.491219  0.119863  0.610017  -0.533568
    C   C21  0.428431  0.196006  0.665371  0.605348
    O   O15  0.426914  0.037753  0.779539  -0.624273
    C   C22  0.289687  0.046636  0.754106  0.698222
    O   O16  0.424153  0.210869  0.755810  -0.552743
    Fe  Fe2  0.549762  0.039227  0.680078  1.490693
    C   C23  0.308102  0.244402  0.534648  0.019918
    C   C24  0.223751  0.308332  0.506470  0.024850
    H   H6   0.185377  0.291542  0.434775  0.049708
    C   C25  0.188818  0.391777  0.568417  -0.387970
    C   C26  0.239264  0.410890  0.659637  0.103783
    H   H7   0.213688  0.475450  0.709893  0.043983
    C   C27  0.320533  0.346971  0.688912  -0.180102
    H   H8   0.355551  0.363445  0.761291  0.150674
    C   C28  0.355372  0.263175  0.627461  0.029114
    N   N1   0.062327  0.539986  0.598709  -0.273870
    N   N2   0.978304  0.600213  0.571657  -0.227353
    C   C29  0.926483  0.580876  0.483323  0.783744
    N   N3   0.961072  0.499803  0.422621  -0.275352
    N   N4   0.045149  0.439570  0.449670  -0.222502
    C   C30  0.096882  0.458912  0.538039  0.769870
    C   C31  0.779981  0.628724  0.362825  0.116336
    H   H9   0.804107  0.564033  0.312684  0.041578
    C   C32  0.696771  0.692583  0.334229  -0.184275
    H   H10  0.659128  0.675864  0.262368  0.150437
    C   C33  0.663461  0.776538  0.395644  0.041046
    C   C34  0.714314  0.795407  0.487722  -0.006611
    C   C35  0.800415  0.731544  0.515163  0.047967
    H   H11  0.840984  0.748422  0.586370  0.042343
    C   C36  0.833713  0.647992  0.453304  -0.410067
    C   C37  0.311123  0.922418  0.019050  -0.008073
    C   C38  0.335526  0.847420  0.926319  0.138772
    C   C39  0.445462  0.773358  0.939866  -0.228751
    H   H12  0.546095  0.796581  0.972176  0.053453
    H   H13  0.399549  0.745672  0.985277  0.071974
    H   H14  0.472142  0.722440  0.870636  0.055311
    H   H15  0.231585  0.824899  0.901528  -0.013817
    H   H16  0.378851  0.866066  0.872216  -0.008405
    H   H17  0.398678  0.960691  0.031529  0.072825
    H   H18  0.320079  0.890767  0.071952  0.033252
