# generated using pymatgen
data_CuH21C25N2O5
_symmetry_space_group_name_H-M   'P 1'
_cell_length_a   17.68464600
_cell_length_b   16.23877500
_cell_length_c   15.84720500
_cell_angle_alpha   90.00000000
_cell_angle_beta   89.99978500
_cell_angle_gamma   90.00000000
_symmetry_Int_Tables_number   1
_chemical_formula_structural   CuH21C25N2O5
_chemical_formula_sum   'Cu2 H42 C50 N4 O10'
_cell_volume   4550.95258976
_cell_formula_units_Z   2
loop_
 _symmetry_equiv_pos_site_id
 _symmetry_equiv_pos_as_xyz
  1  'x, y, z'
loop_
 _atom_site_type_symbol
 _atom_site_label
 _atom_site_symmetry_multiplicity
 _atom_site_fract_x
 _atom_site_fract_y
 _atom_site_fract_z
 _atom_site_occupancy
  Cu  Cu1  1  0.49192100  0.58284100  0.49987100  1
  Cu  Cu2  1  0.49179700  0.41781100  0.49964400  1
  H  H1  1  0.38954300  0.57235900  0.93396200  1
  H  H2  1  0.39579600  0.41912600  0.92622900  1
  H  H3  1  0.39913200  0.58360600  0.07564500  1
  H  H4  1  0.39061100  0.43060500  0.06827400  1
  H  H5  1  0.47531800  0.36889100  0.07397200  1
  H  H6  1  0.49066500  0.63238000  0.06655900  1
  H  H7  1  0.48683400  0.36867200  0.93183800  1
  H  H8  1  0.47494500  0.63251200  0.92530200  1
  H  H9  1  0.60800100  0.54815200  0.07207100  1
  H  H10  1  0.60092500  0.43753100  0.06411200  1
  H  H11  1  0.59966900  0.56173100  0.93003500  1
  H  H12  1  0.60532900  0.45103000  0.92244300  1
  H  H13  1  0.86824300  0.63106300  0.51301500  1
  H  H14  1  0.86815200  0.36930400  0.49891300  1
  H  H15  1  0.73019200  0.63191200  0.51193400  1
  H  H16  1  0.73022500  0.36842400  0.49773000  1
  H  H17  1  0.11497200  0.63154000  0.50720900  1
  H  H18  1  0.11497000  0.36983400  0.50777600  1
  H  H19  1  0.25316900  0.63249900  0.50655100  1
  H  H20  1  0.25238700  0.36896500  0.50714500  1
  H  H21  1  0.56590800  0.85626700  0.62071000  1
  H  H22  1  0.56887000  0.14487200  0.61802100  1
  H  H23  1  0.56017800  0.70573400  0.60963500  1
  H  H24  1  0.56114100  0.29583700  0.60743600  1
  H  H25  1  0.43355100  0.87662000  0.40026900  1
  H  H26  1  0.43110700  0.12352000  0.40191500  1
  H  H27  1  0.32098400  0.73999200  0.44176500  1
  H  H28  1  0.31399300  0.66010600  0.36236200  1
  H  H29  1  0.31431200  0.84748100  0.33656000  1
  H  H30  1  0.24148900  0.77466300  0.31543100  1
  H  H31  1  0.41464800  0.85568200  0.25861100  1
  H  H32  1  0.42959400  0.78878200  0.17125100  1
  H  H33  1  0.51035300  0.75550100  0.29721800  1
  H  H34  1  0.45469200  0.67221100  0.25538300  1
  H  H35  1  0.50828900  0.24986500  0.29718700  1
  H  H36  1  0.44947600  0.33085000  0.25620800  1
  H  H37  1  0.41464900  0.14611000  0.26052200  1
  H  H38  1  0.42739300  0.21212700  0.17219100  1
  H  H39  1  0.31339000  0.15246000  0.33896000  1
  H  H40  1  0.23956400  0.22382300  0.31724200  1
  H  H41  1  0.31892900  0.25964500  0.44343200  1
  H  H42  1  0.31052700  0.33988400  0.36494300  1
  C  C1  1  0.34633800  0.50060300  0.49943500  1
  C  C2  1  0.49474100  0.50042400  0.33784900  1
  C  C3  1  0.63718400  0.50008900  0.50341700  1
  C  C4  1  0.48966400  0.49996900  0.66154400  1
  C  C5  1  0.45634100  0.57835000  0.04763800  1
  C  C6  1  0.45038700  0.42604400  0.04774900  1
  C  C7  1  0.45387400  0.42324200  0.95233500  1
  C  C8  1  0.45000200  0.57565900  0.95243100  1
  C  C9  1  0.48980000  0.49989500  0.75190300  1
  C  C10  1  0.49415900  0.50033900  0.07888500  1
  C  C11  1  0.49183900  0.50059900  0.91988100  1
  C  C12  1  0.57309800  0.50304000  0.95018300  1
  C  C13  1  0.57445100  0.49666900  0.04552000  1
  C  C14  1  0.49055700  0.50026700  0.82784800  1
  C  C15  1  0.49516700  0.50047200  0.17121800  1
  C  C16  1  0.49529900  0.50054200  0.24727900  1
  C  C17  1  0.83756900  0.57350900  0.51022900  1
  C  C18  1  0.83762200  0.42680600  0.50236300  1
  C  C19  1  0.75960400  0.57365300  0.50947900  1
  C  C20  1  0.75965800  0.42663100  0.50171400  1
  C  C21  1  0.72017000  0.50011600  0.50533000  1
  C  C22  1  0.87656200  0.50018100  0.50695500  1
  C  C23  1  0.95764400  0.50035700  0.50761800  1
  C  C24  1  0.02573900  0.50066900  0.50777200  1
  C  C25  1  0.14579200  0.57414100  0.50690400  1
  C  C26  1  0.14566000  0.42747100  0.50727200  1
  C  C27  1  0.22379800  0.57432900  0.50568700  1
  C  C28  1  0.22355500  0.42737900  0.50605200  1
  C  C29  1  0.26330300  0.50080700  0.50349400  1
  C  C30  1  0.10680000  0.50076800  0.50730500  1
  C  C31  1  0.53580700  0.82745700  0.56916000  1
  C  C32  1  0.53661700  0.17364500  0.56796100  1
  C  C33  1  0.53204000  0.74277700  0.56257300  1
  C  C34  1  0.53232000  0.25832100  0.56128000  1
  C  C35  1  0.45809900  0.75352500  0.44015500  1
  C  C36  1  0.45626000  0.24722600  0.44065200  1
  C  C37  1  0.46127100  0.83829100  0.44610600  1
  C  C38  1  0.45905400  0.16239100  0.44714800  1
  C  C39  1  0.49978700  0.87536300  0.51057200  1
  C  C40  1  0.49883300  0.12554300  0.51093300  1
  C  C41  1  0.50169500  0.96336600  0.51540800  1
  C  C42  1  0.50134500  0.03743900  0.51547100  1
  C  C43  1  0.33745400  0.72175300  0.37699200  1
  C  C44  1  0.30372100  0.78335200  0.31584700  1
  C  C45  1  0.40710800  0.79158900  0.23646600  1
  C  C46  1  0.45206800  0.73148900  0.28966000  1
  C  C47  1  0.44909300  0.27142100  0.29036600  1
  C  C48  1  0.40545800  0.20970300  0.23771500  1
  C  C49  1  0.30187900  0.21617800  0.31764700  1
  C  C50  1  0.33490500  0.27840700  0.37863600  1
  N  N1  1  0.49207100  0.70619700  0.50001200  1
  N  N2  1  0.49098800  0.29445200  0.49982800  1
  N  N3  1  0.41882300  0.71747900  0.37174300  1
  N  N4  1  0.41614500  0.28360400  0.37287100  1
  O  O1  1  0.38197400  0.57147300  0.50053000  1
  O  O2  1  0.38190500  0.42992600  0.50085900  1
  O  O3  1  0.49173000  0.57095200  0.37729600  1
  O  O4  1  0.49632900  0.42968200  0.37721600  1
  O  O5  1  0.60169400  0.57090600  0.50497100  1
  O  O6  1  0.60168100  0.42906200  0.50448600  1
  O  O7  1  0.48741100  0.57111000  0.62239400  1
  O  O8  1  0.49270600  0.42926700  0.62238900  1
  O  O9  1  0.33098900  0.76940800  0.23460000  1
  O  O10  1  0.32882500  0.22988100  0.23613200  1
