# generated using pymatgen
data_ZnH22C43N4(ClO3)2
_symmetry_space_group_name_H-M   'P 1'
_cell_length_a   15.91016300
_cell_length_b   17.23467500
_cell_length_c   27.60551300
_cell_angle_alpha   89.98832800
_cell_angle_beta   92.72499000
_cell_angle_gamma   89.12654800
_symmetry_Int_Tables_number   1
_chemical_formula_structural   ZnH22C43N4(ClO3)2
_chemical_formula_sum   'Zn2 H44 C86 N8 Cl4 O12'
_cell_volume   7560.16948822
_cell_formula_units_Z   2
loop_
 _symmetry_equiv_pos_site_id
 _symmetry_equiv_pos_as_xyz
  1  'x, y, z'
loop_
 _atom_site_type_symbol
 _atom_site_label
 _atom_site_symmetry_multiplicity
 _atom_site_fract_x
 _atom_site_fract_y
 _atom_site_fract_z
 _atom_site_occupancy
  Zn  Zn1  1  0.40572700  0.49679900  0.49731300  1
  Zn  Zn2  1  0.59642900  0.50333600  0.50378200  1
  H  H1  1  0.36573300  0.47877800  0.65077700  1
  H  H2  1  0.36910600  0.50463400  0.34214100  1
  H  H3  1  0.36596500  0.47777400  0.73915500  1
  H  H4  1  0.37061400  0.50573600  0.25391900  1
  H  H5  1  0.51059200  0.69214300  0.88007600  1
  H  H6  1  0.53635600  0.30983700  0.12183800  1
  H  H7  1  0.63864500  0.49588800  0.35025500  1
  H  H8  1  0.63067100  0.52075700  0.65886700  1
  H  H9  1  0.63842900  0.49523100  0.26186300  1
  H  H10  1  0.62895700  0.52155900  0.74707300  1
  H  H11  1  0.47108800  0.69126800  0.12015300  1
  H  H12  1  0.48601200  0.30790200  0.88005500  1
  H  H13  1  0.47022900  0.69372400  0.03504400  1
  H  H14  1  0.48899000  0.30562900  0.96521800  1
  H  H15  1  0.51132500  0.69489000  0.96516200  1
  H  H16  1  0.53388100  0.30712300  0.03670400  1
  H  H17  1  0.40372400  0.10374500  0.53054500  1
  H  H18  1  0.59731300  0.89639300  0.53705900  1
  H  H19  1  0.35613200  0.88633400  0.46334300  1
  H  H20  1  0.64753400  0.11391600  0.47332600  1
  H  H21  1  0.26888600  0.53398900  0.56424500  1
  H  H22  1  0.73261100  0.53457600  0.43454300  1
  H  H23  1  0.11725400  0.53571100  0.56007800  1
  H  H24  1  0.88469900  0.53384200  0.43869400  1
  H  H25  1  0.88190500  0.47973200  0.58986600  1
  H  H26  1  0.12103700  0.45625200  0.41318500  1
  H  H27  1  0.72837900  0.47911300  0.58286900  1
  H  H28  1  0.27499000  0.45408900  0.42047200  1
  H  H29  1  0.30379100  0.64252000  0.34758800  1
  H  H30  1  0.16752800  0.63089300  0.38513900  1
  H  H31  1  0.14683700  0.68825800  0.46530700  1
  H  H32  1  0.26265300  0.75652300  0.50818400  1
  H  H33  1  0.70271400  0.35556600  0.35976000  1
  H  H34  1  0.83777900  0.36804600  0.40592700  1
  H  H35  1  0.85595300  0.31284100  0.48795500  1
  H  H36  1  0.73906600  0.24515000  0.52383700  1
  H  H37  1  0.30963700  0.34055400  0.63813400  1
  H  H38  1  0.17715600  0.34553300  0.58854400  1
  H  H39  1  0.17056000  0.28851200  0.50684800  1
  H  H40  1  0.29677500  0.22760600  0.47440800  1
  H  H41  1  0.68425600  0.66092000  0.65233600  1
  H  H42  1  0.81966300  0.65629800  0.61303600  1
  H  H43  1  0.83115800  0.71220700  0.53172000  1
  H  H44  1  0.70703400  0.77210300  0.48948400  1
  C  C1  1  0.49312800  0.65271600  0.50030200  1
  C  C2  1  0.50903800  0.34742500  0.50064200  1
  C  C3  1  0.49888000  0.49993300  0.59536400  1
  C  C4  1  0.50323700  0.50023000  0.40571800  1
  C  C5  1  0.50191000  0.56748200  0.82424400  1
  C  C6  1  0.51592700  0.43346200  0.17712700  1
  C  C7  1  0.49308000  0.43224900  0.82421200  1
  C  C8  1  0.49289500  0.56770200  0.17653300  1
  C  C9  1  0.57125900  0.51203700  0.72578900  1
  C  C10  1  0.57940700  0.49739500  0.27969100  1
  C  C11  1  0.57193000  0.51144400  0.67590100  1
  C  C12  1  0.57921200  0.49781400  0.32963600  1
  C  C13  1  0.42411700  0.48802400  0.67141500  1
  C  C14  1  0.42886700  0.50279800  0.32513200  1
  C  C15  1  0.42398300  0.48729600  0.72135300  1
  C  C16  1  0.42937300  0.50347300  0.27523200  1
  C  C17  1  0.49744000  0.49965000  0.74857900  1
  C  C18  1  0.50454200  0.50050500  0.25246200  1
  C  C19  1  0.49880200  0.50007200  0.89983700  1
  C  C20  1  0.50323800  0.50051200  0.10121700  1
  C  C21  1  0.50198300  0.56851500  0.87434400  1
  C  C22  1  0.51462500  0.43248600  0.12699200  1
  C  C23  1  0.50625700  0.63761900  0.89903200  1
  C  C24  1  0.52539300  0.36389200  0.10258600  1
  C  C25  1  0.49459800  0.43149400  0.87435400  1
  C  C26  1  0.49277000  0.56860400  0.12642000  1
  C  C27  1  0.49823500  0.49980900  0.64842300  1
  C  C28  1  0.50384800  0.50027300  0.35263700  1
  C  C29  1  0.49502100  0.57009200  0.02562600  1
  C  C30  1  0.50129400  0.43037400  0.97531600  1
  C  C31  1  0.50833500  0.43066800  0.02604000  1
  C  C32  1  0.49969900  0.57015900  0.97512500  1
  C  C33  1  0.50221400  0.50042900  0.05081800  1
  C  C34  1  0.49991400  0.50020400  0.95023600  1
  C  C35  1  0.48245900  0.63810900  0.05175200  1
  C  C36  1  0.49469100  0.36175900  0.94883300  1
  C  C37  1  0.48120500  0.63714100  0.10142700  1
  C  C38  1  0.49123700  0.36252600  0.89906400  1
  C  C39  1  0.50498500  0.63865200  0.94870100  1
  C  C40  1  0.52219200  0.36276800  0.05282500  1
  C  C41  1  0.48756400  0.73905600  0.49977000  1
  C  C42  1  0.51463700  0.26110200  0.50057500  1
  C  C43  1  0.55177400  0.78394800  0.52107600  1
  C  C44  1  0.44969800  0.21619300  0.51752700  1
  C  C45  1  0.54648200  0.86417000  0.51972000  1
  C  C46  1  0.45519800  0.13598000  0.51670800  1
  C  C47  1  0.47559900  0.90138200  0.49950100  1
  C  C48  1  0.52686700  0.09881300  0.50141300  1
  C  C49  1  0.41115400  0.85749200  0.47978400  1
  C  C50  1  0.59193000  0.14272200  0.48602800  1
  C  C51  1  0.41738000  0.77755800  0.47828900  1
  C  C52  1  0.58562100  0.22262500  0.48395200  1
  C  C53  1  0.76560100  0.52217600  0.46880800  1
  C  C54  1  0.23617800  0.51566500  0.53114000  1
  C  C55  1  0.85249800  0.52118800  0.47132000  1
  C  C56  1  0.14937700  0.51641900  0.52851200  1
  C  C57  1  0.89529200  0.50540700  0.51513000  1
  C  C58  1  0.10687000  0.49511800  0.48574000  1
  C  C59  1  0.84968400  0.49188900  0.55528400  1
  C  C60  1  0.15291000  0.47287700  0.44696100  1
  C  C61  1  0.76309100  0.49178200  0.55124600  1
  C  C62  1  0.23961800  0.47166800  0.45114900  1
  C  C63  1  0.34900200  0.73659800  0.45240300  1
  C  C64  1  0.36028500  0.70501000  0.40707600  1
  C  C65  1  0.29504500  0.66705800  0.38304600  1
  C  C66  1  0.21852400  0.66082300  0.40400400  1
  C  C67  1  0.20689800  0.69305700  0.44891400  1
  C  C68  1  0.27186400  0.73137800  0.47292800  1
  C  C69  1  0.65455300  0.26350300  0.46230400  1
  C  C70  1  0.64460500  0.29415200  0.41604100  1
  C  C71  1  0.71046600  0.33168000  0.39592400  1
  C  C72  1  0.78629800  0.33842800  0.42173500  1
  C  C73  1  0.79652100  0.30737200  0.46768200  1
  C  C74  1  0.73094300  0.26941900  0.48778700  1
  C  C75  1  0.37462100  0.25107400  0.53771100  1
  C  C76  1  0.37805000  0.28240500  0.58385200  1
  C  C77  1  0.30701700  0.31611000  0.60205400  1
  C  C78  1  0.23263900  0.31863500  0.57433300  1
  C  C79  1  0.22891500  0.28659700  0.52856100  1
  C  C80  1  0.29966100  0.25232100  0.51042000  1
  C  C81  1  0.62544300  0.74905700  0.54685100  1
  C  C82  1  0.61922200  0.71816300  0.59275300  1
  C  C83  1  0.68907400  0.68500700  0.61644900  1
  C  C84  1  0.76508700  0.68267900  0.59449500  1
  C  C85  1  0.77155300  0.71410800  0.54893900  1
  C  C86  1  0.70195900  0.74778000  0.52529500  1
  N  N1  1  0.49715700  0.49980200  0.80011500  1
  N  N2  1  0.50473600  0.50059600  0.20093100  1
  N  N3  1  0.46681400  0.98337000  0.49900500  1
  N  N4  1  0.53569100  0.01683600  0.50150400  1
  N  N5  1  0.72217000  0.50679600  0.50835100  1
  N  N6  1  0.28000200  0.49337300  0.49282600  1
  N  N7  1  0.98415500  0.50300500  0.52005600  1
  N  N8  1  0.01795800  0.49661700  0.48050800  1
  Cl  Cl1  1  0.45633000  0.71429400  0.37921100  1
  Cl  Cl2  1  0.54950700  0.28420600  0.38207400  1
  Cl  Cl3  1  0.47186500  0.27895800  0.61975700  1
  Cl  Cl4  1  0.52340200  0.72168400  0.62151300  1
  O  O1  1  0.42320200  0.61300600  0.49851400  1
  O  O2  1  0.57894000  0.38712600  0.50356000  1
  O  O3  1  0.56752600  0.61828000  0.50229300  1
  O  O4  1  0.43466100  0.38186100  0.49772700  1
  O  O5  1  0.42703900  0.49654600  0.57028800  1
  O  O6  1  0.57522500  0.50214500  0.43080000  1
  O  O7  1  0.57143700  0.50342800  0.57504900  1
  O  O8  1  0.43053800  0.49834700  0.42602900  1
  O  O9  1  0.50548000  0.63415700  0.79924400  1
  O  O10  1  0.52714800  0.36721700  0.20243900  1
  O  O11  1  0.48203000  0.63394200  0.20127500  1
  O  O12  1  0.48902900  0.36542500  0.79920900  1
