# generated using pymatgen
data_ZnH19C25(NO)4
_symmetry_space_group_name_H-M   'P 1'
_cell_length_a   15.93674800
_cell_length_b   15.95311600
_cell_length_c   17.10770500
_cell_angle_alpha   89.99391700
_cell_angle_beta   89.11859500
_cell_angle_gamma   92.72049600
_symmetry_Int_Tables_number   1
_chemical_formula_structural   ZnH19C25(NO)4
_chemical_formula_sum   'Zn2 H38 C50 N8 O8'
_cell_volume   4344.05880834
_cell_formula_units_Z   2
loop_
 _symmetry_equiv_pos_site_id
 _symmetry_equiv_pos_as_xyz
  1  'x, y, z'
loop_
 _atom_site_type_symbol
 _atom_site_label
 _atom_site_symmetry_multiplicity
 _atom_site_fract_x
 _atom_site_fract_y
 _atom_site_fract_z
 _atom_site_occupancy
  Zn  Zn1  1  0.58894800  0.49735700  0.50223000  1
  Zn  Zn2  1  0.39799100  0.48773700  0.49518300  1
  H  H1  1  0.50307900  0.93090700  0.37436300  1
  H  H2  1  0.36297300  0.06128700  0.53434500  1
  H  H3  1  0.37950400  0.05262100  0.43094400  1
  H  H4  1  0.37014400  0.91148700  0.44650800  1
  H  H5  1  0.36980900  0.92189100  0.55167700  1
  H  H6  1  0.58596600  0.07350100  0.59049600  1
  H  H7  1  0.47857900  0.05548800  0.62362300  1
  H  H8  1  0.60227300  0.93429100  0.57026500  1
  H  H9  1  0.61796900  0.05572700  0.45515600  1
  H  H10  1  0.60196600  0.91859600  0.42225500  1
  H  H11  1  0.50488900  0.91695400  0.62457200  1
  H  H12  1  0.61279500  0.49848300  0.75361500  1
  H  H13  1  0.60447100  0.49820000  0.89357200  1
  H  H14  1  0.65148800  0.50098700  0.11361100  1
  H  H15  1  0.64259200  0.50062400  0.25566000  1
  H  H16  1  0.34437000  0.48469900  0.74182800  1
  H  H17  1  0.38257700  0.48706600  0.10378200  1
  H  H18  1  0.33555900  0.48439000  0.88387500  1
  H  H19  1  0.37418000  0.48672700  0.24372500  1
  H  H20  1  0.72612800  0.44936000  0.39479000  1
  H  H21  1  0.11601600  0.36208700  0.41607600  1
  H  H22  1  0.26982300  0.37314300  0.42055000  1
  H  H23  1  0.71802300  0.56370100  0.61573100  1
  H  H24  1  0.10854200  0.58216200  0.55912900  1
  H  H25  1  0.87173000  0.57450700  0.61836200  1
  H  H26  1  0.26034500  0.58812300  0.56181300  1
  H  H27  1  0.48055100  0.07249800  0.34082900  1
  H  H28  1  0.51450900  0.00662400  0.22601500  1
  H  H29  1  0.62075800  0.98053000  0.12541700  1
  H  H30  1  0.76831100  0.02652100  0.14518100  1
  H  H31  1  0.80911100  0.10049400  0.26569000  1
  H  H32  1  0.70346400  0.12856500  0.36636600  1
  H  H33  1  0.93566300  0.50186900  0.35712400  1
  H  H34  1  0.99948400  0.40647500  0.27352200  1
  H  H35  1  0.03693400  0.26145100  0.25127500  1
  H  H36  1  0.96565000  0.14653900  0.32594400  1
  H  H37  1  0.85599900  0.17729700  0.42272800  1
  H  H38  1  0.81720700  0.31959900  0.44613100  1
  C  C1  1  0.50196100  0.49336500  0.34574400  1
  C  C2  1  0.49405900  0.32876900  0.49841400  1
  C  C3  1  0.48493300  0.49183300  0.65166000  1
  C  C4  1  0.49290200  0.65632100  0.49906700  1
  C  C5  1  0.55306800  0.04149100  0.43534800  1
  C  C6  1  0.40444400  0.03558600  0.48851700  1
  C  C7  1  0.40325400  0.94103800  0.49674000  1
  C  C8  1  0.49270000  0.74622600  0.49910400  1
  C  C9  1  0.49369700  0.07165900  0.49885500  1
  C  C10  1  0.54001900  0.94718600  0.42707700  1
  C  C11  1  0.49277200  0.91338400  0.49883900  1
  C  C12  1  0.53457500  0.94751100  0.57218800  1
  C  C13  1  0.52468000  0.04147600  0.57677300  1
  C  C14  1  0.49267500  0.82173300  0.49904000  1
  C  C15  1  0.49413000  0.16334500  0.49853900  1
  C  C16  1  0.49422900  0.23886200  0.49843100  1
  C  C17  1  0.50760000  0.49368500  0.26010200  1
  C  C18  1  0.43559800  0.48991400  0.21594900  1
  C  C19  1  0.44086600  0.49012000  0.13535900  1
  C  C20  1  0.51894000  0.49412500  0.09805300  1
  C  C21  1  0.59052900  0.49787200  0.14232300  1
  C  C22  1  0.58519500  0.49766100  0.22276200  1
  C  C23  1  0.54616900  0.49516200  0.86201700  1
  C  C24  1  0.55138900  0.49533300  0.78142000  1
  C  C25  1  0.46811500  0.49120100  0.89936100  1
  C  C26  1  0.47935300  0.49157600  0.73730700  1
  C  C27  1  0.40178600  0.48765500  0.77469300  1
  C  C28  1  0.39650200  0.48747300  0.85513000  1
  C  C29  1  0.22806600  0.53864000  0.52928100  1
  C  C30  1  0.14142200  0.53478900  0.52744700  1
  C  C31  1  0.10012200  0.47077700  0.48635400  1
  C  C32  1  0.14702800  0.41257100  0.44830700  1
  C  C33  1  0.23343100  0.41881600  0.45090200  1
  C  C34  1  0.84553300  0.47955700  0.44399000  1
  C  C35  1  0.75869900  0.47498600  0.44495000  1
  C  C36  1  0.88746600  0.51530100  0.50774800  1
  C  C37  1  0.75400500  0.53938600  0.56747200  1
  C  C38  1  0.84045900  0.54586600  0.56877400  1
  C  C39  1  0.60202100  0.06722700  0.30425500  1
  C  C40  1  0.57910800  0.02734600  0.23553500  1
  C  C41  1  0.63885000  0.01241200  0.17874200  1
  C  C42  1  0.72154400  0.03813400  0.18981000  1
  C  C43  1  0.74442900  0.07941800  0.25748100  1
  C  C44  1  0.68486400  0.09436000  0.31444600  1
  C  C45  1  0.90625100  0.37479900  0.36138300  1
  C  C46  1  0.96748400  0.35657400  0.30669800  1
  C  C47  1  0.98877500  0.27493400  0.29401000  1
  C  C48  1  0.94893000  0.21059100  0.33584100  1
  C  C49  1  0.88746600  0.22792500  0.39010000  1
  C  C50  1  0.86581500  0.30950000  0.40305700  1
  N  N1  1  0.52782000  0.49447800  0.01563500  1
  N  N2  1  0.45926500  0.49085700  0.98178000  1
  N  N3  1  0.27255100  0.48128900  0.49113500  1
  N  N4  1  0.01157000  0.46313100  0.48189900  1
  N  N5  1  0.97615000  0.52271000  0.51295000  1
  N  N6  1  0.71448200  0.50375900  0.50613600  1
  N  N7  1  0.54013700  0.08321800  0.36180300  1
  N  N8  1  0.88739200  0.45998000  0.37320400  1
  O  O1  1  0.57200700  0.49697500  0.38511900  1
  O  O2  1  0.42736100  0.48944200  0.37952000  1
  O  O3  1  0.56638800  0.37131500  0.50121200  1
  O  O4  1  0.42151800  0.36405500  0.49577700  1
  O  O5  1  0.55958100  0.49561900  0.61789800  1
  O  O6  1  0.41481100  0.48843000  0.61231100  1
  O  O7  1  0.56546500  0.62105000  0.50185300  1
  O  O8  1  0.42056000  0.61378300  0.49610000  1
