# generated using pymatgen
data_Cu3H48C60(NO3)4
_symmetry_space_group_name_H-M   'P 1'
_cell_length_a   21.53845400
_cell_length_b   21.53845400
_cell_length_c   38.25875700
_cell_angle_alpha   90.00000000
_cell_angle_beta   90.00000000
_cell_angle_gamma   90.00000000
_symmetry_Int_Tables_number   1
_chemical_formula_structural   Cu3H48C60(NO3)4
_chemical_formula_sum   'Cu12 H192 C240 N16 O48'
_cell_volume   17748.42869325
_cell_formula_units_Z   4
loop_
 _symmetry_equiv_pos_site_id
 _symmetry_equiv_pos_as_xyz
  1  'x, y, z'
loop_
 _atom_site_type_symbol
 _atom_site_label
 _atom_site_symmetry_multiplicity
 _atom_site_fract_x
 _atom_site_fract_y
 _atom_site_fract_z
 _atom_site_occupancy
  Cu  Cu1  1  0.56031300  0.00000000  0.50000000  1
  Cu  Cu2  1  0.00000000  0.56031300  0.50000000  1
  Cu  Cu3  1  0.43968700  0.00000000  0.50000000  1
  Cu  Cu4  1  0.00000000  0.43968700  0.50000000  1
  Cu  Cu5  1  0.06031300  0.50000000  0.00000000  1
  Cu  Cu6  1  0.50000000  0.06031200  0.00000000  1
  Cu  Cu7  1  0.93968700  0.50000000  0.00000000  1
  Cu  Cu8  1  0.50000000  0.93968700  0.00000000  1
  Cu  Cu9  1  0.50000000  0.50000000  0.53436000  1
  Cu  Cu10  1  0.50000000  0.50000000  0.46564000  1
  Cu  Cu11  1  0.00000000  0.00000000  0.03436000  1
  Cu  Cu12  1  0.00000000  0.00000000  0.96564000  1
  H  H1  1  0.41763700  0.05550200  0.39121900  1
  H  H2  1  0.94449800  0.41763700  0.39121900  1
  H  H3  1  0.58236300  0.94449800  0.39121900  1
  H  H4  1  0.05550200  0.58236300  0.39121900  1
  H  H5  1  0.41763700  0.94449800  0.60878100  1
  H  H6  1  0.94449800  0.58236300  0.60878100  1
  H  H7  1  0.58236300  0.05550200  0.60878100  1
  H  H8  1  0.05550200  0.41763700  0.60878100  1
  H  H9  1  0.91763700  0.55550200  0.89121900  1
  H  H10  1  0.44449800  0.91763700  0.89121900  1
  H  H11  1  0.08236300  0.44449800  0.89121900  1
  H  H12  1  0.55550200  0.08236300  0.89121900  1
  H  H13  1  0.91763700  0.44449800  0.10878100  1
  H  H14  1  0.44449800  0.08236300  0.10878100  1
  H  H15  1  0.08236300  0.55550200  0.10878100  1
  H  H16  1  0.55550200  0.91763700  0.10878100  1
  H  H17  1  0.41769400  0.05576900  0.32799500  1
  H  H18  1  0.94423100  0.41769400  0.32799500  1
  H  H19  1  0.58230600  0.94423100  0.32799500  1
  H  H20  1  0.05576900  0.58230600  0.32799500  1
  H  H21  1  0.41769400  0.94423100  0.67200500  1
  H  H22  1  0.94423100  0.58230600  0.67200500  1
  H  H23  1  0.58230600  0.05576900  0.67200500  1
  H  H24  1  0.05576900  0.41769400  0.67200500  1
  H  H25  1  0.91769400  0.55576900  0.82799500  1
  H  H26  1  0.44423100  0.91769400  0.82799500  1
  H  H27  1  0.08230600  0.44423100  0.82799500  1
  H  H28  1  0.55576900  0.08230600  0.82799500  1
  H  H29  1  0.91769400  0.44423100  0.17200500  1
  H  H30  1  0.44423100  0.08230600  0.17200500  1
  H  H31  1  0.08230600  0.55576900  0.17200500  1
  H  H32  1  0.55576900  0.91769400  0.17200500  1
  H  H33  1  0.67494800  0.19473300  0.56651600  1
  H  H34  1  0.80526700  0.67494800  0.56651600  1
  H  H35  1  0.32505200  0.80526700  0.56651600  1
  H  H36  1  0.19473300  0.32505200  0.56651600  1
  H  H37  1  0.67494800  0.80526700  0.43348400  1
  H  H38  1  0.80526700  0.32505200  0.43348400  1
  H  H39  1  0.32505200  0.19473300  0.43348400  1
  H  H40  1  0.19473300  0.67494800  0.43348400  1
  H  H41  1  0.17494800  0.69473300  0.06651600  1
  H  H42  1  0.30526700  0.17494800  0.06651600  1
  H  H43  1  0.82505200  0.30526700  0.06651600  1
  H  H44  1  0.69473300  0.82505200  0.06651600  1
  H  H45  1  0.17494800  0.30526700  0.93348400  1
  H  H46  1  0.30526700  0.82505200  0.93348400  1
  H  H47  1  0.82505200  0.69473200  0.93348400  1
  H  H48  1  0.69473300  0.17494800  0.93348400  1
  H  H49  1  0.40798800  0.13839400  0.45921900  1
  H  H50  1  0.86160600  0.40798800  0.45921900  1
  H  H51  1  0.59201200  0.86160600  0.45921900  1
  H  H52  1  0.13839400  0.59201200  0.45921900  1
  H  H53  1  0.40798900  0.86160600  0.54078000  1
  H  H54  1  0.86160600  0.59201100  0.54078000  1
  H  H55  1  0.59201100  0.13839400  0.54078000  1
  H  H56  1  0.13839400  0.40798900  0.54078000  1
  H  H57  1  0.90798800  0.63839400  0.95921900  1
  H  H58  1  0.36160600  0.90798800  0.95921900  1
  H  H59  1  0.09201200  0.36160600  0.95921900  1
  H  H60  1  0.63839400  0.09201100  0.95922000  1
  H  H61  1  0.90798900  0.36160600  0.04078000  1
  H  H62  1  0.36160600  0.09201200  0.04078100  1
  H  H63  1  0.09201100  0.63839400  0.04078000  1
  H  H64  1  0.63839400  0.90798800  0.04078100  1
  H  H65  1  0.40028800  0.36441500  0.46940200  1
  H  H66  1  0.63558500  0.40028900  0.46940200  1
  H  H67  1  0.59971200  0.63558500  0.46940200  1
  H  H68  1  0.36441500  0.59971200  0.46940200  1
  H  H69  1  0.40028900  0.63558500  0.53059800  1
  H  H70  1  0.63558500  0.59971100  0.53059800  1
  H  H71  1  0.59971100  0.36441500  0.53059800  1
  H  H72  1  0.36441500  0.40028900  0.53059800  1
  H  H73  1  0.90028800  0.86441500  0.96940200  1
  H  H74  1  0.13558500  0.90028900  0.96940200  1
  H  H75  1  0.09971200  0.13558500  0.96940200  1
  H  H76  1  0.86441500  0.09971100  0.96940200  1
  H  H77  1  0.90028900  0.13558500  0.03059800  1
  H  H78  1  0.13558500  0.09971100  0.03059800  1
  H  H79  1  0.09971100  0.86441500  0.03059800  1
  H  H80  1  0.86441500  0.90028900  0.03059800  1
  H  H81  1  0.31198800  0.37015400  0.43950400  1
  H  H82  1  0.28925600  0.26241600  0.38865900  1
  H  H83  1  0.35075800  0.31921500  0.38441600  1
  H  H84  1  0.27047800  0.34345400  0.38333600  1
  H  H85  1  0.23151800  0.25281900  0.44412900  1
  H  H86  1  0.20620000  0.33237500  0.43997100  1
  H  H87  1  0.24533700  0.30747000  0.47915900  1
  H  H88  1  0.62984600  0.31198800  0.43950400  1
  H  H89  1  0.73758400  0.28925600  0.38865900  1
  H  H90  1  0.68078500  0.35075800  0.38441600  1
  H  H91  1  0.65654600  0.27047800  0.38333600  1
  H  H92  1  0.74718100  0.23151800  0.44412900  1
  H  H93  1  0.66762500  0.20620000  0.43997100  1
  H  H94  1  0.69253000  0.24533700  0.47915900  1
  H  H95  1  0.68801200  0.62984600  0.43950400  1
  H  H96  1  0.71074400  0.73758400  0.38865900  1
  H  H97  1  0.64924200  0.68078500  0.38441600  1
  H  H98  1  0.72952200  0.65654600  0.38333600  1
  H  H99  1  0.76848200  0.74718100  0.44412900  1
  H  H100  1  0.79380000  0.66762500  0.43997100  1
  H  H101  1  0.75466300  0.69253000  0.47915900  1
  H  H102  1  0.37015400  0.68801200  0.43950400  1
  H  H103  1  0.26241600  0.71074400  0.38865900  1
  H  H104  1  0.31921500  0.64924200  0.38441600  1
  H  H105  1  0.34345400  0.72952200  0.38333600  1
  H  H106  1  0.25281900  0.76848200  0.44412900  1
  H  H107  1  0.33237500  0.79380000  0.43997100  1
  H  H108  1  0.30747000  0.75466400  0.47915900  1
  H  H109  1  0.31198800  0.62984600  0.56049600  1
  H  H110  1  0.28925600  0.73758400  0.61134100  1
  H  H111  1  0.35075800  0.68078500  0.61558400  1
  H  H112  1  0.27047800  0.65654600  0.61666400  1
  H  H113  1  0.23151800  0.74718100  0.55587000  1
  H  H114  1  0.20620000  0.66762500  0.56002900  1
  H  H115  1  0.24533600  0.69253000  0.52084100  1
  H  H116  1  0.62984600  0.68801200  0.56049600  1
  H  H117  1  0.73758400  0.71074400  0.61134100  1
  H  H118  1  0.68078500  0.64924200  0.61558400  1
  H  H119  1  0.65654600  0.72952200  0.61666400  1
  H  H120  1  0.74718100  0.76848200  0.55587000  1
  H  H121  1  0.66762500  0.79380000  0.56002900  1
  H  H122  1  0.69253000  0.75466400  0.52084100  1
  H  H123  1  0.68801200  0.37015400  0.56049600  1
  H  H124  1  0.71074400  0.26241600  0.61134100  1
  H  H125  1  0.64924200  0.31921500  0.61558400  1
  H  H126  1  0.72952200  0.34345400  0.61666400  1
  H  H127  1  0.76848200  0.25281900  0.55587000  1
  H  H128  1  0.79380000  0.33237500  0.56002900  1
  H  H129  1  0.75466300  0.30747000  0.52084100  1
  H  H130  1  0.37015400  0.31198800  0.56049600  1
  H  H131  1  0.26241600  0.28925600  0.61134100  1
  H  H132  1  0.31921500  0.35075800  0.61558400  1
  H  H133  1  0.34345400  0.27047800  0.61666400  1
  H  H134  1  0.25281900  0.23151800  0.55587000  1
  H  H135  1  0.33237500  0.20620000  0.56002900  1
  H  H136  1  0.30747000  0.24533600  0.52084100  1
  H  H137  1  0.81198800  0.87015400  0.93950400  1
  H  H138  1  0.78925600  0.76241600  0.88865900  1
  H  H139  1  0.85075800  0.81921500  0.88441600  1
  H  H140  1  0.77047800  0.84345400  0.88333600  1
  H  H141  1  0.73151800  0.75281900  0.94412900  1
  H  H142  1  0.70620000  0.83237500  0.93997100  1
  H  H143  1  0.74533600  0.80747000  0.97915900  1
  H  H144  1  0.12984600  0.81198800  0.93950400  1
  H  H145  1  0.23758400  0.78925600  0.88865900  1
  H  H146  1  0.18078500  0.85075800  0.88441600  1
  H  H147  1  0.15654600  0.77047800  0.88333600  1
  H  H148  1  0.24718100  0.73151800  0.94412900  1
  H  H149  1  0.16762500  0.70620000  0.93997100  1
  H  H150  1  0.19253000  0.74533600  0.97915900  1
  H  H151  1  0.18801200  0.12984600  0.93950400  1
  H  H152  1  0.21074400  0.23758400  0.88865900  1
  H  H153  1  0.14924200  0.18078500  0.88441600  1
  H  H154  1  0.22952200  0.15654600  0.88333600  1
  H  H155  1  0.26848200  0.24718100  0.94412900  1
  H  H156  1  0.29380000  0.16762500  0.93997100  1
  H  H157  1  0.25466300  0.19253000  0.97915900  1
  H  H158  1  0.87015400  0.18801200  0.93950400  1
  H  H159  1  0.76241600  0.21074400  0.88865900  1
  H  H160  1  0.81921500  0.14924200  0.88441600  1
  H  H161  1  0.84345400  0.22952200  0.88333600  1
  H  H162  1  0.75281900  0.26848200  0.94413000  1
  H  H163  1  0.83237500  0.29380000  0.93997100  1
  H  H164  1  0.80747000  0.25466300  0.97915900  1
  H  H165  1  0.81198800  0.12984600  0.06049600  1
  H  H166  1  0.78925600  0.23758400  0.11134100  1
  H  H167  1  0.85075800  0.18078500  0.11558400  1
  H  H168  1  0.77047800  0.15654600  0.11666400  1
  H  H169  1  0.73151800  0.24718100  0.05587000  1
  H  H170  1  0.70620000  0.16762500  0.06002900  1
  H  H171  1  0.74533600  0.19253000  0.02084100  1
  H  H172  1  0.12984600  0.18801200  0.06049600  1
  H  H173  1  0.23758400  0.21074400  0.11134100  1
  H  H174  1  0.18078500  0.14924200  0.11558400  1
  H  H175  1  0.15654600  0.22952200  0.11666400  1
  H  H176  1  0.24718100  0.26848200  0.05587000  1
  H  H177  1  0.16762500  0.29380000  0.06002900  1
  H  H178  1  0.19253000  0.25466300  0.02084100  1
  H  H179  1  0.18801200  0.87015400  0.06049600  1
  H  H180  1  0.21074400  0.76241600  0.11134100  1
  H  H181  1  0.14924200  0.81921500  0.11558400  1
  H  H182  1  0.22952200  0.84345400  0.11666400  1
  H  H183  1  0.26848200  0.75281900  0.05587000  1
  H  H184  1  0.29380000  0.83237500  0.06002900  1
  H  H185  1  0.25466400  0.80747000  0.02084100  1
  H  H186  1  0.87015400  0.81198800  0.06049600  1
  H  H187  1  0.76241600  0.78925600  0.11134100  1
  H  H188  1  0.81921500  0.85075800  0.11558400  1
  H  H189  1  0.84345400  0.77047800  0.11666400  1
  H  H190  1  0.75281900  0.73151800  0.05587000  1
  H  H191  1  0.83237500  0.70620000  0.06002900  1
  H  H192  1  0.80747000  0.74533600  0.02084100  1
  C  C1  1  0.50000000  0.11746900  0.50000000  1
  C  C2  1  0.88253100  0.50000000  0.50000000  1
  C  C3  1  0.50000000  0.88253100  0.50000000  1
  C  C4  1  0.11746900  0.50000000  0.50000000  1
  C  C5  1  0.00000000  0.61746900  0.00000000  1
  C  C6  1  0.38253100  0.00000000  0.00000000  1
  C  C7  1  0.00000000  0.38253100  0.00000000  1
  C  C8  1  0.61746900  0.00000000  0.00000000  1
  C  C9  1  0.50000000  0.00000000  0.43402800  1
  C  C10  1  0.00000000  0.50000000  0.43402800  1
  C  C11  1  0.50000000  0.00000000  0.56597200  1
  C  C12  1  0.00000000  0.50000000  0.56597200  1
  C  C13  1  0.00000000  0.50000000  0.93402800  1
  C  C14  1  0.50000000  0.00000000  0.93402800  1
  C  C15  1  0.00000000  0.50000000  0.06597200  1
  C  C16  1  0.50000000  0.00000000  0.06597200  1
  C  C17  1  0.45393700  0.03077400  0.37756700  1
  C  C18  1  0.96922600  0.45393700  0.37756700  1
  C  C19  1  0.54606300  0.96922600  0.37756700  1
  C  C20  1  0.03077400  0.54606300  0.37756700  1
  C  C21  1  0.45393700  0.96922600  0.62243200  1
  C  C22  1  0.96922600  0.54606300  0.62243200  1
  C  C23  1  0.54606300  0.03077400  0.62243200  1
  C  C24  1  0.03077400  0.45393700  0.62243200  1
  C  C25  1  0.95393700  0.53077400  0.87756700  1
  C  C26  1  0.46922600  0.95393700  0.87756700  1
  C  C27  1  0.04606300  0.46922600  0.87756700  1
  C  C28  1  0.53077400  0.04606300  0.87756800  1
  C  C29  1  0.95393700  0.46922600  0.12243200  1
  C  C30  1  0.46922600  0.04606300  0.12243200  1
  C  C31  1  0.04606300  0.53077400  0.12243200  1
  C  C32  1  0.53077400  0.95393700  0.12243200  1
  C  C33  1  0.45420200  0.03119600  0.34154100  1
  C  C34  1  0.96880400  0.45420300  0.34154100  1
  C  C35  1  0.54579700  0.96880400  0.34154100  1
  C  C36  1  0.03119600  0.54579800  0.34154100  1
  C  C37  1  0.45420200  0.96880400  0.65845900  1
  C  C38  1  0.96880400  0.54579800  0.65845900  1
  C  C39  1  0.54579700  0.03119600  0.65845900  1
  C  C40  1  0.03119600  0.45420200  0.65845900  1
  C  C41  1  0.95420200  0.53119600  0.84154100  1
  C  C42  1  0.46880400  0.95420200  0.84154100  1
  C  C43  1  0.04579700  0.46880400  0.84154100  1
  C  C44  1  0.53119600  0.04579700  0.84154100  1
  C  C45  1  0.95420200  0.46880400  0.15845900  1
  C  C46  1  0.46880400  0.04579700  0.15845900  1
  C  C47  1  0.04579800  0.53119600  0.15845900  1
  C  C48  1  0.53119600  0.95420200  0.15845900  1
  C  C49  1  0.50000000  0.00000000  0.32329800  1
  C  C50  1  0.00000000  0.50000000  0.32329800  1
  C  C51  1  0.50000000  0.00000000  0.67670200  1
  C  C52  1  0.00000000  0.50000000  0.67670200  1
  C  C53  1  0.00000000  0.50000000  0.82329800  1
  C  C54  1  0.50000000  0.00000000  0.82329800  1
  C  C55  1  0.00000000  0.50000000  0.17670200  1
  C  C56  1  0.50000000  0.00000000  0.17670200  1
  C  C57  1  0.50000000  0.00000000  0.39576000  1
  C  C58  1  0.00000000  0.50000000  0.39576000  1
  C  C59  1  0.50000000  0.00000000  0.60423900  1
  C  C60  1  0.00000000  0.50000000  0.60423900  1
  C  C61  1  0.00000000  0.50000000  0.89576000  1
  C  C62  1  0.50000000  0.00000000  0.89576000  1
  C  C63  1  0.00000000  0.50000000  0.10423900  1
  C  C64  1  0.50000000  0.00000000  0.10423900  1
  C  C65  1  0.50000000  0.00000000  0.21503800  1
  C  C66  1  0.00000000  0.50000000  0.21503800  1
  C  C67  1  0.50000000  0.00000000  0.78496200  1
  C  C68  1  0.00000000  0.50000000  0.78496200  1
  C  C69  1  0.00000000  0.50000000  0.71503800  1
  C  C70  1  0.50000000  0.00000000  0.71503800  1
  C  C71  1  0.00000000  0.50000000  0.28496200  1
  C  C72  1  0.50000000  0.00000000  0.28496200  1
  C  C73  1  0.40769600  0.18783200  0.46329500  1
  C  C74  1  0.81216800  0.40769600  0.46329500  1
  C  C75  1  0.59230400  0.81216800  0.46329500  1
  C  C76  1  0.18783200  0.59230400  0.46329500  1
  C  C77  1  0.40769600  0.81216800  0.53670500  1
  C  C78  1  0.81216700  0.59230400  0.53670500  1
  C  C79  1  0.59230400  0.18783300  0.53670500  1
  C  C80  1  0.18783200  0.40769600  0.53670500  1
  C  C81  1  0.90769600  0.68783200  0.96329500  1
  C  C82  1  0.31216800  0.90769600  0.96329500  1
  C  C83  1  0.09230400  0.31216700  0.96329500  1
  C  C84  1  0.68783200  0.09230400  0.96329500  1
  C  C85  1  0.90769600  0.31216700  0.03670500  1
  C  C86  1  0.31216800  0.09230400  0.03670500  1
  C  C87  1  0.09230400  0.68783200  0.03670500  1
  C  C88  1  0.68783200  0.90769600  0.03670500  1
  C  C89  1  0.35999000  0.22016600  0.44779400  1
  C  C90  1  0.77983400  0.35999000  0.44779400  1
  C  C91  1  0.64001000  0.77983400  0.44779400  1
  C  C92  1  0.22016600  0.64001000  0.44779400  1
  C  C93  1  0.35999000  0.77983400  0.55220600  1
  C  C94  1  0.77983400  0.64001000  0.55220600  1
  C  C95  1  0.64001000  0.22016600  0.55220600  1
  C  C96  1  0.22016600  0.35999000  0.55220600  1
  C  C97  1  0.85999000  0.72016600  0.94779400  1
  C  C98  1  0.27983400  0.85999000  0.94779400  1
  C  C99  1  0.14001000  0.27983400  0.94779400  1
  C  C100  1  0.72016600  0.14001000  0.94779400  1
  C  C101  1  0.85999000  0.27983400  0.05220600  1
  C  C102  1  0.27983400  0.14001000  0.05220600  1
  C  C103  1  0.14001000  0.72016600  0.05220600  1
  C  C104  1  0.72016600  0.85999000  0.05220600  1
  C  C105  1  0.35699100  0.28376300  0.45067400  1
  C  C106  1  0.71623700  0.35699100  0.45067400  1
  C  C107  1  0.64300900  0.71623800  0.45067400  1
  C  C108  1  0.28376200  0.64300900  0.45067400  1
  C  C109  1  0.35699100  0.71623800  0.54932600  1
  C  C110  1  0.71623700  0.64300900  0.54932600  1
  C  C111  1  0.64300900  0.28376300  0.54932600  1
  C  C112  1  0.28376200  0.35699100  0.54932600  1
  C  C113  1  0.85699100  0.78376200  0.95067400  1
  C  C114  1  0.21623700  0.85699100  0.95067400  1
  C  C115  1  0.14300900  0.21623700  0.95067400  1
  C  C116  1  0.78376200  0.14300900  0.95067400  1
  C  C117  1  0.85699100  0.21623700  0.04932600  1
  C  C118  1  0.21623700  0.14300900  0.04932600  1
  C  C119  1  0.14300900  0.78376200  0.04932600  1
  C  C120  1  0.78376200  0.85699100  0.04932600  1
  C  C121  1  0.40350800  0.31467700  0.46813200  1
  C  C122  1  0.68532300  0.40350800  0.46813200  1
  C  C123  1  0.59649200  0.68532300  0.46813200  1
  C  C124  1  0.31467700  0.59649200  0.46813200  1
  C  C125  1  0.40350800  0.68532300  0.53186700  1
  C  C126  1  0.68532300  0.59649200  0.53186700  1
  C  C127  1  0.59649200  0.31467700  0.53186700  1
  C  C128  1  0.31467700  0.40350800  0.53186700  1
  C  C129  1  0.90350800  0.81467700  0.96813200  1
  C  C130  1  0.18532300  0.90350800  0.96813200  1
  C  C131  1  0.09649200  0.18532300  0.96813200  1
  C  C132  1  0.81467700  0.09649200  0.96813200  1
  C  C133  1  0.90350800  0.18532300  0.03186700  1
  C  C134  1  0.18532300  0.09649200  0.03186700  1
  C  C135  1  0.09649200  0.81467700  0.03186700  1
  C  C136  1  0.81467700  0.90350800  0.03186700  1
  C  C137  1  0.45227700  0.28258300  0.48363400  1
  C  C138  1  0.71741700  0.45227700  0.48363400  1
  C  C139  1  0.54772300  0.71741700  0.48363400  1
  C  C140  1  0.28258300  0.54772300  0.48363400  1
  C  C141  1  0.45227700  0.71741700  0.51636600  1
  C  C142  1  0.71741700  0.54772300  0.51636600  1
  C  C143  1  0.54772300  0.28258300  0.51636600  1
  C  C144  1  0.28258300  0.45227700  0.51636600  1
  C  C145  1  0.95227700  0.78258300  0.98363400  1
  C  C146  1  0.21741700  0.95227700  0.98363400  1
  C  C147  1  0.04772300  0.21741700  0.98363400  1
  C  C148  1  0.78258300  0.04772300  0.98363400  1
  C  C149  1  0.95227700  0.21741700  0.01636600  1
  C  C150  1  0.21741700  0.04772300  0.01636600  1
  C  C151  1  0.04772300  0.78258300  0.01636600  1
  C  C152  1  0.78258300  0.95227700  0.01636600  1
  C  C153  1  0.45319300  0.21837700  0.48257300  1
  C  C154  1  0.78162300  0.45319300  0.48257300  1
  C  C155  1  0.54680700  0.78162300  0.48257300  1
  C  C156  1  0.21837700  0.54680700  0.48257300  1
  C  C157  1  0.45319300  0.78162300  0.51742700  1
  C  C158  1  0.78162300  0.54680700  0.51742700  1
  C  C159  1  0.54680700  0.21837700  0.51742700  1
  C  C160  1  0.21837700  0.45319300  0.51742700  1
  C  C161  1  0.95319300  0.71837700  0.98257300  1
  C  C162  1  0.28162300  0.95319300  0.98257300  1
  C  C163  1  0.04680700  0.28162300  0.98257300  1
  C  C164  1  0.71837700  0.04680700  0.98257300  1
  C  C165  1  0.95319300  0.28162300  0.01742700  1
  C  C166  1  0.28162300  0.04680700  0.01742700  1
  C  C167  1  0.04680700  0.71837700  0.01742700  1
  C  C168  1  0.71837700  0.95319300  0.01742700  1
  C  C169  1  0.50000000  0.31457100  0.50000000  1
  C  C170  1  0.68542900  0.50000000  0.50000000  1
  C  C171  1  0.50000000  0.68542900  0.50000000  1
  C  C172  1  0.31457100  0.50000000  0.50000000  1
  C  C173  1  0.00000000  0.81457100  0.00000000  1
  C  C174  1  0.18542900  0.00000000  0.00000000  1
  C  C175  1  0.00000000  0.18542900  0.00000000  1
  C  C176  1  0.81457100  0.00000000  0.00000000  1
  C  C177  1  0.50000000  0.18582200  0.50000000  1
  C  C178  1  0.81417800  0.50000000  0.50000000  1
  C  C179  1  0.50000000  0.81417800  0.50000000  1
  C  C180  1  0.18582200  0.50000000  0.50000000  1
  C  C181  1  0.00000000  0.68582200  0.00000000  1
  C  C182  1  0.31417800  0.00000000  0.00000000  1
  C  C183  1  0.00000000  0.31417800  0.00000000  1
  C  C184  1  0.68582200  0.00000000  0.00000000  1
  C  C185  1  0.61759600  0.50000000  0.50000000  1
  C  C186  1  0.50000000  0.61759600  0.50000000  1
  C  C187  1  0.38240400  0.50000000  0.50000000  1
  C  C188  1  0.50000000  0.38240400  0.50000000  1
  C  C189  1  0.11759600  0.00000000  0.00000000  1
  C  C190  1  0.00000000  0.11759600  0.00000000  1
  C  C191  1  0.88240400  0.00000000  0.00000000  1
  C  C192  1  0.00000000  0.88240400  0.00000000  1
  C  C193  1  0.30500000  0.31994900  0.43450300  1
  C  C194  1  0.30380500  0.31037400  0.39521600  1
  C  C195  1  0.24311100  0.30167500  0.45043400  1
  C  C196  1  0.68005100  0.30500000  0.43450300  1
  C  C197  1  0.68962600  0.30380500  0.39521600  1
  C  C198  1  0.69832500  0.24311100  0.45043400  1
  C  C199  1  0.69500000  0.68005100  0.43450300  1
  C  C200  1  0.69619500  0.68962700  0.39521600  1
  C  C201  1  0.75688900  0.69832500  0.45043400  1
  C  C202  1  0.31994900  0.69500000  0.43450300  1
  C  C203  1  0.31037300  0.69619500  0.39521600  1
  C  C204  1  0.30167500  0.75688900  0.45043400  1
  C  C205  1  0.30500000  0.68005100  0.56549700  1
  C  C206  1  0.30380500  0.68962700  0.60478400  1
  C  C207  1  0.24311100  0.69832500  0.54956600  1
  C  C208  1  0.68005100  0.69500000  0.56549700  1
  C  C209  1  0.68962600  0.69619500  0.60478400  1
  C  C210  1  0.69832500  0.75688900  0.54956600  1
  C  C211  1  0.69500000  0.31994900  0.56549700  1
  C  C212  1  0.69619500  0.31037400  0.60478400  1
  C  C213  1  0.75688900  0.30167500  0.54956600  1
  C  C214  1  0.31994900  0.30500000  0.56549700  1
  C  C215  1  0.31037300  0.30380500  0.60478400  1
  C  C216  1  0.30167500  0.24311100  0.54956600  1
  C  C217  1  0.80500000  0.81994900  0.93450300  1
  C  C218  1  0.80380500  0.81037300  0.89521600  1
  C  C219  1  0.74311100  0.80167500  0.95043400  1
  C  C220  1  0.18005100  0.80500000  0.93450300  1
  C  C221  1  0.18962600  0.80380500  0.89521600  1
  C  C222  1  0.19832500  0.74311100  0.95043400  1
  C  C223  1  0.19499900  0.18005100  0.93450300  1
  C  C224  1  0.19619500  0.18962600  0.89521600  1
  C  C225  1  0.25688900  0.19832500  0.95043400  1
  C  C226  1  0.81994900  0.19500000  0.93450300  1
  C  C227  1  0.81037300  0.19619500  0.89521600  1
  C  C228  1  0.80167500  0.25688900  0.95043400  1
  C  C229  1  0.80500000  0.18005100  0.06549700  1
  C  C230  1  0.80380500  0.18962600  0.10478400  1
  C  C231  1  0.74311100  0.19832500  0.04956600  1
  C  C232  1  0.18005100  0.19499900  0.06549700  1
  C  C233  1  0.18962600  0.19619500  0.10478400  1
  C  C234  1  0.19832500  0.25688900  0.04956600  1
  C  C235  1  0.19500000  0.81994900  0.06549700  1
  C  C236  1  0.19619500  0.81037300  0.10478400  1
  C  C237  1  0.25688900  0.80167500  0.04956600  1
  C  C238  1  0.81994900  0.80500000  0.06549700  1
  C  C239  1  0.81037300  0.80380500  0.10478400  1
  C  C240  1  0.80167500  0.74311100  0.04956600  1
  N  N1  1  0.53822600  0.96189200  0.26727300  1
  N  N2  1  0.03810800  0.53822600  0.26727300  1
  N  N3  1  0.46177400  0.03810800  0.26727300  1
  N  N4  1  0.96189200  0.46177400  0.26727300  1
  N  N5  1  0.53822600  0.03810800  0.73272700  1
  N  N6  1  0.03810800  0.46177400  0.73272700  1
  N  N7  1  0.46177400  0.96189200  0.73272700  1
  N  N8  1  0.96189200  0.53822600  0.73272700  1
  N  N9  1  0.03822600  0.46189200  0.76727300  1
  N  N10  1  0.53810800  0.03822600  0.76727300  1
  N  N11  1  0.96177400  0.53810800  0.76727300  1
  N  N12  1  0.46189200  0.96177400  0.76727300  1
  N  N13  1  0.03822600  0.53810800  0.23272700  1
  N  N14  1  0.53810800  0.96177400  0.23272700  1
  N  N15  1  0.96177400  0.46189200  0.23272700  1
  N  N16  1  0.46189200  0.03822600  0.23272700  1
  O  O1  1  0.55074700  0.08818100  0.48957700  1
  O  O2  1  0.91181900  0.55074700  0.48957700  1
  O  O3  1  0.44925300  0.91181900  0.48957700  1
  O  O4  1  0.08818100  0.44925300  0.48957700  1
  O  O5  1  0.55074700  0.91181900  0.51042300  1
  O  O6  1  0.91181900  0.44925300  0.51042300  1
  O  O7  1  0.44925300  0.08818100  0.51042300  1
  O  O8  1  0.08818100  0.55074700  0.51042300  1
  O  O9  1  0.05074700  0.58818100  0.98957700  1
  O  O10  1  0.41181900  0.05074700  0.98957700  1
  O  O11  1  0.94925300  0.41181900  0.98957700  1
  O  O12  1  0.58818100  0.94925300  0.98957700  1
  O  O13  1  0.05074700  0.41181900  0.01042300  1
  O  O14  1  0.41181900  0.94925300  0.01042200  1
  O  O15  1  0.94925300  0.58818100  0.01042300  1
  O  O16  1  0.58818100  0.05074700  0.01042300  1
  O  O17  1  0.55073400  0.98134600  0.45043500  1
  O  O18  1  0.01865400  0.55073400  0.45043500  1
  O  O19  1  0.44926600  0.01865400  0.45043500  1
  O  O20  1  0.98134600  0.44926600  0.45043500  1
  O  O21  1  0.55073400  0.01865400  0.54956400  1
  O  O22  1  0.01865400  0.44926600  0.54956400  1
  O  O23  1  0.44926600  0.98134600  0.54956400  1
  O  O24  1  0.98134600  0.55073400  0.54956400  1
  O  O25  1  0.05073400  0.48134600  0.95043500  1
  O  O26  1  0.51865400  0.05073400  0.95043500  1
  O  O27  1  0.94926600  0.51865400  0.95043500  1
  O  O28  1  0.48134600  0.94926600  0.95043500  1
  O  O29  1  0.05073400  0.51865400  0.04956400  1
  O  O30  1  0.51865400  0.94926600  0.04956400  1
  O  O31  1  0.94926600  0.48134600  0.04956400  1
  O  O32  1  0.48134600  0.05073400  0.04956400  1
  O  O33  1  0.58868300  0.48434200  0.52910200  1
  O  O34  1  0.51565800  0.58868300  0.52910200  1
  O  O35  1  0.41131700  0.51565800  0.52910200  1
  O  O36  1  0.48434200  0.41131700  0.52910200  1
  O  O37  1  0.58868300  0.51565800  0.47089800  1
  O  O38  1  0.51565800  0.41131700  0.47089700  1
  O  O39  1  0.41131700  0.48434200  0.47089800  1
  O  O40  1  0.48434200  0.58868300  0.47089800  1
  O  O41  1  0.08868300  0.98434200  0.02910200  1
  O  O42  1  0.01565800  0.08868300  0.02910200  1
  O  O43  1  0.91131700  0.01565800  0.02910200  1
  O  O44  1  0.98434200  0.91131700  0.02910200  1
  O  O45  1  0.08868300  0.01565800  0.97089700  1
  O  O46  1  0.01565800  0.91131700  0.97089700  1
  O  O47  1  0.91131700  0.98434200  0.97089700  1
  O  O48  1  0.98434200  0.08868300  0.97089800  1
