# generated using pymatgen
data_Cu3H44C52S4(NO8)2
_symmetry_space_group_name_H-M   'P 1'
_cell_length_a   21.18850200
_cell_length_b   21.18850200
_cell_length_c   46.54173900
_cell_angle_alpha   90.00000000
_cell_angle_beta   90.00000000
_cell_angle_gamma   90.00000000
_symmetry_Int_Tables_number   1
_chemical_formula_structural   Cu3H44C52S4(NO8)2
_chemical_formula_sum   'Cu12 H176 C208 S16 N8 O64'
_cell_volume   20895.03552397
_cell_formula_units_Z   4
loop_
 _symmetry_equiv_pos_site_id
 _symmetry_equiv_pos_as_xyz
  1  'x, y, z'
loop_
 _atom_site_type_symbol
 _atom_site_label
 _atom_site_symmetry_multiplicity
 _atom_site_fract_x
 _atom_site_fract_y
 _atom_site_fract_z
 _atom_site_occupancy
  Cu  Cu1  1  0.00000000  0.00000000  0.02851500  1
  Cu  Cu2  1  0.50000000  0.50000000  0.52851500  1
  Cu  Cu3  1  0.00000000  0.00000000  0.97250300  1
  Cu  Cu4  1  0.50000000  0.50000000  0.47250300  1
  Cu  Cu5  1  0.50043200  0.06150300  0.99956700  1
  Cu  Cu6  1  0.93849700  0.50043200  0.99956700  1
  Cu  Cu7  1  0.49956800  0.93849700  0.99956700  1
  Cu  Cu8  1  0.06150300  0.49956800  0.99956700  1
  Cu  Cu9  1  0.00043200  0.56150300  0.49956700  1
  Cu  Cu10  1  0.43849700  0.00043200  0.49956700  1
  Cu  Cu11  1  0.99956800  0.43849700  0.49956700  1
  Cu  Cu12  1  0.56150300  0.99956800  0.49956700  1
  H  H1  1  0.84452700  0.52313100  0.77563600  1
  H  H2  1  0.47687000  0.84452700  0.77563600  1
  H  H3  1  0.15547300  0.47686900  0.77563600  1
  H  H4  1  0.52313100  0.15547300  0.77563600  1
  H  H5  1  0.34452700  0.02313100  0.27563600  1
  H  H6  1  0.97686900  0.34452700  0.27563600  1
  H  H7  1  0.65547300  0.97686900  0.27563600  1
  H  H8  1  0.02313100  0.65547300  0.27563600  1
  H  H9  1  0.19955900  0.99681700  0.04634000  1
  H  H10  1  0.00318200  0.19955900  0.04634000  1
  H  H11  1  0.80044100  0.00318200  0.04634000  1
  H  H12  1  0.99681800  0.80044000  0.04634000  1
  H  H13  1  0.69955900  0.49681800  0.54634000  1
  H  H14  1  0.50318200  0.69955900  0.54634000  1
  H  H15  1  0.30044100  0.50318200  0.54634000  1
  H  H16  1  0.49681800  0.30044000  0.54634000  1
  H  H17  1  0.19698700  0.07564500  0.03151900  1
  H  H18  1  0.92435500  0.19698600  0.03152000  1
  H  H19  1  0.80301400  0.92435400  0.03152000  1
  H  H20  1  0.07564600  0.80301300  0.03152000  1
  H  H21  1  0.69698700  0.57564500  0.53151900  1
  H  H22  1  0.42435500  0.69698600  0.53152000  1
  H  H23  1  0.30301400  0.42435400  0.53151900  1
  H  H24  1  0.57564600  0.30301300  0.53152000  1
  H  H25  1  0.30364100  0.07676700  0.03104900  1
  H  H26  1  0.92323200  0.30364100  0.03104900  1
  H  H27  1  0.69635900  0.92323200  0.03104900  1
  H  H28  1  0.07676800  0.69635900  0.03104900  1
  H  H29  1  0.80364100  0.57676700  0.53104900  1
  H  H30  1  0.42323300  0.80364100  0.53104900  1
  H  H31  1  0.19635900  0.42323200  0.53104900  1
  H  H32  1  0.57676800  0.19635900  0.53104900  1
  H  H33  1  0.30446800  0.99849500  0.04533600  1
  H  H34  1  0.00150400  0.30446800  0.04533600  1
  H  H35  1  0.69553200  0.00150400  0.04533600  1
  H  H36  1  0.99849600  0.69553100  0.04533600  1
  H  H37  1  0.80446800  0.49849500  0.54533600  1
  H  H38  1  0.50150400  0.80446800  0.54533600  1
  H  H39  1  0.19553200  0.50150400  0.54533600  1
  H  H40  1  0.49849600  0.19553100  0.54533600  1
  H  H41  1  0.19639800  0.90336900  0.01375400  1
  H  H42  1  0.09663100  0.19639700  0.01375400  1
  H  H43  1  0.80360300  0.09663100  0.01375400  1
  H  H44  1  0.90336900  0.80360200  0.01375400  1
  H  H45  1  0.69639800  0.40336900  0.51375400  1
  H  H46  1  0.59663100  0.69639700  0.51375400  1
  H  H47  1  0.30360300  0.59663100  0.51375400  1
  H  H48  1  0.40336900  0.30360200  0.51375400  1
  H  H49  1  0.30234000  0.90610200  0.01539900  1
  H  H50  1  0.09389800  0.30234000  0.01539900  1
  H  H51  1  0.69766000  0.09389800  0.01539900  1
  H  H52  1  0.90610200  0.69766000  0.01539900  1
  H  H53  1  0.80234000  0.40610200  0.51539900  1
  H  H54  1  0.59389800  0.80234000  0.51539900  1
  H  H55  1  0.19766000  0.59389800  0.51539900  1
  H  H56  1  0.40610200  0.19766000  0.51539900  1
  H  H57  1  0.19303800  0.02211700  0.95476400  1
  H  H58  1  0.97788200  0.19303800  0.95476400  1
  H  H59  1  0.80696200  0.97788200  0.95476400  1
  H  H60  1  0.02211800  0.80696200  0.95476400  1
  H  H61  1  0.69303800  0.52211700  0.45476400  1
  H  H62  1  0.47788200  0.69303800  0.45476400  1
  H  H63  1  0.30696200  0.47788200  0.45476400  1
  H  H64  1  0.52211800  0.30696200  0.45476400  1
  H  H65  1  0.19192700  0.08904700  0.97774900  1
  H  H66  1  0.91095300  0.19192700  0.97774900  1
  H  H67  1  0.80807300  0.91095200  0.97774900  1
  H  H68  1  0.08904800  0.80807300  0.97774900  1
  H  H69  1  0.69192700  0.58904700  0.47774900  1
  H  H70  1  0.41095300  0.69192700  0.47774900  1
  H  H71  1  0.30807300  0.41095200  0.47774900  1
  H  H72  1  0.58904800  0.30807300  0.47774900  1
  H  H73  1  0.29350400  0.00937900  0.95437500  1
  H  H74  1  0.99062100  0.29350300  0.95437500  1
  H  H75  1  0.70649700  0.99062100  0.95437500  1
  H  H76  1  0.00937900  0.70649600  0.95437500  1
  H  H77  1  0.79350400  0.50937900  0.45437500  1
  H  H78  1  0.49062100  0.79350300  0.45437500  1
  H  H79  1  0.20649700  0.49062100  0.45437500  1
  H  H80  1  0.50937900  0.20649600  0.45437500  1
  H  H81  1  0.19804100  0.91447500  0.97533200  1
  H  H82  1  0.08552500  0.19804100  0.97533200  1
  H  H83  1  0.80195900  0.08552500  0.97533200  1
  H  H84  1  0.91447500  0.80195800  0.97533200  1
  H  H85  1  0.69804100  0.41447500  0.47533200  1
  H  H86  1  0.58552500  0.69804100  0.47533200  1
  H  H87  1  0.30195900  0.58552500  0.47533200  1
  H  H88  1  0.41447500  0.30195800  0.47533200  1
  H  H89  1  0.30293700  0.91158900  0.97668000  1
  H  H90  1  0.08841000  0.30293700  0.97668000  1
  H  H91  1  0.69706300  0.08841000  0.97668000  1
  H  H92  1  0.91159000  0.69706200  0.97668000  1
  H  H93  1  0.80293800  0.41158900  0.47668000  1
  H  H94  1  0.58841000  0.80293700  0.47668000  1
  H  H95  1  0.19706300  0.58841000  0.47668000  1
  H  H96  1  0.41159000  0.19706200  0.47668000  1
  H  H97  1  0.92893600  0.42851300  0.85794400  1
  H  H98  1  0.57148700  0.92893500  0.85794400  1
  H  H99  1  0.07106400  0.57148600  0.85794400  1
  H  H100  1  0.42851400  0.07106400  0.85794400  1
  H  H101  1  0.42893500  0.92851300  0.35794400  1
  H  H102  1  0.07148700  0.42893500  0.35794400  1
  H  H103  1  0.57106500  0.07148600  0.35794400  1
  H  H104  1  0.92851400  0.57106400  0.35794400  1
  H  H105  1  0.92749700  0.42991700  0.91024100  1
  H  H106  1  0.57008300  0.92749600  0.91024100  1
  H  H107  1  0.07250300  0.57008300  0.91024100  1
  H  H108  1  0.42991700  0.07250300  0.91024100  1
  H  H109  1  0.42749600  0.92991700  0.41024100  1
  H  H110  1  0.07008300  0.42749600  0.41024100  1
  H  H111  1  0.57250400  0.07008200  0.41024100  1
  H  H112  1  0.92991800  0.57250300  0.41024100  1
  H  H113  1  0.34425000  0.02118200  0.22380100  1
  H  H114  1  0.97881800  0.34424900  0.22380200  1
  H  H115  1  0.65575000  0.97881800  0.22380200  1
  H  H116  1  0.02118300  0.65575000  0.22380100  1
  H  H117  1  0.84425000  0.52118200  0.72380100  1
  H  H118  1  0.47881800  0.84424900  0.72380100  1
  H  H119  1  0.15575000  0.47881800  0.72380100  1
  H  H120  1  0.52118200  0.15575000  0.72380100  1
  H  H121  1  0.54847000  0.91179700  0.14156800  1
  H  H122  1  0.08820400  0.54846900  0.14156800  1
  H  H123  1  0.45153100  0.08820300  0.14156800  1
  H  H124  1  0.91179700  0.45153000  0.14156800  1
  H  H125  1  0.04847000  0.41179700  0.64156800  1
  H  H126  1  0.58820300  0.04846900  0.64156800  1
  H  H127  1  0.95153000  0.58820300  0.64156800  1
  H  H128  1  0.41179700  0.95153000  0.64156800  1
  H  H129  1  0.30693200  0.21182700  0.99102800  1
  H  H130  1  0.25699400  0.15214800  0.00546300  1
  H  H131  1  0.23766300  0.18863700  0.97132200  1
  H  H132  1  0.78817300  0.30693200  0.99102800  1
  H  H133  1  0.84785100  0.25699400  0.00546300  1
  H  H134  1  0.81136300  0.23766200  0.97132200  1
  H  H135  1  0.69306800  0.78817300  0.99102800  1
  H  H136  1  0.74300600  0.84785100  0.00546300  1
  H  H137  1  0.76233700  0.81136200  0.97132200  1
  H  H138  1  0.21182700  0.69306800  0.99102800  1
  H  H139  1  0.15214900  0.74300600  0.00546300  1
  H  H140  1  0.18863800  0.76233700  0.97132200  1
  H  H141  1  0.80693200  0.71182700  0.49102800  1
  H  H142  1  0.75699400  0.65214800  0.50546300  1
  H  H143  1  0.73766300  0.68863700  0.47132200  1
  H  H144  1  0.28817300  0.80693200  0.49102800  1
  H  H145  1  0.34785100  0.75699400  0.50546300  1
  H  H146  1  0.31136200  0.73766200  0.47132200  1
  H  H147  1  0.19306800  0.28817300  0.49102800  1
  H  H148  1  0.24300600  0.34785100  0.50546300  1
  H  H149  1  0.26233700  0.31136200  0.47132200  1
  H  H150  1  0.71182700  0.19306800  0.49102800  1
  H  H151  1  0.65214900  0.24300600  0.50546300  1
  H  H152  1  0.68863800  0.26233700  0.47132200  1
  H  H153  1  0.50029100  0.80256400  0.06834900  1
  H  H154  1  0.45860300  0.86111600  0.08903400  1
  H  H155  1  0.51081000  0.80600900  0.10703300  1
  H  H156  1  0.19743600  0.50029000  0.06834900  1
  H  H157  1  0.13888400  0.45860200  0.08903400  1
  H  H158  1  0.19399100  0.51080900  0.10703300  1
  H  H159  1  0.49971000  0.19743600  0.06834900  1
  H  H160  1  0.54139800  0.13888300  0.08903400  1
  H  H161  1  0.48919000  0.19399000  0.10703300  1
  H  H162  1  0.80256400  0.49970900  0.06834900  1
  H  H163  1  0.86111700  0.54139700  0.08903400  1
  H  H164  1  0.80601000  0.48919000  0.10703300  1
  H  H165  1  0.00029100  0.30256400  0.56834900  1
  H  H166  1  0.95860300  0.36111600  0.58903400  1
  H  H167  1  0.01081000  0.30600900  0.60703300  1
  H  H168  1  0.69743600  0.00029000  0.56834900  1
  H  H169  1  0.63888400  0.95860200  0.58903400  1
  H  H170  1  0.69399100  0.01081000  0.60703300  1
  H  H171  1  0.99970900  0.69743500  0.56834900  1
  H  H172  1  0.04139700  0.63888300  0.58903400  1
  H  H173  1  0.98919000  0.69399000  0.60703300  1
  H  H174  1  0.30256500  0.99970900  0.56834900  1
  H  H175  1  0.36111700  0.04139700  0.58903400  1
  H  H176  1  0.30601000  0.98918900  0.60703300  1
  C  C1  1  0.00045200  0.11945400  0.00046700  1
  C  C2  1  0.88054600  0.00045100  0.00046700  1
  C  C3  1  0.99954800  0.88054600  0.00046700  1
  C  C4  1  0.11945400  0.99954800  0.00046700  1
  C  C5  1  0.50045200  0.61945400  0.50046700  1
  C  C6  1  0.38054600  0.50045100  0.50046700  1
  C  C7  1  0.49954800  0.38054600  0.50046700  1
  C  C8  1  0.61945400  0.49954800  0.50046700  1
  C  C9  1  0.50000000  0.00000000  0.23490000  1
  C  C10  1  0.00000000  0.50000000  0.23490000  1
  C  C11  1  0.00000000  0.50000000  0.73490000  1
  C  C12  1  0.50000000  0.00000000  0.73490000  1
  C  C13  1  0.50000000  0.00000000  0.08549200  1
  C  C14  1  0.00000000  0.50000000  0.08549200  1
  C  C15  1  0.00000000  0.50000000  0.58549200  1
  C  C16  1  0.50000000  0.00000000  0.58549200  1
  C  C17  1  0.88877700  0.51645300  0.76451600  1
  C  C18  1  0.48354700  0.88877700  0.76451600  1
  C  C19  1  0.11122300  0.48354700  0.76451600  1
  C  C20  1  0.51645300  0.11122200  0.76451600  1
  C  C21  1  0.38877700  0.01645300  0.26451600  1
  C  C22  1  0.98354700  0.38877700  0.26451600  1
  C  C23  1  0.61122300  0.98354700  0.26451600  1
  C  C24  1  0.01645400  0.61122200  0.26451600  1
  C  C25  1  0.44443700  0.00725200  0.22000800  1
  C  C26  1  0.99274800  0.44443700  0.22000800  1
  C  C27  1  0.55556300  0.99274800  0.22000800  1
  C  C28  1  0.00725200  0.55556200  0.22000800  1
  C  C29  1  0.94443700  0.50725200  0.72000800  1
  C  C30  1  0.49274800  0.94443700  0.72000800  1
  C  C31  1  0.05556300  0.49274800  0.72000800  1
  C  C32  1  0.50725200  0.05556200  0.72000800  1
  C  C33  1  0.21486100  0.02702600  0.02816400  1
  C  C34  1  0.97297400  0.21486000  0.02816400  1
  C  C35  1  0.78514000  0.97297300  0.02816400  1
  C  C36  1  0.02702700  0.78513900  0.02816400  1
  C  C37  1  0.71486100  0.52702600  0.52816400  1
  C  C38  1  0.47297400  0.71486000  0.52816400  1
  C  C39  1  0.28514000  0.47297300  0.52816400  1
  C  C40  1  0.52702700  0.28513900  0.52816400  1
  C  C41  1  0.28633100  0.02816600  0.02753100  1
  C  C42  1  0.97183400  0.28633000  0.02753100  1
  C  C43  1  0.71367000  0.97183300  0.02753100  1
  C  C44  1  0.02816700  0.71366900  0.02753100  1
  C  C45  1  0.78633100  0.52816600  0.52753100  1
  C  C46  1  0.47183400  0.78633000  0.52753100  1
  C  C47  1  0.21367000  0.47183300  0.52753100  1
  C  C48  1  0.52816700  0.21366900  0.52753100  1
  C  C49  1  0.21433900  0.93384000  0.99618600  1
  C  C50  1  0.06616000  0.21433800  0.99618600  1
  C  C51  1  0.78566200  0.06615900  0.99618600  1
  C  C52  1  0.93384000  0.78566100  0.99618600  1
  C  C53  1  0.71433900  0.43384000  0.49618600  1
  C  C54  1  0.56616000  0.71433800  0.49618600  1
  C  C55  1  0.28566100  0.56615900  0.49618600  1
  C  C56  1  0.43384000  0.28566100  0.49618600  1
  C  C57  1  0.21177100  0.04135200  0.97520200  1
  C  C58  1  0.95864800  0.21177000  0.97520200  1
  C  C59  1  0.78822900  0.95864800  0.97520200  1
  C  C60  1  0.04135200  0.78822900  0.97520200  1
  C  C61  1  0.71177100  0.54135200  0.47520200  1
  C  C62  1  0.45864800  0.71177000  0.47520200  1
  C  C63  1  0.28822900  0.45864800  0.47520200  1
  C  C64  1  0.54135200  0.28822900  0.47520200  1
  C  C65  1  0.18973800  0.00049600  0.00005800  1
  C  C66  1  0.99950400  0.18973800  0.00005800  1
  C  C67  1  0.81026200  0.99950300  0.00005800  1
  C  C68  1  0.00049700  0.81026200  0.00005800  1
  C  C69  1  0.68973800  0.50049600  0.50005800  1
  C  C70  1  0.49950400  0.68973800  0.50005800  1
  C  C71  1  0.31026200  0.49950300  0.50005800  1
  C  C72  1  0.50049700  0.31026200  0.50005800  1
  C  C73  1  0.30977100  0.00175200  0.99915900  1
  C  C74  1  0.99824800  0.30977100  0.99915900  1
  C  C75  1  0.69022900  0.99824800  0.99915900  1
  C  C76  1  0.00175200  0.69022900  0.99915900  1
  C  C77  1  0.80977100  0.50175200  0.49915900  1
  C  C78  1  0.49824800  0.80977100  0.49915900  1
  C  C79  1  0.19022900  0.49824800  0.49915900  1
  C  C80  1  0.50175200  0.19022900  0.49915900  1
  C  C81  1  0.28584200  0.93415100  0.99673000  1
  C  C82  1  0.06584900  0.28584200  0.99673000  1
  C  C83  1  0.71415800  0.06584800  0.99673000  1
  C  C84  1  0.93415100  0.71415700  0.99673000  1
  C  C85  1  0.78584200  0.43415100  0.49673000  1
  C  C86  1  0.56584900  0.78584200  0.49673000  1
  C  C87  1  0.21415800  0.56584800  0.49673000  1
  C  C88  1  0.43415100  0.21415700  0.49673000  1
  C  C89  1  0.28341500  0.03867800  0.97356500  1
  C  C90  1  0.96132200  0.28341500  0.97356500  1
  C  C91  1  0.71658500  0.96132100  0.97356500  1
  C  C92  1  0.03867800  0.71658400  0.97356500  1
  C  C93  1  0.78341500  0.53867800  0.47356500  1
  C  C94  1  0.46132200  0.78341500  0.47356500  1
  C  C95  1  0.21658500  0.46132100  0.47356500  1
  C  C96  1  0.53867900  0.21658400  0.47356500  1
  C  C97  1  0.50000000  0.00000000  0.14515500  1
  C  C98  1  0.00000000  0.50000000  0.14515500  1
  C  C99  1  0.00000000  0.50000000  0.64515500  1
  C  C100  1  0.50000000  0.00000000  0.64515500  1
  C  C101  1  0.00000000  0.50000000  0.85429600  1
  C  C102  1  0.50000000  0.00000000  0.85429600  1
  C  C103  1  0.50000000  0.00000000  0.35429600  1
  C  C104  1  0.00000000  0.50000000  0.35429600  1
  C  C105  1  0.38860500  0.01524300  0.23492200  1
  C  C106  1  0.98475700  0.38860400  0.23492200  1
  C  C107  1  0.61139600  0.98475700  0.23492200  1
  C  C108  1  0.01524400  0.61139500  0.23492200  1
  C  C109  1  0.88860400  0.51524300  0.73492200  1
  C  C110  1  0.48475700  0.88860400  0.73492200  1
  C  C111  1  0.11139600  0.48475700  0.73492200  1
  C  C112  1  0.51524400  0.11139500  0.73492200  1
  C  C113  1  0.95984800  0.46052500  0.86930000  1
  C  C114  1  0.53947500  0.95984700  0.86930000  1
  C  C115  1  0.04015200  0.53947500  0.86930000  1
  C  C116  1  0.46052500  0.04015200  0.86930000  1
  C  C117  1  0.45984800  0.96052500  0.36930000  1
  C  C118  1  0.03947500  0.45984700  0.36930000  1
  C  C119  1  0.54015200  0.03947500  0.36930000  1
  C  C120  1  0.96052500  0.54015200  0.36930000  1
  C  C121  1  0.44500600  0.00605600  0.19030700  1
  C  C122  1  0.99394400  0.44500500  0.19030700  1
  C  C123  1  0.55499400  0.99394400  0.19030700  1
  C  C124  1  0.00605700  0.55499400  0.19030700  1
  C  C125  1  0.94500600  0.50605600  0.69030700  1
  C  C126  1  0.49394400  0.94500500  0.69030700  1
  C  C127  1  0.05499400  0.49394400  0.69030700  1
  C  C128  1  0.50605700  0.05499400  0.69030700  1
  C  C129  1  0.95916700  0.46120700  0.89890900  1
  C  C130  1  0.53879200  0.95916700  0.89890900  1
  C  C131  1  0.04083300  0.53879200  0.89890900  1
  C  C132  1  0.46120800  0.04083200  0.89890900  1
  C  C133  1  0.45916700  0.96120800  0.39890900  1
  C  C134  1  0.03879200  0.45916700  0.39890900  1
  C  C135  1  0.54083300  0.03879200  0.39890900  1
  C  C136  1  0.96120800  0.54083300  0.39890900  1
  C  C137  1  0.00000000  0.50000000  0.91381600  1
  C  C138  1  0.50000000  0.00000000  0.91381600  1
  C  C139  1  0.50000000  0.00000000  0.41381600  1
  C  C140  1  0.00000000  0.50000000  0.41381600  1
  C  C141  1  0.50000000  0.00000000  0.05397600  1
  C  C142  1  0.00000000  0.50000000  0.05397600  1
  C  C143  1  0.00000000  0.50000000  0.55397600  1
  C  C144  1  0.50000000  0.00000000  0.55397600  1
  C  C145  1  0.38037000  0.00154600  0.99899500  1
  C  C146  1  0.99845400  0.38036900  0.99899500  1
  C  C147  1  0.61963000  0.99845300  0.99899500  1
  C  C148  1  0.00154600  0.61963000  0.99899500  1
  C  C149  1  0.88037000  0.50154600  0.49899500  1
  C  C150  1  0.49845400  0.88036900  0.49899500  1
  C  C151  1  0.11963000  0.49845300  0.49899500  1
  C  C152  1  0.50154600  0.11963000  0.49899500  1
  C  C153  1  0.50000000  0.00000000  0.94521800  1
  C  C154  1  0.00000000  0.50000000  0.94521800  1
  C  C155  1  0.00000000  0.50000000  0.44521800  1
  C  C156  1  0.50000000  0.00000000  0.44521800  1
  C  C157  1  0.52721400  0.95082900  0.13016800  1
  C  C158  1  0.04917100  0.52721400  0.13016800  1
  C  C159  1  0.47278600  0.04917000  0.13016800  1
  C  C160  1  0.95083000  0.47278600  0.13016800  1
  C  C161  1  0.02721400  0.45082900  0.63016800  1
  C  C162  1  0.54917100  0.02721400  0.63016800  1
  C  C163  1  0.97278600  0.54917000  0.63016800  1
  C  C164  1  0.45083000  0.97278500  0.63016800  1
  C  C165  1  0.52777100  0.95085400  0.10055700  1
  C  C166  1  0.04914600  0.52777100  0.10055700  1
  C  C167  1  0.47222900  0.04914500  0.10055700  1
  C  C168  1  0.95085500  0.47222900  0.10055700  1
  C  C169  1  0.02777100  0.45085400  0.60055700  1
  C  C170  1  0.54914600  0.02777100  0.60055700  1
  C  C171  1  0.97222900  0.54914500  0.60055700  1
  C  C172  1  0.45085500  0.97222900  0.60055700  1
  C  C173  1  0.05450100  0.49047600  0.80913200  1
  C  C174  1  0.50952400  0.05450100  0.80913200  1
  C  C175  1  0.94549900  0.50952300  0.80913200  1
  C  C176  1  0.49047700  0.94549900  0.80913200  1
  C  C177  1  0.55450100  0.99047600  0.30913200  1
  C  C178  1  0.00952400  0.55450100  0.30913200  1
  C  C179  1  0.44549900  0.00952300  0.30913200  1
  C  C180  1  0.99047700  0.44549900  0.30913200  1
  C  C181  1  0.94462200  0.50854000  0.77943000  1
  C  C182  1  0.49146000  0.94462200  0.77943000  1
  C  C183  1  0.05537800  0.49146000  0.77943000  1
  C  C184  1  0.50854000  0.05537700  0.77943000  1
  C  C185  1  0.44462200  0.00854000  0.27943000  1
  C  C186  1  0.99146000  0.44462200  0.27943000  1
  C  C187  1  0.55537800  0.99146000  0.27943000  1
  C  C188  1  0.00854000  0.55537700  0.27943000  1
  C  C189  1  0.00000000  0.50000000  0.76453800  1
  C  C190  1  0.50000000  0.00000000  0.76453800  1
  C  C191  1  0.50000000  0.00000000  0.26453800  1
  C  C192  1  0.00000000  0.50000000  0.26453800  1
  C  C193  1  0.27637600  0.17127000  0.98528300  1
  C  C194  1  0.82873000  0.27637600  0.98528300  1
  C  C195  1  0.72362400  0.82873000  0.98528300  1
  C  C196  1  0.17127000  0.72362400  0.98528300  1
  C  C197  1  0.77637600  0.67127000  0.48528300  1
  C  C198  1  0.32873000  0.77637600  0.48528300  1
  C  C199  1  0.22362400  0.32873000  0.48528300  1
  C  C200  1  0.67127000  0.22362400  0.48528300  1
  C  C201  1  0.50334700  0.83424300  0.08726200  1
  C  C202  1  0.16575700  0.50334600  0.08726200  1
  C  C203  1  0.49665400  0.16575700  0.08726200  1
  C  C204  1  0.83424300  0.49665300  0.08726200  1
  C  C205  1  0.00334700  0.33424300  0.58726200  1
  C  C206  1  0.66575700  0.00334600  0.58726200  1
  C  C207  1  0.99665300  0.66575600  0.58726200  1
  C  C208  1  0.33424300  0.99665300  0.58726200  1
  S  S1  1  0.32403600  0.11376600  0.96578800  1
  S  S2  1  0.88623400  0.32403600  0.96578800  1
  S  S3  1  0.67596400  0.88623300  0.96578800  1
  S  S4  1  0.11376600  0.67596400  0.96578800  1
  S  S5  1  0.82403600  0.61376600  0.46578800  1
  S  S6  1  0.38623400  0.82403600  0.46578800  1
  S  S7  1  0.17596400  0.38623300  0.46578800  1
  S  S8  1  0.61376600  0.17596400  0.46578800  1
  S  S9  1  0.56865200  0.88862600  0.08241900  1
  S  S10  1  0.11137500  0.56865100  0.08241900  1
  S  S11  1  0.43134800  0.11137400  0.08241900  1
  S  S12  1  0.88862600  0.43134800  0.08241900  1
  S  S13  1  0.06865200  0.38862600  0.58241900  1
  S  S14  1  0.61137400  0.06865200  0.58241900  1
  S  S15  1  0.93134800  0.61137400  0.58241900  1
  S  S16  1  0.38862600  0.93134800  0.58241900  1
  N  N1  1  0.50000000  0.00000000  0.17587600  1
  N  N2  1  0.00000000  0.50000000  0.17587600  1
  N  N3  1  0.00000000  0.50000000  0.67587600  1
  N  N4  1  0.50000000  0.00000000  0.67587600  1
  N  N5  1  0.00000000  0.50000000  0.82356800  1
  N  N6  1  0.50000000  0.00000000  0.82356800  1
  N  N7  1  0.50000000  0.00000000  0.32356800  1
  N  N8  1  0.00000000  0.50000000  0.32356800  1
  O  O1  1  0.98230000  0.08999900  0.02410400  1
  O  O2  1  0.91000100  0.98229900  0.02410400  1
  O  O3  1  0.01770100  0.91000000  0.02410400  1
  O  O4  1  0.09000000  0.01770000  0.02410400  1
  O  O5  1  0.48230000  0.58999900  0.52410400  1
  O  O6  1  0.41000100  0.48229900  0.52410400  1
  O  O7  1  0.51770100  0.41000000  0.52410400  1
  O  O8  1  0.59000000  0.51770000  0.52410400  1
  O  O9  1  0.01865700  0.08983900  0.97689600  1
  O  O10  1  0.91016100  0.01865600  0.97689600  1
  O  O11  1  0.98134400  0.91016000  0.97689600  1
  O  O12  1  0.08983900  0.98134300  0.97689600  1
  O  O13  1  0.51865700  0.58983900  0.47689600  1
  O  O14  1  0.41016100  0.51865600  0.47689600  1
  O  O15  1  0.48134400  0.41016000  0.47689600  1
  O  O16  1  0.58983900  0.48134300  0.47689600  1
  O  O17  1  0.10797800  0.47847100  0.82366400  1
  O  O18  1  0.52152900  0.10797800  0.82366400  1
  O  O19  1  0.89202200  0.52152800  0.82366400  1
  O  O20  1  0.47847200  0.89202100  0.82366400  1
  O  O21  1  0.60797800  0.97847100  0.32366400  1
  O  O22  1  0.02152900  0.60797800  0.32366400  1
  O  O23  1  0.39202200  0.02152900  0.32366400  1
  O  O24  1  0.97847100  0.39202100  0.32366400  1
  O  O25  1  0.39031000  0.00945000  0.17576800  1
  O  O26  1  0.99055000  0.39031000  0.17576800  1
  O  O27  1  0.60969000  0.99055000  0.17576800  1
  O  O28  1  0.00945000  0.60969000  0.17576800  1
  O  O29  1  0.89031000  0.50944900  0.67576800  1
  O  O30  1  0.49055100  0.89031000  0.67576800  1
  O  O31  1  0.10969000  0.49055000  0.67576800  1
  O  O32  1  0.50945000  0.10969000  0.67576800  1
  O  O33  1  0.51862500  0.05167400  0.04046400  1
  O  O34  1  0.94832600  0.51862500  0.04046400  1
  O  O35  1  0.48137500  0.94832600  0.04046400  1
  O  O36  1  0.05167400  0.48137500  0.04046400  1
  O  O37  1  0.01862500  0.55167400  0.54046400  1
  O  O38  1  0.44832600  0.01862500  0.54046400  1
  O  O39  1  0.98137500  0.44832600  0.54046400  1
  O  O40  1  0.55167400  0.98137500  0.54046400  1
  O  O41  1  0.41049700  0.05264400  0.00783100  1
  O  O42  1  0.94735600  0.41049700  0.00783100  1
  O  O43  1  0.58950300  0.94735500  0.00783100  1
  O  O44  1  0.05264500  0.58950300  0.00783100  1
  O  O45  1  0.91049700  0.55264400  0.50783100  1
  O  O46  1  0.44735600  0.91049700  0.50783100  1
  O  O47  1  0.08950300  0.44735500  0.50783100  1
  O  O48  1  0.55264500  0.08950300  0.50783100  1
  O  O49  1  0.40961800  0.94913500  0.99119300  1
  O  O50  1  0.05086400  0.40961800  0.99119300  1
  O  O51  1  0.59038200  0.05086400  0.99119300  1
  O  O52  1  0.94913600  0.59038100  0.99119300  1
  O  O53  1  0.90961800  0.44913500  0.49119300  1
  O  O54  1  0.55086400  0.90961800  0.49119300  1
  O  O55  1  0.09038200  0.55086400  0.49119300  1
  O  O56  1  0.44913600  0.09038100  0.49119300  1
  O  O57  1  0.48205200  0.05192500  0.95867000  1
  O  O58  1  0.94807500  0.48205100  0.95867000  1
  O  O59  1  0.51794900  0.94807500  0.95867000  1
  O  O60  1  0.05192500  0.51794800  0.95867000  1
  O  O61  1  0.98205200  0.55192500  0.45867000  1
  O  O62  1  0.44807500  0.98205100  0.45867000  1
  O  O63  1  0.01794900  0.44807500  0.45867000  1
  O  O64  1  0.55192500  0.01794800  0.45867000  1
