# Generated by REPEAT Assigner based on pymatgen
data_DB0-m2_o3_o22_f0_nbo.sym.35_sqe
_audit_creation_date              2022-05-24
_audit_creation_method            REPEAT_Assigner
_cell_length_a                    43.836677
_cell_length_b                    38.623930
_cell_length_c                    21.221182
_cell_angle_alpha                 90.000000
_cell_angle_beta                  118.439056
_cell_angle_gamma                 90.000000
_cell_volume                      31594.585055
_symmetry_space_group_name_H-M    P1
_symmetry_Int_Tables_number       1
loop_
    _symmetry_equiv_pos_site_id
    _symmetry_equiv_pos_as_xyz
    1  x,y,z
loop_
    _atom_site_type_symbol
    _atom_site_label
    _atom_site_fract_x
    _atom_site_fract_y
    _atom_site_fract_z
    _atom_type_partial_charge
    O   O1    0.049456  0.026683  0.530926  -0.626980
    O   O2    0.950545  0.026683  0.469074  -0.626977
    O   O3    0.549456  0.526683  0.530926  -0.626891
    O   O4    0.450545  0.526683  0.469074  -0.626908
    O   O5    0.049413  0.969776  0.566783  -0.593457
    O   O6    0.950587  0.969776  0.433217  -0.593446
    O   O7    0.549413  0.469776  0.566783  -0.593474
    O   O8    0.450587  0.469776  0.433217  -0.593488
    C   C1    0.065743  0.998206  0.564964  0.732410
    C   C2    0.934257  0.998206  0.435036  0.732438
    C   C3    0.565743  0.498206  0.564964  0.732311
    C   C4    0.434257  0.498206  0.435036  0.732343
    O   O9    0.990248  0.026705  0.400619  -0.621095
    O   O10   0.009752  0.026705  0.599381  -0.621080
    O   O11   0.490248  0.526705  0.400619  -0.621030
    O   O12   0.509752  0.526705  0.599381  -0.621015
    O   O13   0.010059  0.969779  0.420138  -0.648717
    O   O14   0.989941  0.969779  0.579862  -0.648711
    O   O15   0.510059  0.469779  0.420138  -0.648756
    O   O16   0.489941  0.469779  0.579862  -0.648741
    C   C5    0.000294  0.998308  0.381007  0.527362
    C   C6    0.999706  0.998308  0.618993  0.527354
    C   C7    0.500294  0.498308  0.381007  0.527396
    C   C8    0.499706  0.498308  0.618993  0.527359
    Cu  Cu1   -0.000000  0.031990  0.500000  0.991514
    Cu  Cu2   0.500000  0.531990  0.500000  0.991549
    Cu  Cu3   0.000000  0.964479  0.500000  0.986652
    Cu  Cu4   0.500000  0.464479  0.500000  0.986553
    C   C9    0.022647  0.028257  0.309269  -0.038662
    C   C10   0.977353  0.028257  0.690732  -0.038614
    C   C11   0.522647  0.528257  0.309269  -0.038687
    C   C12   0.477353  0.528257  0.690732  -0.038597
    H   H1    0.013597  0.053173  0.320411  0.008676
    H   H2    0.986403  0.053173  0.679589  0.008655
    H   H3    0.513597  0.553173  0.320411  0.008678
    H   H4    0.486403  0.553173  0.679589  0.008659
    H   H5    0.049956  0.023864  0.350494  -0.006051
    H   H6    0.950044  0.023864  0.649506  -0.006058
    H   H7    0.549956  0.523864  0.350494  -0.006046
    H   H8    0.450044  0.523864  0.649506  -0.006057
    C   C13   0.020492  0.030261  0.236041  -0.059495
    C   C14   0.979508  0.030261  0.763960  -0.059656
    C   C15   0.520492  0.530261  0.236041  -0.059440
    C   C16   0.479508  0.530261  0.763960  -0.059645
    H   H9    0.047170  0.029953  0.242791  0.008119
    H   H10   0.952830  0.029953  0.757210  0.008163
    H   H11   0.547170  0.529953  0.242791  0.008113
    H   H12   0.452830  0.529953  0.757210  0.008162
    H   H13   0.007554  0.054736  0.209379  -0.004439
    H   H14   0.992446  0.054736  0.790621  -0.004370
    H   H15   0.507554  0.554736  0.209379  -0.004449
    H   H16   0.492446  0.554736  0.790621  -0.004376
    H   H17   0.953544  0.029182  0.256838  0.008220
    H   H18   0.046456  0.029182  0.743162  0.008122
    H   H19   0.453544  0.529182  0.256838  0.008141
    H   H20   0.546456  0.529182  0.743162  0.008134
    H   H21   0.949880  0.025456  0.148582  0.037755
    H   H22   0.050120  0.025456  0.851418  0.037801
    H   H23   0.449880  0.525456  0.148582  0.037799
    H   H24   0.550120  0.525456  0.851418  0.037794
    C   C17   0.963457  0.003582  0.251266  -0.085658
    C   C18   0.036543  0.003582  0.748734  -0.085250
    C   C19   0.463457  0.503582  0.251266  -0.085311
    C   C20   0.536543  0.503582  0.748734  -0.085285
    C   C21   0.014407  0.964658  0.299281  -0.035969
    C   C22   0.985593  0.964658  0.700719  -0.035992
    C   C23   0.514407  0.464658  0.299281  -0.035983
    C   C24   0.485593  0.464658  0.700719  -0.035931
    C   C25   0.000273  0.998616  0.310763  0.380184
    C   C26   0.999727  0.998616  0.689237  0.380123
    C   C27   0.500273  0.498616  0.310763  0.380092
    C   C28   0.499727  0.498616  0.689237  0.380055
    H   H25   0.997058  0.943016  0.295926  0.011189
    H   H26   0.002942  0.943016  0.704074  0.011179
    H   H27   0.497058  0.443016  0.295926  0.011190
    H   H28   0.502942  0.443016  0.704074  0.011176
    H   H29   0.040850  0.959889  0.344007  0.011471
    H   H30   0.959150  0.959889  0.655993  0.011479
    H   H31   0.540850  0.459889  0.344007  0.011477
    H   H32   0.459150  0.459889  0.655993  0.011468
    C   C29   0.999796  0.999726  0.191011  0.366167
    C   C30   0.000204  0.999726  0.808989  0.366170
    C   C31   0.499796  0.499726  0.191011  0.366198
    C   C32   0.500204  0.499726  0.808989  0.366225
    C   C33   0.962876  0.001845  0.179499  -0.108903
    C   C34   0.037124  0.001845  0.820501  -0.109172
    C   C35   0.462876  0.501845  0.179499  -0.109131
    C   C36   0.537124  0.501845  0.820501  -0.109127
    C   C37   0.016338  0.966399  0.230026  -0.120629
    C   C38   0.983662  0.966399  0.769975  -0.120538
    C   C39   0.516338  0.466399  0.230026  -0.120611
    C   C40   0.483662  0.466399  0.769975  -0.120674
    H   H33   0.043909  0.965518  0.242333  0.013778
    H   H34   0.956091  0.965518  0.757667  0.013742
    H   H35   0.543909  0.465518  0.242333  0.013769
    H   H36   0.456091  0.465518  0.757667  0.013789
    H   H37   0.002481  0.943904  0.195880  0.007528
    H   H38   0.997519  0.943904  0.804120  0.007513
    H   H39   0.502481  0.443904  0.195880  0.007522
    H   H40   0.497519  0.443904  0.804120  0.007541
    H   H41   0.946530  0.983008  0.254190  0.002487
    H   H42   0.053470  0.983008  0.745810  0.002385
    H   H43   0.446530  0.483008  0.254190  0.002390
    H   H44   0.553470  0.483008  0.745810  0.002389
    H   H45   0.948052  0.978595  0.150186  0.028334
    H   H46   0.051948  0.978595  0.849814  0.028387
    H   H47   0.448052  0.478595  0.150186  0.028379
    H   H48   0.551948  0.478595  0.849814  0.028376
    C   C41   0.378703  0.976067  0.908990  -0.132170
    C   C42   0.621297  0.976067  0.091010  -0.132157
    C   C43   0.878703  0.476067  0.908990  -0.132159
    C   C44   0.121297  0.476067  0.091010  -0.132161
    H   H49   0.393011  0.956425  0.948362  0.138082
    H   H50   0.606989  0.956425  0.051638  0.138070
    H   H51   0.893011  0.456425  0.948362  0.138081
    H   H52   0.106989  0.456425  0.051638  0.138076
    C   C45   0.343041  0.974020  0.871943  -0.114707
    C   C46   0.656959  0.974020  0.128057  -0.114671
    C   C47   0.843041  0.474020  0.871943  -0.114703
    C   C48   0.156959  0.474020  0.128057  -0.114699
    H   H53   0.330340  0.952831  0.883360  0.109366
    H   H54   0.669660  0.952831  0.116640  0.109369
    H   H55   0.830340  0.452831  0.883360  0.109368
    H   H56   0.169660  0.452831  0.116640  0.109372
    C   C49   0.324093  0.998089  0.819674  0.095758
    C   C50   0.675907  0.998089  0.180326  0.095713
    C   C51   0.824093  0.498089  0.819674  0.095711
    C   C52   0.175907  0.498089  0.180326  0.095707
    C   C53   0.341409  0.024275  0.805419  -0.170815
    C   C54   0.658591  0.024275  0.194581  -0.170863
    C   C55   0.841409  0.524275  0.805419  -0.170815
    C   C56   0.158591  0.524275  0.194581  -0.170798
    H   H57   0.326817  0.044351  0.767584  0.147947
    H   H58   0.673183  0.044351  0.232416  0.147979
    H   H59   0.826817  0.544351  0.767584  0.147950
    H   H60   0.173183  0.544351  0.232416  0.147941
    C   C57   0.377157  0.026806  0.842892  -0.040738
    C   C58   0.622843  0.026806  0.157109  -0.040722
    C   C59   0.877157  0.526806  0.842892  -0.040716
    C   C60   0.122843  0.526806  0.157109  -0.040751
    C   C61   0.396135  0.002050  0.894559  -0.038566
    C   C62   0.603865  0.002050  0.105441  -0.038625
    C   C63   0.896135  0.502050  0.894559  -0.038601
    C   C64   0.103865  0.502050  0.105441  -0.038575
    C   C65   0.267756  0.006063  0.709767  -0.137268
    C   C66   0.732244  0.006063  0.290233  -0.137328
    C   C67   0.767756  0.506063  0.709767  -0.137370
    C   C68   0.232244  0.506063  0.290233  -0.137338
    H   H61   0.281236  0.012869  0.680151  0.124672
    H   H62   0.718764  0.012869  0.319849  0.124679
    H   H63   0.781236  0.512869  0.680151  0.124695
    H   H64   0.218764  0.512869  0.319849  0.124693
    C   C69   0.231998  0.006170  0.674538  -0.148315
    C   C70   0.768002  0.006170  0.325462  -0.148348
    C   C71   0.731998  0.506170  0.674538  -0.148310
    C   C72   0.268002  0.506170  0.325462  -0.148349
    H   H65   0.218427  0.013128  0.618471  0.114499
    H   H66   0.781573  0.013128  0.381530  0.114513
    H   H67   0.718427  0.513128  0.618471  0.114499
    H   H68   0.281573  0.513128  0.381530  0.114507
    C   C73   0.213825  0.996621  0.709968  0.069272
    C   C74   0.786176  0.996621  0.290032  0.069350
    C   C75   0.713825  0.496621  0.709968  0.069355
    C   C76   0.286176  0.496621  0.290032  0.069349
    C   C77   0.231889  0.986809  0.781040  -0.138029
    C   C78   0.768111  0.986809  0.218960  -0.138055
    C   C79   0.731889  0.486809  0.781040  -0.138049
    C   C80   0.268111  0.486809  0.218960  -0.138047
    H   H69   0.218233  0.979964  0.810294  0.113515
    H   H70   0.781767  0.979964  0.189706  0.113530
    H   H71   0.718233  0.479964  0.810294  0.113533
    H   H72   0.281767  0.479964  0.189706  0.113529
    C   C81   0.267655  0.987046  0.816543  -0.146018
    C   C82   0.732345  0.987046  0.183457  -0.146110
    C   C83   0.767655  0.487046  0.816543  -0.146144
    C   C84   0.232345  0.487046  0.183457  -0.146126
    H   H73   0.281004  0.980574  0.872848  0.118275
    H   H74   0.718996  0.980574  0.127152  0.118279
    H   H75   0.781004  0.480574  0.872848  0.118298
    H   H76   0.218996  0.480574  0.127152  0.118288
    C   C85   0.285921  0.996768  0.781263  0.054639
    C   C86   0.714079  0.996768  0.218737  0.054774
    C   C87   0.785921  0.496768  0.781263  0.054805
    C   C88   0.214079  0.496768  0.218737  0.054793
    C   C89   0.157373  0.970441  0.682363  -0.130498
    C   C90   0.842627  0.970441  0.317637  -0.130489
    C   C91   0.657373  0.470441  0.682363  -0.130498
    C   C92   0.342627  0.470441  0.317637  -0.130496
    H   H77   0.170767  0.948709  0.716429  0.101437
    H   H78   0.829233  0.948709  0.283571  0.101437
    H   H79   0.670767  0.448709  0.716429  0.101442
    H   H80   0.329233  0.448709  0.283571  0.101439
    C   C93   0.121620  0.970749  0.647063  -0.107903
    C   C94   0.878380  0.970749  0.352937  -0.107893
    C   C95   0.621620  0.470749  0.647063  -0.107913
    C   C96   0.378380  0.470749  0.352937  -0.107915
    H   H81   0.107939  0.949477  0.655405  0.128155
    H   H82   0.892061  0.949477  0.344596  0.128148
    H   H83   0.607939  0.449477  0.655405  0.128155
    H   H84   0.392061  0.449477  0.344596  0.128161
    C   C97   0.103775  0.997972  0.602352  -0.093665
    C   C98   0.896225  0.997972  0.397648  -0.093681
    C   C99   0.603775  0.497972  0.602352  -0.093618
    C   C100  0.396225  0.497972  0.397648  -0.093631
    C   C101  0.122125  0.024772  0.593028  -0.041265
    C   C102  0.877875  0.024772  0.406972  -0.041269
    C   C103  0.622125  0.524772  0.593028  -0.041276
    C   C104  0.377875  0.524772  0.406972  -0.041279
    H   H85   0.108812  0.046331  0.558304  0.107136
    H   H86   0.891188  0.046331  0.441697  0.107137
    H   H87   0.608812  0.546331  0.558304  0.107134
    H   H88   0.391188  0.546331  0.441697  0.107139
    C   C105  0.157897  0.024184  0.627576  -0.159902
    C   C106  0.842103  0.024184  0.372424  -0.159884
    C   C107  0.657897  0.524184  0.627576  -0.159881
    C   C108  0.342103  0.524184  0.372424  -0.159887
    H   H89   0.171739  0.045583  0.620130  0.108180
    H   H90   0.828261  0.045583  0.379871  0.108171
    H   H91   0.671739  0.545583  0.620130  0.108182
    H   H92   0.328261  0.545583  0.379871  0.108184
    C   C109  0.175745  0.997071  0.672629  0.102619
    C   C110  0.824255  0.997071  0.327371  0.102581
    C   C111  0.675745  0.497071  0.672629  0.102564
    C   C112  0.324255  0.497071  0.327371  0.102591
    O   O17   0.029909  0.050601  0.027066  -0.591467
    O   O18   0.970091  0.050601  0.972934  -0.591455
    O   O19   0.529909  0.550601  0.027066  -0.591477
    O   O20   0.470091  0.550601  0.972934  -0.591469
    C   C113  0.000000  0.066833  0.000000  0.715098
    C   C114  0.500000  0.566833  0.000000  0.715141
    O   O21   0.029595  0.001446  0.120704  -0.646659
    O   O22   0.970405  0.001446  0.879296  -0.646665
    O   O23   0.529595  0.501446  0.120704  -0.646695
    O   O24   0.470405  0.501446  0.879296  -0.646700
    O   O25   0.969841  0.001697  0.061871  -0.644819
    O   O26   0.030159  0.001697  0.938129  -0.644822
    O   O27   0.469841  0.501697  0.061871  -0.644820
    O   O28   0.530159  0.501697  0.938129  -0.644848
    C   C115  0.999701  0.000121  0.120672  0.555949
    C   C116  0.000299  0.000121  0.879328  0.556007
    C   C117  0.499701  0.500121  0.120672  0.555977
    C   C118  0.500299  0.500121  0.879328  0.556047
    Cu  Cu5   0.034564  0.000266  0.034041  1.016656
    Cu  Cu6   0.965436  0.000266  0.965959  1.016607
    Cu  Cu7   0.534564  0.500266  0.034041  1.016640
    Cu  Cu8   0.465436  0.500266  0.965959  1.016618
    O   O29   0.029830  0.949951  0.026579  -0.623654
    O   O30   0.970170  0.949951  0.973421  -0.623638
    O   O31   0.529830  0.449951  0.026579  -0.623678
    O   O32   0.470170  0.449951  0.973421  -0.623649
    C   C119  0.000000  0.933717  0.000000  0.703853
    C   C120  0.500000  0.433717  0.000000  0.703945
    O   O33   0.491080  0.951079  0.938886  -0.617322
    O   O34   0.508920  0.951079  0.061114  -0.617326
    O   O35   0.991080  0.451079  0.938886  -0.617311
    O   O36   0.008920  0.451079  0.061114  -0.617300
    C   C121  0.500000  0.934792  0.000000  0.705623
    C   C122  0.000000  0.434792  0.000000  0.705671
    O   O37   0.451262  0.010193  0.897988  -0.606042
    O   O38   0.548738  0.010193  0.102012  -0.606064
    O   O39   0.951262  0.510193  0.897988  -0.606023
    O   O40   0.048738  0.510193  0.102012  -0.606014
    O   O41   0.449839  0.990984  0.000347  -0.626985
    O   O42   0.550161  0.990984  0.999654  -0.626998
    O   O43   0.949839  0.490984  0.000347  -0.626971
    O   O44   0.050161  0.490984  0.999654  -0.626990
    C   C123  0.434234  0.001639  0.933031  0.724948
    C   C124  0.565767  0.001639  0.066969  0.725003
    C   C125  0.934234  0.501639  0.933031  0.724989
    C   C126  0.065767  0.501639  0.066969  0.724965
    Cu  Cu9   0.500827  0.000456  0.939313  0.994398
    Cu  Cu10  0.499173  0.000456  0.060687  0.994473
    Cu  Cu11  0.000827  0.500456  0.939313  0.994314
    Cu  Cu12  0.999173  0.500456  0.060687  0.994402
    O   O45   0.510321  0.049825  0.958691  -0.657936
    O   O46   0.489679  0.049825  0.041309  -0.657941
    O   O47   0.010321  0.549825  0.958691  -0.657924
    O   O48   0.989679  0.549825  0.041309  -0.657918
    C   C127  0.500000  0.066088  0.000000  0.846845
    C   C128  0.000000  0.566088  0.000000  0.846797
    C   C129  0.491487  0.878720  0.937602  -0.093540
    C   C130  0.508513  0.878720  0.062398  -0.093533
    C   C131  0.991487  0.378720  0.937602  -0.093565
    C   C132  0.008513  0.378720  0.062398  -0.093559
    H   H93   0.484910  0.892149  0.888104  0.118707
    H   H94   0.515090  0.892149  0.111896  0.118710
    H   H95   0.984910  0.392149  0.888104  0.118711
    H   H96   0.015090  0.392149  0.111896  0.118711
    C   C133  0.491474  0.843023  0.937621  -0.159224
    C   C134  0.508526  0.843023  0.062379  -0.159242
    C   C135  0.991474  0.343023  0.937621  -0.159175
    C   C136  0.008526  0.343023  0.062379  -0.159188
    H   H97   0.485437  0.829547  0.888441  0.115177
    H   H98   0.514564  0.829547  0.111560  0.115182
    H   H99   0.985437  0.329547  0.888441  0.115165
    H   H100  0.014564  0.329547  0.111560  0.115172
    C   C137  0.500000  0.824882  0.000000  0.113696
    C   C138  0.000000  0.324882  0.000000  0.113670
    C   C139  0.500000  0.896808  0.000000  -0.042904
    C   C140  0.000000  0.396808  0.000000  -0.042917
    C   C141  0.525309  0.768656  0.057137  -0.133586
    C   C142  0.474691  0.768656  0.942863  -0.133515
    C   C143  0.025309  0.268656  0.057137  -0.133319
    C   C144  0.974691  0.268656  0.942863  -0.133296
    H   H101  0.545752  0.782121  0.101989  0.109429
    H   H102  0.454248  0.782121  0.898011  0.109406
    H   H103  0.045752  0.282121  0.101989  0.109354
    H   H104  0.954248  0.282121  0.898011  0.109347
    C   C145  0.025349  0.232963  0.057072  -0.138822
    C   C146  0.974651  0.232963  0.942928  -0.138825
    C   C147  0.525349  0.732963  0.057072  -0.138718
    C   C148  0.474651  0.732963  0.942928  -0.138798
    H   H105  0.045153  0.219498  0.102955  0.107902
    H   H106  0.954847  0.219498  0.897046  0.107901
    H   H107  0.545153  0.719498  0.102955  0.107882
    H   H108  0.454847  0.719498  0.897046  0.107914
    C   C149  0.000000  0.214817  0.000000  0.072519
    C   C150  0.500000  0.714817  0.000000  0.072646
    C   C151  0.500000  0.786803  0.000000  0.051220
    C   C152  0.000000  0.286803  0.000000  0.051004
    C   C153  0.969153  0.158597  0.973611  -0.156760
    C   C154  0.030847  0.158597  0.026389  -0.156703
    C   C155  0.469153  0.658597  0.973611  -0.156729
    C   C156  0.530847  0.658597  0.026389  -0.156620
    H   H109  0.944720  0.172072  0.954096  0.111472
    H   H110  0.055280  0.172072  0.045904  0.111446
    H   H111  0.444720  0.672072  0.954096  0.111465
    H   H112  0.555280  0.672072  0.045904  0.111428
    C   C157  0.969142  0.122900  0.973630  -0.063357
    C   C158  0.030858  0.122900  0.026370  -0.063343
    C   C159  0.469142  0.622900  0.973630  -0.063352
    C   C160  0.530858  0.622900  0.026370  -0.063379
    H   H113  0.944636  0.109465  0.953061  0.114290
    H   H114  0.055364  0.109465  0.046939  0.114278
    H   H115  0.444636  0.609465  0.953061  0.114287
    H   H116  0.555364  0.609465  0.046939  0.114282
    C   C161  0.000000  0.104814  0.000000  -0.109070
    C   C162  0.500000  0.604814  0.000000  -0.109066
    C   C163  0.000000  0.176737  0.000000  0.099584
    C   C164  0.500000  0.676737  0.000000  0.099429
    C   C165  0.491580  0.122068  0.045793  -0.131179
    C   C166  0.508420  0.122068  0.954207  -0.131148
    C   C167  0.991580  0.622068  0.045793  -0.131189
    C   C168  0.008420  0.622068  0.954207  -0.131181
    H   H117  0.485156  0.108624  0.082558  0.108057
    H   H118  0.514844  0.108624  0.917442  0.108046
    H   H119  0.985156  0.608624  0.082558  0.108067
    H   H120  0.014844  0.608624  0.917442  0.108060
    C   C169  0.491644  0.157742  0.045872  -0.138583
    C   C170  0.508356  0.157742  0.954128  -0.138587
    C   C171  0.991644  0.657742  0.045872  -0.138583
    C   C172  0.008356  0.657742  0.954128  -0.138578
    H   H121  0.485796  0.171190  0.083470  0.113271
    H   H122  0.514204  0.171190  0.916530  0.113269
    H   H123  0.985796  0.671190  0.083470  0.113271
    H   H124  0.014204  0.671190  0.916530  0.113268
    C   C173  0.500000  0.175868  0.000000  0.068106
    C   C174  0.000000  0.675868  0.000000  0.068104
    C   C175  0.500000  0.104022  0.000000  0.071085
    C   C176  0.000000  0.604022  0.000000  0.071111
    C   C177  0.524976  0.232058  0.991474  -0.134967
    C   C178  0.475024  0.232058  0.008526  -0.134953
    C   C179  0.024976  0.732058  0.991474  -0.134981
    C   C180  0.975024  0.732058  0.008526  -0.134968
    H   H125  0.545188  0.218619  0.985961  0.114969
    H   H126  0.454812  0.218619  0.014039  0.114965
    H   H127  0.045188  0.718619  0.985961  0.114971
    H   H128  0.954812  0.718619  0.014039  0.114968
    C   C181  0.024976  0.767733  0.991477  -0.138875
    C   C182  0.975024  0.767733  0.008523  -0.138882
    C   C183  0.524976  0.267733  0.991477  -0.138895
    C   C184  0.475024  0.267733  0.008523  -0.138910
    H   H129  0.044463  0.781171  0.983440  0.117879
    H   H130  0.955537  0.781171  0.016560  0.117879
    H   H131  0.544463  0.281171  0.983440  0.117886
    H   H132  0.455537  0.281171  0.016560  0.117889
    C   C185  0.000000  0.785867  0.000000  0.057535
    C   C186  0.500000  0.285867  0.000000  0.057579
    C   C187  0.500000  0.213924  0.000000  0.056585
    C   C188  0.000000  0.713924  0.000000  0.056597
    C   C189  0.969090  0.842052  0.967547  -0.148189
    C   C190  0.030910  0.842052  0.032453  -0.148215
    C   C191  0.469090  0.342052  0.967547  -0.148213
    C   C192  0.530910  0.342052  0.032453  -0.148237
    H   H133  0.944577  0.828604  0.940325  0.105800
    H   H134  0.055423  0.828604  0.059675  0.105809
    H   H135  0.444577  0.328604  0.940325  0.105803
    H   H136  0.555423  0.328604  0.059675  0.105797
    C   C193  0.969079  0.877731  0.967645  -0.093740
    C   C194  0.030921  0.877731  0.032355  -0.093723
    C   C195  0.469079  0.377731  0.967645  -0.093656
    C   C196  0.530921  0.377731  0.032355  -0.093569
    H   H137  0.944530  0.891180  0.941457  0.125768
    H   H138  0.055470  0.891180  0.058543  0.125764
    H   H139  0.444530  0.391180  0.941457  0.125755
    H   H140  0.555470  0.391180  0.058543  0.125735
    C   C197  0.000000  0.895783  0.000000  -0.053372
    C   C198  0.500000  0.395783  0.000000  -0.053557
    C   C199  0.000000  0.823925  0.000000  0.102437
    C   C200  0.500000  0.323925  0.000000  0.102408
    C   C201  0.393269  0.057404  0.829640  0.726576
    O   O49   0.380033  0.070509  0.770210  -0.557334
    O   O50   0.421471  0.073622  0.885660  -0.616338
    H   H141  0.428244  0.094877  0.867312  0.392143
    C   C202  0.606731  0.057404  0.170360  0.726671
    O   O51   0.619967  0.070509  0.229790  -0.557363
    O   O52   0.578529  0.073622  0.114340  -0.616403
    H   H142  0.571756  0.094877  0.132688  0.392160
    C   C203  0.893269  0.557404  0.829640  0.726535
    O   O53   0.880033  0.570509  0.770210  -0.557327
    O   O54   0.921471  0.573622  0.885660  -0.616312
    H   H143  0.928244  0.594877  0.867312  0.392144
    C   C204  0.106731  0.557404  0.170360  0.726586
    O   O55   0.119967  0.570509  0.229790  -0.557338
    O   O56   0.078529  0.573622  0.114340  -0.616351
    H   H144  0.071756  0.594877  0.132688  0.392155
