# generated using pymatgen
data_Fe2H15C41N5O17
_symmetry_space_group_name_H-M   'P 1'
_cell_length_a   13.95323600
_cell_length_b   13.12160000
_cell_length_c   13.34310900
_cell_angle_alpha   101.53195300
_cell_angle_beta   92.16646400
_cell_angle_gamma   110.21769400
_symmetry_Int_Tables_number   1
_chemical_formula_structural   Fe2H15C41N5O17
_chemical_formula_sum   'Fe2 H15 C41 N5 O17'
_cell_volume   2230.94540809
_cell_formula_units_Z   1
loop_
 _symmetry_equiv_pos_site_id
 _symmetry_equiv_pos_as_xyz
  1  'x, y, z'
loop_
 _atom_site_type_symbol
 _atom_site_label
 _atom_site_symmetry_multiplicity
 _atom_site_fract_x
 _atom_site_fract_y
 _atom_site_fract_z
 _atom_site_occupancy
  Fe  Fe1  1  0.53430600  0.01642700  0.29127400  1
  Fe  Fe2  1  0.47459000  0.98797100  0.70895200  1
  H  H1  1  0.94468500  0.14860500  0.35966800  1
  H  H2  1  0.70214900  0.82750100  0.70501700  1
  H  H3  1  0.87106400  0.79874900  0.68655900  1
  H  H4  1  0.06611100  0.85713900  0.64648900  1
  H  H5  1  0.30610100  0.94554000  0.97059300  1
  H  H6  1  0.30798900  0.18052200  0.30042100  1
  H  H7  1  0.13980200  0.20927800  0.31863300  1
  H  H8  1  0.70458900  0.06066700  0.03589100  1
  H  H9  1  0.01765900  0.89840300  0.96136100  1
  H  H10  1  0.99255400  0.10766900  0.04449900  1
  H  H11  1  0.45549800  0.70402000  0.67759700  1
  H  H12  1  0.54590400  0.62599100  0.24832200  1
  H  H13  1  0.52968800  0.34326700  0.38704000  1
  H  H14  1  0.53179800  0.47121800  0.31739800  1
  H  H15  1  0.37012500  0.36507300  0.76075400  1
  C  C1  1  0.70630000  0.93623200  0.85477300  1
  C  C2  1  0.74121700  0.87322600  0.78075700  1
  C  C3  1  0.83821100  0.88559700  0.81989700  1
  C  C4  1  0.78246400  0.98253200  0.93707400  1
  C  C5  1  0.89986700  0.84420300  0.76538500  1
  C  C6  1  0.00930800  0.87149000  0.79792100  1
  C  C7  1  0.08090100  0.87410100  0.72941000  1
  C  C8  1  0.17487800  0.90732900  0.78714600  1
  C  C9  1  0.15667000  0.92302600  0.88983700  1
  C  C10  1  0.23520700  0.96079400  0.97986700  1
  C  C11  1  0.22708400  0.02208700  0.06969000  1
  C  C12  1  0.30310600  0.06920900  0.15212400  1
  C  C13  1  0.26861700  0.13353000  0.22508700  1
  C  C14  1  0.17170600  0.12057200  0.18587500  1
  C  C15  1  0.11061000  0.16286700  0.24013700  1
  C  C16  1  0.00121900  0.13471900  0.20801400  1
  C  C17  1  0.92979400  0.13148500  0.27674600  1
  C  C18  1  0.83581800  0.09742000  0.21907000  1
  C  C19  1  0.85376400  0.08198900  0.11640500  1
  C  C20  1  0.77498400  0.04436900  0.02671000  1
  C  C21  1  0.73857500  0.07521300  0.26440300  1
  C  C22  1  0.53572500  0.82045100  0.33593300  1
  C  C23  1  0.40231000  0.05761800  0.16755200  1
  C  C24  1  0.50137300  0.16447400  0.44707800  1
  C  C25  1  0.47745200  0.27483200  0.61272900  1
  C  C26  1  0.46579700  0.37157100  0.66446800  1
  C  C27  1  0.47526900  0.45791000  0.61656900  1
  C  C28  1  0.46855900  0.63569700  0.62921200  1
  C  C29  1  0.50185000  0.26840700  0.51224200  1
  C  C30  1  0.51314200  0.35622100  0.46552400  1
  C  C31  1  0.49759100  0.45189100  0.51608600  1
  C  C32  1  0.50305900  0.54132500  0.47019700  1
  C  C33  1  0.48936200  0.63492700  0.52828600  1
  C  C34  1  0.50001400  0.72818000  0.48699800  1
  C  C35  1  0.52253900  0.54060900  0.36874000  1
  C  C36  1  0.53092700  0.63091800  0.32765700  1
  C  C37  1  0.52135300  0.72568900  0.38544800  1
  C  C38  1  0.60798700  0.95080500  0.84058100  1
  C  C39  1  0.50625200  0.83402000  0.55514700  1
  C  C40  1  0.27186100  0.92893100  0.74083500  1
  C  C41  1  0.46540900  0.18221200  0.66473300  1
  N  N1  1  0.86354900  0.95148100  0.91569200  1
  N  N2  1  0.05502900  0.89974300  0.89529300  1
  N  N3  1  0.14603700  0.05341100  0.09059800  1
  N  N4  1  0.95536300  0.10603000  0.11068600  1
  N  N5  1  0.46151900  0.54855800  0.67015900  1
  O  O1  1  0.65024600  0.04156500  0.20675200  1
  O  O2  1  0.58241700  0.82400600  0.25250200  1
  O  O3  1  0.74009400  0.08526400  0.36431700  1
  O  O4  1  0.49876800  0.89863500  0.37069000  1
  O  O5  1  0.40512100  0.96754800  0.19444100  1
  O  O6  1  0.48325000  0.14968800  0.19573900  1
  O  O7  1  0.57843000  0.16322800  0.39383200  1
  O  O8  1  0.41688900  0.07568900  0.42994800  1
  O  O9  1  0.60613900  0.03471700  0.80194300  1
  O  O10  1  0.52375900  0.86270300  0.82829100  1
  O  O11  1  0.42790900  0.84295400  0.60337200  1
  O  O12  1  0.59453900  0.91801700  0.57505700  1
  O  O13  1  0.41280800  0.17336600  0.74399100  1
  O  O14  1  0.36114100  0.96082000  0.79676400  1
  O  O15  1  0.50789500  0.10831500  0.63260600  1
  O  O16  1  0.26901900  0.92079900  0.64108700  1
  O  O17  1  0.44556100  0.38434000  0.76470700  1
