# Generated by REPEAT Assigner based on pymatgen
data_DB0-m2_o14_o27_f0_nbo.sym.109
_audit_creation_date              2022-05-24
_audit_creation_method            REPEAT_Assigner
_cell_length_a                    30.462271
_cell_length_b                    30.770995
_cell_length_c                    24.506518
_cell_angle_alpha                 90.000000
_cell_angle_beta                  128.418692
_cell_angle_gamma                 90.000000
_cell_volume                      17997.796113
_symmetry_space_group_name_H-M    P1
_symmetry_Int_Tables_number       1
loop_
    _symmetry_equiv_pos_site_id
    _symmetry_equiv_pos_as_xyz
    1  x,y,z
loop_
    _atom_site_type_symbol
    _atom_site_label
    _atom_site_fract_x
    _atom_site_fract_y
    _atom_site_fract_z
    _atom_type_partial_charge
    O   O1    0.682609  0.241329  0.508102  -0.635294
    O   O2    0.317391  0.241329  0.491898  -0.635257
    O   O3    0.182609  0.741329  0.508102  -0.635236
    O   O4    0.817391  0.741329  0.491898  -0.635257
    O   O5    0.733615  0.187393  0.504947  -0.606338
    O   O6    0.266385  0.187393  0.495053  -0.606309
    O   O7    0.233615  0.687393  0.504947  -0.606320
    O   O8    0.766385  0.687393  0.495053  -0.606319
    C   C1    0.695200  0.200334  0.509924  0.825035
    C   C2    0.304801  0.200334  0.490077  0.825149
    C   C3    0.195200  0.700334  0.509924  0.824981
    C   C4    0.804801  0.700334  0.490077  0.824967
    O   O9    0.672366  0.283300  0.398090  -0.581453
    O   O10   0.327634  0.283300  0.601911  -0.581434
    O   O11   0.172366  0.783300  0.398090  -0.581450
    O   O12   0.827634  0.783300  0.601911  -0.581454
    O   O13   0.722455  0.226479  0.399530  -0.560975
    O   O14   0.277546  0.226479  0.600470  -0.560935
    O   O15   0.222455  0.726479  0.399530  -0.560975
    O   O16   0.777546  0.726479  0.600470  -0.560985
    C   C5    0.680522  0.254040  0.366287  0.588441
    C   C6    0.319478  0.254040  0.633713  0.588305
    C   C7    0.180522  0.754040  0.366287  0.588430
    C   C8    0.819478  0.754040  0.633713  0.588468
    Cu  Cu1   0.719512  0.289465  0.499171  0.976079
    Cu  Cu2   0.280488  0.289465  0.500829  0.975953
    Cu  Cu3   0.219512  0.789465  0.499171  0.976071
    Cu  Cu4   0.780488  0.789465  0.500829  0.976045
    Cu  Cu5   0.781044  0.227359  0.500410  0.968101
    Cu  Cu6   0.218956  0.227359  0.499590  0.968138
    Cu  Cu7   0.281044  0.727359  0.500410  0.968065
    Cu  Cu8   0.718956  0.727359  0.499590  0.968184
    O   O17   0.767678  0.329413  0.496002  -0.601149
    O   O18   0.232322  0.329413  0.503998  -0.601129
    O   O19   0.267678  0.829413  0.496002  -0.601124
    O   O20   0.732322  0.829413  0.503998  -0.601145
    O   O21   0.817155  0.275446  0.490040  -0.633147
    O   O22   0.182845  0.275446  0.509960  -0.633140
    O   O23   0.317155  0.775446  0.490040  -0.633142
    O   O24   0.682845  0.775446  0.509960  -0.633175
    O   O25   0.777498  0.289732  0.600205  -0.548487
    O   O26   0.222502  0.289732  0.399796  -0.548486
    O   O27   0.277498  0.789732  0.600205  -0.548489
    O   O28   0.722502  0.789732  0.399796  -0.548514
    O   O29   0.828832  0.234174  0.601423  -0.553025
    O   O30   0.171168  0.234174  0.398577  -0.553011
    O   O31   0.328832  0.734174  0.601423  -0.553027
    O   O32   0.671168  0.734174  0.398577  -0.553050
    C   C9    0.805267  0.316474  0.489538  0.809189
    C   C10   0.194733  0.316474  0.510462  0.809145
    C   C11   0.305267  0.816474  0.489538  0.809159
    C   C12   0.694733  0.816474  0.510462  0.809151
    C   C13   0.820149  0.262809  0.633441  0.561725
    C   C14   0.179852  0.262809  0.366559  0.561677
    C   C15   0.320149  0.762809  0.633441  0.561718
    C   C16   0.679852  0.762809  0.366559  0.561818
    C   C17   0.637782  0.216247  0.254769  -0.148890
    C   C18   0.362219  0.216246  0.745232  -0.148911
    C   C19   0.137782  0.716247  0.254769  -0.148894
    C   C20   0.862219  0.716246  0.745232  -0.148816
    H   H1    0.662168  0.187588  0.282843  0.130179
    H   H2    0.337832  0.187587  0.717157  0.130187
    H   H3    0.162168  0.687588  0.282843  0.130181
    H   H4    0.837832  0.687587  0.717157  0.130166
    C   C21   0.601736  0.215553  0.182953  0.118546
    C   C22   0.398264  0.215552  0.817047  0.118394
    C   C23   0.101736  0.715553  0.182953  0.118548
    C   C24   0.898264  0.715552  0.817047  0.118317
    H   H5    0.599181  0.186480  0.156381  0.038220
    H   H6    0.400819  0.186480  0.843619  0.038279
    H   H7    0.099181  0.686480  0.156381  0.038222
    H   H8    0.900819  0.686480  0.843619  0.038287
    C   C25   0.570722  0.252017  0.145881  -0.495731
    C   C26   0.429278  0.252017  0.854119  -0.495586
    C   C27   0.070722  0.752017  0.145881  -0.495738
    C   C28   0.929278  0.752017  0.854119  -0.495482
    C   C29   0.575297  0.288858  0.181345  0.097378
    C   C30   0.424703  0.288858  0.818655  0.097550
    C   C31   0.075297  0.788858  0.181345  0.097390
    C   C32   0.924703  0.788858  0.818655  0.097466
    H   H9    0.551266  0.317694  0.153562  0.041445
    H   H10   0.448733  0.317694  0.846438  0.041377
    H   H11   0.051266  0.817694  0.153562  0.041441
    H   H12   0.948733  0.817694  0.846438  0.041381
    C   C33   0.610127  0.289114  0.253080  -0.144051
    C   C34   0.389874  0.289114  0.746920  -0.144293
    C   C35   0.110127  0.789114  0.253080  -0.144068
    C   C36   0.889874  0.789114  0.746920  -0.144202
    H   H13   0.613194  0.318334  0.279726  0.133764
    H   H14   0.386806  0.318334  0.720274  0.133819
    H   H15   0.113194  0.818334  0.279726  0.133772
    H   H16   0.886806  0.818334  0.720274  0.133806
    C   C37   0.641879  0.252949  0.290116  0.047663
    C   C38   0.358121  0.252948  0.709884  0.047845
    C   C39   0.141879  0.752949  0.290116  0.047678
    C   C40   0.858121  0.752948  0.709884  0.047678
    N   N1    0.516537  0.289658  0.034392  -0.356052
    N   N2    0.483463  0.289658  0.965608  -0.356027
    N   N3    0.016537  0.789658  0.034392  -0.356058
    N   N4    0.983463  0.789658  0.965608  -0.356013
    C   C41   0.466329  0.251875  0.930401  0.949966
    C   C42   0.533671  0.251875  0.069599  0.950092
    C   C43   0.966329  0.751875  0.930401  0.949922
    C   C44   0.033671  0.751875  0.069599  0.950101
    N   N5    0.483229  0.214065  0.965579  -0.353741
    N   N6    0.516771  0.214065  0.034421  -0.353761
    N   N7    0.983229  0.714065  0.965579  -0.353730
    N   N8    0.016771  0.714065  0.034421  -0.353763
    H   H17   0.586198  0.188900  0.424895  0.116387
    H   H18   0.413802  0.188899  0.575106  0.116382
    H   H19   0.086198  0.688900  0.424895  0.116383
    H   H20   0.913802  0.688899  0.575106  0.116350
    C   C45   0.749000  0.140843  0.624680  -0.296873
    C   C46   0.251000  0.140844  0.375319  -0.296703
    C   C47   0.249000  0.640843  0.624680  -0.296861
    C   C48   0.751000  0.640844  0.375319  -0.296745
    H   H21   0.773684  0.167239  0.627623  0.160081
    H   H22   0.226317  0.167241  0.372377  0.160008
    H   H23   0.273684  0.667239  0.627623  0.160075
    H   H24   0.726317  0.667241  0.372377  0.160044
    C   C49   0.776493  0.110683  0.677324  -0.054094
    C   C50   0.223507  0.110686  0.322673  -0.054278
    C   C51   0.276493  0.610684  0.677324  -0.054087
    C   C52   0.723507  0.610686  0.322673  -0.054238
    H   H25   0.821079  0.113622  0.718585  0.099663
    H   H26   0.178921  0.113625  0.281413  0.099708
    H   H27   0.321079  0.613622  0.718585  0.099655
    H   H28   0.678921  0.613625  0.281413  0.099696
    C   C53   0.747351  0.076716  0.677157  -0.093757
    C   C54   0.252649  0.076719  0.322840  -0.093506
    C   C55   0.247351  0.576716  0.677157  -0.093745
    C   C56   0.752649  0.576719  0.322840  -0.093515
    H   H29   0.769057  0.052663  0.718115  0.110959
    H   H30   0.230943  0.052667  0.281880  0.110865
    H   H31   0.269057  0.552663  0.718115  0.110956
    H   H32   0.730943  0.552667  0.281880  0.110863
    C   C57   0.690457  0.073391  0.625429  -0.252022
    C   C58   0.309543  0.073393  0.374568  -0.252279
    C   C59   0.190457  0.573391  0.625429  -0.252082
    C   C60   0.809543  0.573393  0.374568  -0.252264
    H   H33   0.670395  0.045986  0.628286  0.158333
    H   H34   0.329605  0.045988  0.371710  0.158436
    H   H35   0.170395  0.545986  0.628286  0.158376
    H   H36   0.829605  0.545988  0.371710  0.158436
    C   C61   0.661366  0.104138  0.572537  0.179840
    C   C62   0.338634  0.104139  0.427462  0.179960
    C   C63   0.161366  0.604138  0.572537  0.179886
    C   C64   0.838634  0.604139  0.427462  0.179945
    C   C65   0.691692  0.137398  0.571154  0.244545
    C   C66   0.308309  0.137399  0.428845  0.244571
    C   C67   0.191692  0.637398  0.571154  0.244534
    C   C68   0.808309  0.637399  0.428845  0.244479
    C   C69   0.664486  0.167371  0.517020  -0.229213
    C   C70   0.335515  0.167371  0.482980  -0.229524
    C   C71   0.164486  0.667371  0.517020  -0.229207
    C   C72   0.835515  0.667371  0.482980  -0.229255
    C   C73   0.607363  0.165469  0.466835  -0.086801
    C   C74   0.392637  0.165468  0.533166  -0.086678
    C   C75   0.107363  0.665469  0.466835  -0.086802
    C   C76   0.892637  0.665468  0.533166  -0.086639
    H   H37   0.532339  0.131955  0.427187  0.128812
    H   H38   0.467661  0.131955  0.572814  0.128810
    H   H39   0.032339  0.631955  0.427187  0.128806
    H   H40   0.967661  0.631955  0.572814  0.128835
    C   C77   0.577168  0.132852  0.467895  -0.082164
    C   C78   0.422832  0.132852  0.532105  -0.082205
    C   C79   0.077168  0.632852  0.467895  -0.082152
    C   C80   0.922832  0.632852  0.532105  -0.082298
    C   C81   0.603188  0.101802  0.519857  -0.186690
    C   C82   0.396812  0.101802  0.480142  -0.186698
    C   C83   0.103188  0.601802  0.519857  -0.186691
    C   C84   0.896812  0.601802  0.480142  -0.186700
    C   C85   0.904755  0.236234  0.746079  -0.027114
    C   C86   0.095246  0.236234  0.253921  -0.027133
    C   C87   0.404755  0.736234  0.746079  -0.027137
    C   C88   0.595246  0.736234  0.253921  -0.027085
    H   H41   0.911949  0.214231  0.718070  0.075352
    H   H42   0.088051  0.214230  0.281930  0.075367
    H   H43   0.411949  0.714231  0.718070  0.075358
    H   H44   0.588051  0.714230  0.281930  0.075353
    C   C89   0.940034  0.234910  0.818055  0.118638
    C   C90   0.059966  0.234910  0.181945  0.118627
    C   C91   0.440034  0.734910  0.818055  0.118711
    C   C92   0.559966  0.734910  0.181945  0.118613
    C   C93   0.929595  0.262044  0.854209  -0.472500
    C   C94   0.070405  0.262044  0.145791  -0.472499
    C   C95   0.429595  0.762044  0.854209  -0.472528
    C   C96   0.570405  0.762044  0.145791  -0.472473
    C   C97   0.883480  0.289104  0.817720  0.018144
    C   C98   0.116520  0.289104  0.182280  0.018150
    C   C99   0.383480  0.789104  0.817720  0.018157
    C   C100  0.616520  0.789104  0.182280  0.018126
    H   H45   0.875042  0.310337  0.845359  0.082342
    H   H46   0.124958  0.310337  0.154641  0.082341
    H   H47   0.375042  0.810337  0.845359  0.082345
    H   H48   0.624958  0.810337  0.154641  0.082340
    C   C101  0.848443  0.290131  0.746022  -0.111252
    C   C102  0.151558  0.290131  0.253978  -0.111293
    C   C103  0.348443  0.790131  0.746022  -0.111272
    C   C104  0.651558  0.790131  0.253978  -0.111229
    H   H49   0.812644  0.311614  0.718967  0.119597
    H   H50   0.187356  0.311614  0.281033  0.119616
    H   H51   0.312644  0.811614  0.718967  0.119604
    H   H52   0.687356  0.811614  0.281033  0.119596
    C   C105  0.858888  0.263642  0.709801  0.001394
    C   C106  0.141112  0.263642  0.290199  0.001460
    C   C107  0.358888  0.763642  0.709801  0.001407
    C   C108  0.641112  0.763642  0.290199  0.001323
    N   N9    0.944338  0.264394  0.963711  -0.375681
    N   N10   0.055662  0.264394  0.036289  -0.375688
    N   N11   0.444338  0.764394  0.963711  -0.375641
    N   N12   0.555662  0.764394  0.036289  -0.375657
    N   N13   0.977416  0.264309  0.032507  -0.353303
    N   N14   0.022585  0.264309  0.967493  -0.353293
    N   N15   0.477416  0.764309  0.032507  -0.353297
    N   N16   0.522585  0.764309  0.967493  -0.353274
    C   C109  0.033438  0.263345  0.069531  0.966981
    C   C110  0.966562  0.263345  0.930469  0.966971
    C   C111  0.533438  0.763345  0.069531  0.966986
    C   C112  0.466562  0.763345  0.930469  0.966970
    H   H53   0.914541  0.326569  0.572323  0.109055
    H   H54   0.085459  0.326570  0.427676  0.109002
    H   H55   0.414541  0.826569  0.572323  0.109030
    H   H56   0.585459  0.826570  0.427676  0.109008
    C   C113  0.750864  0.377791  0.377059  -0.304816
    C   C114  0.249136  0.377789  0.622943  -0.304847
    C   C115  0.250864  0.877791  0.377059  -0.304846
    C   C116  0.749136  0.877789  0.622943  -0.304816
    H   H57   0.726118  0.351229  0.373530  0.166613
    H   H58   0.273882  0.351227  0.626471  0.166662
    H   H59   0.226118  0.851229  0.373530  0.166620
    H   H60   0.773882  0.851227  0.626471  0.166638
    C   C117  0.723215  0.409017  0.326097  -0.064817
    C   C118  0.276785  0.409014  0.673906  -0.064898
    C   C119  0.223215  0.909017  0.326097  -0.064818
    C   C120  0.776785  0.909014  0.673906  -0.064907
    H   H61   0.678440  0.406702  0.285547  0.099056
    H   H62   0.321560  0.406699  0.714457  0.099082
    H   H63   0.178440  0.906702  0.285547  0.099058
    H   H64   0.821560  0.906699  0.714457  0.099088
    C   C121  0.752431  0.443303  0.327157  -0.082060
    C   C122  0.247569  0.443300  0.672847  -0.081946
    C   C123  0.252431  0.943303  0.327157  -0.082052
    C   C124  0.747569  0.943300  0.672847  -0.081943
    H   H65   0.730599  0.468245  0.287682  0.107918
    H   H66   0.269401  0.468241  0.712324  0.107882
    H   H67   0.230599  0.968245  0.287682  0.107917
    H   H68   0.769401  0.968241  0.712324  0.107881
    C   C125  0.809547  0.445820  0.377929  -0.258589
    C   C126  0.190454  0.445817  0.622075  -0.258711
    C   C127  0.309547  0.945820  0.377929  -0.258583
    C   C128  0.690454  0.945817  0.622075  -0.258762
    H   H69   0.829834  0.473546  0.376232  0.159299
    H   H70   0.170167  0.473543  0.623773  0.159307
    H   H71   0.329834  0.973546  0.376232  0.159292
    H   H72   0.670167  0.973543  0.623773  0.159345
    C   C129  0.838712  0.413925  0.428812  0.175184
    C   C130  0.161288  0.413924  0.571191  0.175460
    C   C131  0.338712  0.913925  0.428812  0.175136
    C   C132  0.661288  0.913923  0.571191  0.175479
    C   C133  0.808414  0.380432  0.429665  0.257233
    C   C134  0.191586  0.380431  0.570337  0.257181
    C   C135  0.308414  0.880432  0.429665  0.257304
    C   C136  0.691586  0.880431  0.570337  0.257162
    C   C137  0.835879  0.349498  0.482374  -0.233991
    C   C138  0.164121  0.349498  0.517626  -0.234002
    C   C139  0.335879  0.849498  0.482374  -0.234059
    C   C140  0.664121  0.849498  0.517626  -0.233970
    C   C141  0.893178  0.350694  0.531431  -0.067535
    C   C142  0.106822  0.350694  0.468569  -0.067356
    C   C143  0.393178  0.850694  0.531431  -0.067385
    C   C144  0.606822  0.850694  0.468569  -0.067382
    H   H73   0.968327  0.383888  0.570436  0.133676
    H   H74   0.031673  0.383888  0.429564  0.133707
    H   H75   0.468327  0.883888  0.570436  0.133722
    H   H76   0.531673  0.883888  0.429564  0.133710
    C   C145  0.923344  0.383494  0.530679  -0.102253
    C   C146  0.076656  0.383494  0.469321  -0.102331
    C   C147  0.423344  0.883494  0.530679  -0.102439
    C   C148  0.576656  0.883494  0.469321  -0.102317
    C   C149  0.897045  0.415442  0.480194  -0.177181
    C   C150  0.102956  0.415441  0.519807  -0.177483
    C   C151  0.397045  0.915442  0.480194  -0.177101
    C   C152  0.602956  0.915441  0.519807  -0.177519
    O   O33   0.024313  0.462688  0.451253  -0.611219
    O   O34   0.975687  0.462688  0.548748  -0.611235
    O   O35   0.524313  0.962688  0.451253  -0.611226
    O   O36   0.475687  0.962688  0.548748  -0.611245
    O   O37   0.075728  0.465284  0.570326  -0.586154
    O   O38   0.924272  0.465284  0.429675  -0.586170
    O   O39   0.575728  0.965284  0.570326  -0.586155
    O   O40   0.424272  0.965284  0.429675  -0.586157
    C   C153  0.066801  0.450047  0.514120  0.727138
    C   C154  0.933200  0.450047  0.485881  0.726991
    C   C155  0.566801  0.950047  0.514120  0.727145
    C   C156  0.433200  0.950047  0.485881  0.726994
    O   O41   0.524528  0.054465  0.451305  -0.614059
    O   O42   0.475472  0.054466  0.548695  -0.614058
    O   O43   0.024528  0.554465  0.451305  -0.614055
    O   O44   0.975472  0.554466  0.548695  -0.614043
    O   O45   0.575504  0.052242  0.570264  -0.581718
    O   O46   0.424496  0.052242  0.429736  -0.581721
    O   O47   0.075504  0.552242  0.570264  -0.581725
    O   O48   0.924496  0.552242  0.429736  -0.581742
    C   C157  0.566874  0.067280  0.514164  0.725605
    C   C158  0.433126  0.067280  0.485836  0.725661
    C   C159  0.066874  0.567280  0.514164  0.725604
    C   C160  0.933126  0.567280  0.485836  0.725684
    Cu  Cu9   0.972020  0.508664  0.431454  0.968932
    Cu  Cu10  0.027981  0.508664  0.568546  0.968973
    Cu  Cu11  0.472020  0.008664  0.431454  0.969000
    Cu  Cu12  0.527981  0.008664  0.568546  0.968931
    C   C161  0.984689  0.202050  0.853767  0.058042
    C   C162  0.014540  0.188718  0.831852  -0.172711
    C   C163  0.049762  0.157382  0.877497  -0.174312
    C   C164  0.038772  0.153487  0.923783  -0.018023
    O   O49   0.998964  0.180445  0.909467  -0.056055
    H   H77   0.011443  0.200724  0.788116  0.145412
    H   H78   0.080103  0.139245  0.877400  0.142404
    H   H79   0.059805  0.130999  0.967018  0.102893
    C   C165  0.015312  0.202050  0.146233  0.058053
    C   C166  0.985461  0.188718  0.168148  -0.172746
    C   C167  0.950239  0.157382  0.122504  -0.174284
    C   C168  0.961229  0.153487  0.076217  -0.018039
    O   O50   0.001036  0.180445  0.090533  -0.056033
    H   H80   0.988557  0.200723  0.211884  0.145422
    H   H81   0.919898  0.139245  0.122600  0.142396
    H   H82   0.940195  0.130999  0.032982  0.102894
    C   C169  0.484689  0.702050  0.853767  0.057942
    C   C170  0.514540  0.688718  0.831852  -0.172705
    C   C171  0.549762  0.657382  0.877497  -0.174121
    C   C172  0.538772  0.653487  0.923783  -0.018188
    O   O51   0.498964  0.680445  0.909467  -0.055971
    H   H83   0.511443  0.700724  0.788116  0.145389
    H   H84   0.580103  0.639245  0.877400  0.142339
    H   H85   0.559805  0.630999  0.967018  0.102931
    C   C173  0.515312  0.702050  0.146233  0.058055
    C   C174  0.485461  0.688718  0.168148  -0.172754
    C   C175  0.450239  0.657382  0.122504  -0.174278
    C   C176  0.461229  0.653487  0.076217  -0.018056
    O   O52   0.501036  0.680445  0.090533  -0.056024
    H   H86   0.488557  0.700723  0.211884  0.145422
    H   H87   0.419898  0.639245  0.122600  0.142395
    H   H88   0.440195  0.630999  0.032982  0.102898
