# generated using pymatgen
data_Fe2H29C66S8NO16
_symmetry_space_group_name_H-M   'P 1'
_cell_length_a   15.82378100
_cell_length_b   20.89192900
_cell_length_c   21.80735700
_cell_angle_alpha   90.58435800
_cell_angle_beta   101.22280500
_cell_angle_gamma   104.16096200
_symmetry_Int_Tables_number   1
_chemical_formula_structural   Fe2H29C66S8NO16
_chemical_formula_sum   'Fe2 H29 C66 S8 N1 O16'
_cell_volume   6843.85753966
_cell_formula_units_Z   1
loop_
 _symmetry_equiv_pos_site_id
 _symmetry_equiv_pos_as_xyz
  1  'x, y, z'
loop_
 _atom_site_type_symbol
 _atom_site_label
 _atom_site_symmetry_multiplicity
 _atom_site_fract_x
 _atom_site_fract_y
 _atom_site_fract_z
 _atom_site_occupancy
  Fe  Fe1  1  0.47988900  0.99372400  0.85293700  1
  Fe  Fe2  1  0.50234200  0.99510700  0.13701900  1
  H  H1  1  0.20782300  0.98744400  0.85277200  1
  H  H2  1  0.06379200  0.98647100  0.87791400  1
  H  H3  1  0.18067200  0.01274100  0.07159500  1
  H  H4  1  0.80910700  0.99207400  0.91989600  1
  H  H5  1  0.77817700  0.01161300  0.13841500  1
  H  H6  1  0.92356200  0.01697600  0.11388300  1
  H  H7  1  0.51368900  0.49952100  0.39035500  1
  H  H8  1  0.48873700  0.49096100  0.60958900  1
  H  H9  1  0.62825900  0.77318600  0.44320000  1
  H  H10  1  0.40515100  0.73913000  0.57165100  1
  H  H11  1  0.61133800  0.26859900  0.62322300  1
  H  H12  1  0.42425400  0.21850100  0.39810400  1
  H  H13  1  0.41540300  0.77957100  0.18490400  1
  H  H14  1  0.42398700  0.68238400  0.25255700  1
  H  H15  1  0.58788000  0.33899700  0.25495900  1
  H  H16  1  0.60068000  0.25314000  0.17690200  1
  H  H17  1  0.33307400  0.18604700  0.77702800  1
  H  H18  1  0.35868600  0.28116700  0.70687600  1
  H  H19  1  0.51584500  0.66125000  0.77368700  1
  H  H20  1  0.51837900  0.75121400  0.85378200  1
  H  H21  1  0.41147900  0.30441000  0.47489900  1
  H  H22  1  0.41277800  0.65420100  0.49143600  1
  H  H23  1  0.62032600  0.67851200  0.51529600  1
  H  H24  1  0.67422600  0.41502600  0.54337200  1
  H  H25  1  0.81509300  0.39597600  0.58078300  1
  H  H26  1  0.91385400  0.32213200  0.58075200  1
  H  H27  1  0.85320300  0.20734100  0.53726500  1
  H  H28  1  0.69318800  0.16668700  0.49282700  1
  H  H29  1  0.59381800  0.24019400  0.49246400  1
  C  C1  1  0.20279800  0.99215000  0.90124600  1
  C  C2  1  0.12173200  0.99225000  0.91514100  1
  C  C3  1  0.11483200  0.00107700  0.97629600  1
  C  C4  1  0.18861200  0.00789100  0.02381300  1
  C  C5  1  0.27067200  0.00717400  0.01054800  1
  C  C6  1  0.27789400  0.00110400  0.94820000  1
  C  C7  1  0.03024000  0.00229200  0.99033400  1
  C  C8  1  0.95888200  0.00310400  0.00162900  1
  C  C9  1  0.80027600  0.99594500  0.96755800  1
  C  C10  1  0.71717700  0.99410600  0.98033000  1
  C  C11  1  0.70877900  0.99823200  0.04276900  1
  C  C12  1  0.78385800  0.00839600  0.08995500  1
  C  C13  1  0.86584000  0.01081700  0.07641500  1
  C  C14  1  0.87382800  0.00344400  0.01534000  1
  C  C15  1  0.44395200  0.10099600  0.79219600  1
  C  C16  1  0.36301800  0.00739700  0.92901700  1
  C  C17  1  0.64233700  0.99007600  0.92688300  1
  C  C18  1  0.47602600  0.86759700  0.81459800  1
  C  C19  1  0.52937900  0.11963700  0.18929400  1
  C  C20  1  0.34567700  0.00933300  0.06325300  1
  C  C21  1  0.62301000  0.98835200  0.06208900  1
  C  C22  1  0.52483500  0.90502000  0.22571900  1
  C  C23  1  0.49585200  0.38093900  0.42975200  1
  C  C24  1  0.45026100  0.31733200  0.43919700  1
  C  C25  1  0.57139500  0.34807000  0.56963700  1
  C  C26  1  0.50789900  0.38390500  0.56802900  1
  C  C27  1  0.50038700  0.43717500  0.53101500  1
  C  C28  1  0.50288700  0.43772700  0.46727900  1
  C  C29  1  0.49424200  0.49365900  0.56134400  1
  C  C30  1  0.49669300  0.55263600  0.53243400  1
  C  C31  1  0.50855500  0.55507500  0.47045000  1
  C  C32  1  0.50818100  0.49724200  0.43867600  1
  C  C33  1  0.48158600  0.60484400  0.56632500  1
  C  C34  1  0.44047500  0.65268000  0.54056600  1
  C  C35  1  0.58411900  0.67243600  0.46729500  1
  C  C36  1  0.52765100  0.61356100  0.43954000  1
  C  C37  1  0.58954900  0.72351800  0.42780100  1
  C  C38  1  0.53760000  0.70499300  0.36878300  1
  C  C39  1  0.46722000  0.68514900  0.64477500  1
  C  C40  1  0.43451300  0.69833300  0.58429000  1
  C  C41  1  0.56648300  0.30036700  0.61335500  1
  C  C42  1  0.49852100  0.29839700  0.64511000  1
  C  C43  1  0.50320800  0.29673600  0.35221800  1
  C  C44  1  0.45545900  0.27040300  0.39646500  1
  C  C45  1  0.52457700  0.74951900  0.32316000  1
  C  C46  1  0.47007400  0.72442500  0.69693700  1
  C  C47  1  0.47637800  0.25272700  0.68887000  1
  C  C48  1  0.51957100  0.25898100  0.30533800  1
  C  C49  1  0.51521100  0.84317300  0.25751800  1
  C  C50  1  0.45878000  0.78442200  0.23050100  1
  C  C51  1  0.46436700  0.73182300  0.26699300  1
  C  C52  1  0.56298700  0.28662200  0.25917500  1
  C  C53  1  0.57006600  0.24030900  0.21678900  1
  C  C54  1  0.53359700  0.17647300  0.23016600  1
  C  C55  1  0.45131800  0.16111100  0.75790800  1
  C  C56  1  0.38880600  0.19733000  0.75366400  1
  C  C57  1  0.40319300  0.24900700  0.71564800  1
  C  C58  1  0.49788700  0.70665400  0.76066000  1
  C  C59  1  0.49863900  0.75491800  0.80389600  1
  C  C60  1  0.47461500  0.80908600  0.77720700  1
  C  C61  1  0.69746800  0.32246500  0.53808100  1
  C  C62  1  0.78767500  0.34554600  0.56171200  1
  C  C63  1  0.84339500  0.30409300  0.56172700  1
  C  C64  1  0.80942800  0.23976000  0.53731900  1
  C  C65  1  0.71974000  0.21695600  0.51249800  1
  C  C66  1  0.66390600  0.25829800  0.51248800  1
  S  S1  1  0.48358300  0.61838500  0.35782900  1
  S  S2  1  0.50666200  0.61197500  0.65054500  1
  S  S3  1  0.43898400  0.36018800  0.62432700  1
  S  S4  1  0.54217500  0.38489700  0.36048700  1
  S  S5  1  0.58065800  0.83598600  0.33282700  1
  S  S6  1  0.48630600  0.17014400  0.29875800  1
  S  S7  1  0.53528600  0.19073700  0.71313500  1
  S  S8  1  0.44542100  0.80366300  0.69318200  1
  N  N1  1  0.64115200  0.36577600  0.53609300  1
  O  O1  1  0.51208100  0.07473400  0.80744900  1
  O  O2  1  0.42982600  0.05878200  0.94974300  1
  O  O3  1  0.36797600  0.07312500  0.80758700  1
  O  O4  1  0.36652900  0.96805600  0.88276800  1
  O  O5  1  0.56896900  0.00543400  0.93406700  1
  O  O6  1  0.65135100  0.97511300  0.87034300  1
  O  O7  1  0.47546800  0.92359800  0.78803400  1
  O  O8  1  0.48092700  0.86488900  0.87523100  1
  O  O9  1  0.50434800  0.05913300  0.20687700  1
  O  O10  1  0.54839800  0.12918100  0.13365600  1
  O  O11  1  0.41646800  0.99059900  0.05519100  1
  O  O12  1  0.33844100  0.02463200  0.12015000  1
  O  O13  1  0.59324100  0.95516100  0.24669300  1
  O  O14  1  0.61783600  0.02410000  0.11047400  1
  O  O15  1  0.46679000  0.90950700  0.17495700  1
  O  O16  1  0.55712000  0.93733200  0.03860000  1
