# Generated by REPEAT Assigner based on pymatgen
data_DB0-m3_o18_o450_f0_fsc.sym.42
_audit_creation_date              2022-05-24
_audit_creation_method            REPEAT_Assigner
_cell_length_a                    8.531876
_cell_length_b                    12.800214
_cell_length_c                    14.364318
_cell_angle_alpha                 109.702543
_cell_angle_beta                  90.077847
_cell_angle_gamma                 95.424127
_cell_volume                      1469.347471
_symmetry_space_group_name_H-M    P1
_symmetry_Int_Tables_number       1
loop_
    _symmetry_equiv_pos_site_id
    _symmetry_equiv_pos_as_xyz
    1  x,y,z
loop_
    _atom_site_type_symbol
    _atom_site_label
    _atom_site_fract_x
    _atom_site_fract_y
    _atom_site_fract_z
    _atom_type_partial_charge
    C   C1   0.171364  0.711046  0.003999  0.228590
    C   C2   0.828636  0.288954  0.996001  0.228768
    C   C3   0.183083  0.814245  0.992107  -0.524674
    C   C4   0.816917  0.185755  0.007893  -0.524689
    H   H1   0.297387  0.855149  0.985889  0.186183
    H   H2   0.702613  0.144851  0.014111  0.186183
    C   C5   0.048097  0.867455  0.992750  0.537343
    C   C6   0.951903  0.132545  0.007251  0.537218
    C   C7   0.900831  0.811194  0.994072  -0.306966
    C   C8   0.099169  0.188806  0.005929  -0.306908
    H   H3   0.792040  0.845586  0.987609  0.117735
    H   H4   0.207960  0.154414  0.012391  0.117783
    C   C9   0.891551  0.708148  0.005223  0.051984
    C   C10  0.108449  0.291852  0.994777  0.052044
    C   C11  0.026491  0.663367  0.017168  -0.391840
    C   C12  0.973509  0.336633  0.982833  -0.392002
    N   N1   0.063143  0.978224  0.991947  -0.245143
    N   N2   0.936857  0.021776  0.008053  -0.244979
    H   H5   0.018476  0.586899  0.032563  0.159038
    H   H6   0.981524  0.413101  0.967437  0.159058
    O   O1   0.690872  0.634837  0.086443  -0.667914
    O   O2   0.309128  0.365163  0.913557  -0.667972
    O   O3   0.677509  0.580609  0.916035  -0.801840
    O   O4   0.322491  0.419391  0.083966  -0.801672
    C   C13  0.741586  0.642286  0.002687  0.969407
    C   C14  0.258414  0.357714  0.997314  0.969297
    O   O5   0.647467  0.361950  0.914365  -0.676211
    O   O6   0.352533  0.638050  0.085635  -0.676147
    O   O7   0.649044  0.416190  0.084644  -0.802383
    O   O8   0.350956  0.583810  0.915357  -0.802511
    C   C15  0.694194  0.352899  0.998133  0.900467
    C   C16  0.305806  0.647101  0.001868  0.900561
    Zn  Zn1  0.494663  0.461459  0.889796  1.004399
    Zn  Zn2  0.505337  0.538541  0.110204  1.004214
    N   N3   0.488136  0.413263  0.760067  0.271783
    N   N4   0.511864  0.586737  0.239934  0.271641
    C   C17  0.464022  0.262818  0.609641  -0.100018
    C   C18  0.535978  0.737182  0.390359  -0.100057
    C   C19  0.470391  0.302536  0.710943  -0.116784
    C   C20  0.529609  0.697464  0.289057  -0.116663
    C   C21  0.499621  0.486483  0.710826  -0.243273
    C   C22  0.500379  0.513517  0.289175  -0.243136
    C   C23  0.493184  0.449461  0.607264  0.024953
    C   C24  0.506816  0.550539  0.392737  0.024887
    C   C25  0.475229  0.335793  0.557902  0.209626
    C   C26  0.524771  0.664207  0.442098  0.209652
    C   C27  0.503809  0.521815  0.551859  0.075550
    C   C28  0.496191  0.478185  0.448142  0.075564
    C   C29  0.478205  0.363046  0.402123  -0.166040
    C   C30  0.521795  0.636954  0.597878  -0.166012
    C   C31  0.467971  0.293466  0.456678  -0.205942
    C   C32  0.532029  0.706534  0.543322  -0.205987
    H   H7   0.453907  0.204278  0.418882  0.131736
    H   H8   0.546093  0.795722  0.581119  0.131737
    H   H9   0.486643  0.426984  0.244548  0.206483
    H   H10  0.513357  0.573016  0.755452  0.206522
    H   H11  0.449728  0.173805  0.570963  0.069038
    H   H12  0.550272  0.826195  0.429037  0.069055
    H   H13  0.471275  0.322100  0.323499  0.151216
    H   H14  0.528725  0.677900  0.676501  0.151234
    I   I1   0.549055  0.813892  0.214137  -0.046589
    I   I2   0.450945  0.186108  0.785864  -0.046597
