# Generated by REPEAT Assigner based on pymatgen
data_DB0-m18_o12_o18_f0_pcu
_audit_creation_date              2022-05-24
_audit_creation_method            REPEAT_Assigner
_cell_length_a                    9.799056
_cell_length_b                    14.497279
_cell_length_c                    16.010100
_cell_angle_alpha                 90.493306
_cell_angle_beta                  97.976018
_cell_angle_gamma                 100.356685
_cell_volume                      2214.375827
_symmetry_space_group_name_H-M    P1
_symmetry_Int_Tables_number       1
loop_
    _symmetry_equiv_pos_site_id
    _symmetry_equiv_pos_as_xyz
    1  x,y,z
loop_
    _atom_site_type_symbol
    _atom_site_label
    _atom_site_fract_x
    _atom_site_fract_y
    _atom_site_fract_z
    _atom_type_partial_charge
    O   O1   0.819438  0.872279  0.993777  -0.623319
    O   O2   0.180553  0.127726  0.006207  -0.623333
    O   O3   0.037178  0.845963  0.978814  -0.635216
    O   O4   0.962815  0.154041  0.021174  -0.635217
    C   C1   0.904162  0.814469  0.981983  0.681873
    C   C2   0.095829  0.185535  0.018000  0.682025
    Fe  Fe1  0.139105  0.985860  0.985051  1.158494
    Fe  Fe2  0.860887  0.014144  0.014936  1.158358
    O   O5   0.169613  0.973643  0.113334  -0.593718
    O   O6   0.830380  0.026363  0.886653  -0.593680
    O   O7   0.953258  0.996979  0.135818  -0.639837
    O   O8   0.046734  0.003024  0.864168  -0.639783
    C   C3   0.078665  0.981043  0.164763  0.655076
    C   C4   0.921328  0.018961  0.835224  0.654985
    C   C5   0.150958  0.286015  0.026820  -0.069017
    C   C6   0.849038  0.713988  0.973174  -0.068726
    C   C7   0.126514  0.440834  0.061553  -0.238802
    C   C8   0.873522  0.559161  0.938502  -0.238799
    C   C9   0.071682  0.346778  0.053223  -0.070177
    C   C10  0.928341  0.653219  0.946812  -0.070330
    C   C11  0.283755  0.319440  0.008181  -0.162212
    C   C12  0.716226  0.680565  0.991792  -0.162620
    C   C13  0.340422  0.414746  0.015207  0.029539
    C   C14  0.659591  0.585253  0.984812  0.029495
    C   C15  0.259102  0.474470  0.042466  0.231836
    C   C16  0.740931  0.525526  0.957583  0.232184
    C   C17  0.474953  0.451677  0.995770  0.053424
    C   C18  0.525070  0.548320  0.004264  0.053800
    C   C19  0.439303  0.605647  0.032163  -0.183122
    C   C20  0.560743  0.394346  0.967905  -0.182927
    C   C21  0.308955  0.568855  0.050841  -0.225896
    C   C22  0.691097  0.431136  0.949237  -0.226253
    H   H1   0.245367  0.615481  0.072181  0.130381
    H   H2   0.754707  0.384506  0.927928  0.130386
    H   H3   0.661264  0.731754  0.012737  0.115368
    H   H4   0.338669  0.268259  0.987168  0.115133
    H   H5   0.032368  0.678388  0.931631  0.102700
    H   H6   0.967665  0.321607  0.068419  0.102709
    H   H7   0.064530  0.488422  0.083068  0.133511
    H   H8   0.935524  0.511569  0.917012  0.133607
    H   H9   0.467485  0.680395  0.040847  0.137091
    H   H10  0.532593  0.319592  0.959268  0.137195
    C   C23  0.881379  0.026847  0.744414  -0.032225
    C   C24  0.118612  0.973155  0.255573  -0.032299
    C   C25  0.716381  0.055227  0.628835  -0.225276
    C   C26  0.283606  0.944768  0.371151  -0.225732
    C   C27  0.753647  0.049521  0.714112  -0.102737
    C   C28  0.246343  0.950477  0.285874  -0.102551
    C   C29  0.971163  0.009960  0.689085  -0.174435
    C   C30  0.028829  0.990043  0.310902  -0.173967
    C   C31  0.934524  0.014840  0.602076  0.043814
    C   C32  0.065465  0.985158  0.397911  0.042373
    C   C33  0.805482  0.037855  0.573445  0.219464
    C   C34  0.194505  0.962140  0.426542  0.220442
    C   C35  0.022109  0.997122  0.543240  0.059217
    C   C36  0.977879  0.002874  0.456747  0.060793
    C   C37  0.846972  0.026348  0.431231  -0.196697
    C   C38  0.153014  0.973644  0.568756  -0.196198
    C   C39  0.763090  0.043525  0.488889  -0.229692
    C   C40  0.236895  0.956467  0.511097  -0.230008
    H   H11  0.662150  0.061459  0.466732  0.125358
    H   H12  0.337833  0.938530  0.533254  0.125390
    H   H13  0.931635  0.007864  0.283106  0.118718
    H   H14  0.068361  0.992145  0.716881  0.118835
    H   H15  0.318110  0.936948  0.243719  0.107724
    H   H16  0.681879  0.063049  0.756268  0.107736
    H   H17  0.615869  0.073087  0.605425  0.126788
    H   H18  0.384117  0.926906  0.394561  0.126870
    H   H19  0.803254  0.032427  0.366747  0.151023
    H   H20  0.196730  0.967561  0.633239  0.150919
    H   H21  0.425112  0.047762  0.065964  0.128766
    H   H22  0.574881  0.952241  0.934022  0.128839
    N   N1   0.682228  0.028861  0.038387  -0.434202
    N   N2   0.317764  0.971143  0.961599  -0.434216
    C   C41  0.568841  0.993030  0.990007  0.047275
    C   C42  0.431151  0.006974  0.009979  0.047416
    H   H23  0.333778  0.933625  0.910142  0.278136
    H   H24  0.666215  0.066379  0.089845  0.278152
