# generated using pymatgen
data_Zn3H24C32(NO3)4
_symmetry_space_group_name_H-M   'P 1'
_cell_length_a   31.34257500
_cell_length_b   31.32973500
_cell_length_c   24.87941300
_cell_angle_alpha   90.00000000
_cell_angle_beta   129.02678800
_cell_angle_gamma   90.00000000
_symmetry_Int_Tables_number   1
_chemical_formula_structural   Zn3H24C32(NO3)4
_chemical_formula_sum   'Zn12 H96 C128 N16 O48'
_cell_volume   18978.83780559
_cell_formula_units_Z   4
loop_
 _symmetry_equiv_pos_site_id
 _symmetry_equiv_pos_as_xyz
  1  'x, y, z'
loop_
 _atom_site_type_symbol
 _atom_site_label
 _atom_site_symmetry_multiplicity
 _atom_site_fract_x
 _atom_site_fract_y
 _atom_site_fract_z
 _atom_site_occupancy
  Zn  Zn1  1  0.78337900  0.72349600  0.49502100  1
  Zn  Zn2  1  0.21662100  0.72349600  0.50497900  1
  Zn  Zn3  1  0.28337900  0.22349600  0.49502100  1
  Zn  Zn4  1  0.71662100  0.22349600  0.50497900  1
  Zn  Zn5  1  0.71669500  0.78690800  0.50642400  1
  Zn  Zn6  1  0.28330500  0.78690800  0.49357700  1
  Zn  Zn7  1  0.21669500  0.28690800  0.50642400  1
  Zn  Zn8  1  0.78330500  0.28690800  0.49357700  1
  Zn  Zn9  1  0.45884700  0.50558900  0.42181200  1
  Zn  Zn10  1  0.54115300  0.50558900  0.57818800  1
  Zn  Zn11  1  0.95884700  0.00558900  0.42181200  1
  Zn  Zn12  1  0.04115300  0.00558900  0.57818800  1
  H  H1  1  0.59952200  0.70049400  0.15322300  1
  H  H2  1  0.40047800  0.70049400  0.84677700  1
  H  H3  1  0.09952200  0.20049400  0.15322300  1
  H  H4  1  0.90047800  0.20049400  0.84677700  1
  H  H5  1  0.66099000  0.69894400  0.27769500  1
  H  H6  1  0.33901000  0.69894400  0.72230600  1
  H  H7  1  0.16099000  0.19894400  0.27769500  1
  H  H8  1  0.83901000  0.19894400  0.72230600  1
  H  H9  1  0.86515400  0.89881900  0.40257700  1
  H  H10  1  0.13484600  0.89881900  0.59742300  1
  H  H11  1  0.36515400  0.39881900  0.40257700  1
  H  H12  1  0.63484600  0.39881900  0.59742300  1
  H  H13  1  0.92556400  0.90297500  0.55826300  1
  H  H14  1  0.07443600  0.90297500  0.44173700  1
  H  H15  1  0.42556400  0.40297500  0.55826300  1
  H  H16  1  0.57443600  0.40297500  0.44173700  1
  H  H17  1  0.84173500  0.88119700  0.52691200  1
  H  H18  1  0.15826500  0.88119700  0.47308800  1
  H  H19  1  0.34173500  0.38119700  0.52691200  1
  H  H20  1  0.65826500  0.38119700  0.47308800  1
  H  H21  1  0.81177500  0.78719600  0.72629400  1
  H  H22  1  0.18822500  0.78719600  0.27370600  1
  H  H23  1  0.31177500  0.28719600  0.72629400  1
  H  H24  1  0.68822500  0.28719600  0.27370600  1
  H  H25  1  0.87403700  0.78104700  0.85033800  1
  H  H26  1  0.12596300  0.78104700  0.14966200  1
  H  H27  1  0.37403700  0.28104700  0.85033800  1
  H  H28  1  0.62596300  0.28104700  0.14966200  1
  H  H29  1  0.91806100  0.71033200  0.71443800  1
  H  H30  1  0.08193900  0.71033200  0.28556200  1
  H  H31  1  0.41806100  0.21033200  0.71443800  1
  H  H32  1  0.58193900  0.21033200  0.28556300  1
  H  H33  1  0.61976700  0.62383100  0.58788500  1
  H  H34  1  0.38023300  0.62383100  0.41211500  1
  H  H35  1  0.11976700  0.12383100  0.58788500  1
  H  H36  1  0.88023300  0.12383100  0.41211500  1
  H  H37  1  0.57920600  0.60305900  0.44237200  1
  H  H38  1  0.42079400  0.60305900  0.55762800  1
  H  H39  1  0.07920600  0.10305900  0.44237200  1
  H  H40  1  0.92079400  0.10305900  0.55762800  1
  H  H41  1  0.65143000  0.69081600  0.56465200  1
  H  H42  1  0.34857000  0.69081600  0.43534800  1
  H  H43  1  0.15143000  0.19081600  0.56465200  1
  H  H44  1  0.84857000  0.19081600  0.43534800  1
  H  H45  1  0.66678400  0.62650700  0.48549400  1
  H  H46  1  0.33321600  0.62650700  0.51450700  1
  H  H47  1  0.16678400  0.12650700  0.48549400  1
  H  H48  1  0.83321600  0.12650700  0.51450700  1
  H  H49  1  0.65793100  0.84256500  0.33156600  1
  H  H50  1  0.59720300  0.86468200  0.25755400  1
  H  H51  1  0.59360500  0.83451200  0.31656300  1
  H  H52  1  0.34206900  0.84256500  0.66843400  1
  H  H53  1  0.40279800  0.86468200  0.74244700  1
  H  H54  1  0.40639500  0.83451200  0.68343700  1
  H  H55  1  0.15793100  0.34256500  0.33156600  1
  H  H56  1  0.09720300  0.36468200  0.25755400  1
  H  H57  1  0.09360500  0.33451200  0.31656300  1
  H  H58  1  0.84206900  0.34256500  0.66843400  1
  H  H59  1  0.90279800  0.36468200  0.74244700  1
  H  H60  1  0.90639500  0.33451200  0.68343700  1
  H  H61  1  0.03231300  0.71548800  0.87873600  1
  H  H62  1  0.99685800  0.67108800  0.88273100  1
  H  H63  1  0.99337800  0.67837900  0.80847700  1
  H  H64  1  0.96768700  0.71548800  0.12126500  1
  H  H65  1  0.00314200  0.67108800  0.11726900  1
  H  H66  1  0.00662200  0.67837900  0.19152300  1
  H  H67  1  0.53231300  0.21548800  0.87873600  1
  H  H68  1  0.49685800  0.17108800  0.88273100  1
  H  H69  1  0.49337800  0.17837900  0.80847700  1
  H  H70  1  0.46768700  0.21548800  0.12126500  1
  H  H71  1  0.50314200  0.17108800  0.11726900  1
  H  H72  1  0.50662200  0.17837900  0.19152300  1
  H  H73  1  0.52906100  0.85420900  0.12849100  1
  H  H74  1  0.47926900  0.81192200  0.10110500  1
  H  H75  1  0.50946100  0.83786300  0.18023100  1
  H  H76  1  0.47093900  0.85420900  0.87150900  1
  H  H77  1  0.52073100  0.81192200  0.89889500  1
  H  H78  1  0.49053900  0.83786300  0.81976900  1
  H  H79  1  0.02906100  0.35420900  0.12849100  1
  H  H80  1  0.97926900  0.31192200  0.10110500  1
  H  H81  1  0.00946100  0.33786300  0.18023100  1
  H  H82  1  0.97093900  0.35420900  0.87150900  1
  H  H83  1  0.02073100  0.31192200  0.89889500  1
  H  H84  1  0.99053900  0.33786300  0.81976900  1
  H  H85  1  0.83236700  0.83030100  0.36255000  1
  H  H86  1  0.84666800  0.79015900  0.42306200  1
  H  H87  1  0.77966700  0.81609400  0.36816000  1
  H  H88  1  0.16763300  0.83030100  0.63745000  1
  H  H89  1  0.15333200  0.79015900  0.57693900  1
  H  H90  1  0.22033300  0.81609400  0.63184000  1
  H  H91  1  0.33236700  0.33030100  0.36255000  1
  H  H92  1  0.34666800  0.29015900  0.42306200  1
  H  H93  1  0.27966700  0.31609400  0.36816000  1
  H  H94  1  0.66763300  0.33030100  0.63745000  1
  H  H95  1  0.65333200  0.29015900  0.57693900  1
  H  H96  1  0.72033300  0.31609400  0.63184000  1
  C  C1  1  0.80413900  0.81771300  0.49800300  1
  C  C2  1  0.19586100  0.81771300  0.50199700  1
  C  C3  1  0.30413900  0.31771300  0.49800300  1
  C  C4  1  0.69586100  0.31771300  0.50199700  1
  C  C5  1  0.67824200  0.75826200  0.36520400  1
  C  C6  1  0.32175800  0.75826200  0.63479700  1
  C  C7  1  0.17824200  0.25826200  0.36520400  1
  C  C8  1  0.82175800  0.25826200  0.63479700  1
  C  C9  1  0.69579700  0.69277100  0.50301400  1
  C  C10  1  0.30420300  0.69277100  0.49698600  1
  C  C11  1  0.19579700  0.19277100  0.50301400  1
  C  C12  1  0.80420300  0.19277100  0.49698600  1
  C  C13  1  0.82185000  0.75252500  0.63602900  1
  C  C14  1  0.17815000  0.75252500  0.36397100  1
  C  C15  1  0.32185000  0.25252500  0.63602900  1
  C  C16  1  0.67815000  0.25252500  0.36397100  1
  C  C17  1  0.60385500  0.79583500  0.25384100  1
  C  C18  1  0.39614500  0.79583500  0.74615900  1
  C  C19  1  0.10385500  0.29583500  0.25384100  1
  C  C20  1  0.89614500  0.29583500  0.74615900  1
  C  C21  1  0.56379600  0.79441700  0.18192300  1
  C  C22  1  0.43620400  0.79441700  0.81807700  1
  C  C23  1  0.06379600  0.29441700  0.18192300  1
  C  C24  1  0.93620400  0.29441700  0.81807700  1
  C  C25  1  0.56363500  0.76085100  0.14494400  1
  C  C26  1  0.43636500  0.76085100  0.85505600  1
  C  C27  1  0.06363500  0.26085100  0.14494400  1
  C  C28  1  0.93636500  0.26085100  0.85505600  1
  C  C29  1  0.59898600  0.72698700  0.18058500  1
  C  C30  1  0.40101400  0.72698700  0.81941500  1
  C  C31  1  0.09898600  0.22698700  0.18058500  1
  C  C32  1  0.90101400  0.22698700  0.81941500  1
  C  C33  1  0.63475400  0.72644300  0.25165600  1
  C  C34  1  0.36524600  0.72644300  0.74834400  1
  C  C35  1  0.13475400  0.22644300  0.25165600  1
  C  C36  1  0.86524600  0.22644300  0.74834400  1
  C  C37  1  0.63799900  0.76061200  0.28906700  1
  C  C38  1  0.36200100  0.76061200  0.71093300  1
  C  C39  1  0.13799900  0.26061200  0.28906800  1
  C  C40  1  0.86200100  0.26061200  0.71093300  1
  C  C41  1  0.47091000  0.76100900  0.93114700  1
  C  C42  1  0.52909000  0.76100900  0.06885300  1
  C  C43  1  0.97091000  0.26100900  0.93114700  1
  C  C44  1  0.02909000  0.26100900  0.06885300  1
  C  C45  1  0.87368300  0.89120600  0.45097900  1
  C  C46  1  0.12631700  0.89120600  0.54902100  1
  C  C47  1  0.37368300  0.39120600  0.45097900  1
  C  C48  1  0.62631700  0.39120600  0.54902100  1
  C  C49  1  0.91323800  0.91236600  0.50835300  1
  C  C50  1  0.08676200  0.91236600  0.49164700  1
  C  C51  1  0.41323800  0.41236600  0.50835300  1
  C  C52  1  0.58676200  0.41236600  0.49164700  1
  C  C53  1  0.84510300  0.85436900  0.45228400  1
  C  C54  1  0.15489700  0.85436900  0.54771600  1
  C  C55  1  0.34510300  0.35436900  0.45228400  1
  C  C56  1  0.65489700  0.35436900  0.54771600  1
  C  C57  1  0.83342800  0.85338400  0.49576800  1
  C  C58  1  0.16657200  0.85338400  0.50423200  1
  C  C59  1  0.33342800  0.35338400  0.49576800  1
  C  C60  1  0.66657200  0.35338400  0.50423200  1
  C  C61  1  0.84903200  0.76896300  0.75051800  1
  C  C62  1  0.15096800  0.76896300  0.24948200  1
  C  C63  1  0.34903200  0.26896300  0.75051800  1
  C  C64  1  0.65096800  0.26896300  0.24948200  1
  C  C65  1  0.88436000  0.76515300  0.82133300  1
  C  C66  1  0.11564100  0.76515300  0.17866700  1
  C  C67  1  0.38436000  0.26515300  0.82133300  1
  C  C68  1  0.61564100  0.26515300  0.17866700  1
  C  C69  1  0.93265600  0.74236400  0.85497700  1
  C  C70  1  0.06734400  0.74236400  0.14502300  1
  C  C71  1  0.43265600  0.24236400  0.85497700  1
  C  C72  1  0.56734400  0.24236400  0.14502300  1
  C  C73  1  0.94495800  0.72248500  0.81607200  1
  C  C74  1  0.05504200  0.72248500  0.18392800  1
  C  C75  1  0.44495800  0.22248500  0.81607200  1
  C  C76  1  0.55504200  0.22248500  0.18392800  1
  C  C77  1  0.90876900  0.72603200  0.74463100  1
  C  C78  1  0.09123100  0.72603200  0.25536900  1
  C  C79  1  0.40876900  0.22603200  0.74463100  1
  C  C80  1  0.59123100  0.22603200  0.25536900  1
  C  C81  1  0.86091700  0.74937400  0.71167800  1
  C  C82  1  0.13908300  0.74937400  0.28832200  1
  C  C83  1  0.36091700  0.24937400  0.71167800  1
  C  C84  1  0.63908300  0.24937400  0.28832200  1
  C  C85  1  0.03174200  0.73980200  0.06915100  1
  C  C86  1  0.96825800  0.73980200  0.93084900  1
  C  C87  1  0.53174200  0.23980200  0.06915100  1
  C  C88  1  0.46825800  0.23980200  0.93084900  1
  C  C89  1  0.61794100  0.62562600  0.54297500  1
  C  C90  1  0.38205900  0.62562600  0.45702500  1
  C  C91  1  0.11794100  0.12562600  0.54297500  1
  C  C92  1  0.88205900  0.12562600  0.45702500  1
  C  C93  1  0.58628900  0.59847400  0.49059500  1
  C  C94  1  0.41371100  0.59847400  0.50940600  1
  C  C95  1  0.08628900  0.09847400  0.49059500  1
  C  C96  1  0.91371100  0.09847400  0.50940600  1
  C  C97  1  0.64548700  0.66141600  0.53773800  1
  C  C98  1  0.35451300  0.66141600  0.46226200  1
  C  C99  1  0.14548700  0.16141600  0.53773800  1
  C  C100  1  0.85451300  0.16141600  0.46226200  1
  C  C101  1  0.66700300  0.65719100  0.50576100  1
  C  C102  1  0.33299700  0.65719100  0.49423900  1
  C  C103  1  0.16700300  0.15719100  0.50576100  1
  C  C104  1  0.83299700  0.15719100  0.49423900  1
  C  C105  1  0.44439600  0.56482100  0.50621500  1
  C  C106  1  0.55560400  0.56482100  0.49378500  1
  C  C107  1  0.94439600  0.06482100  0.50621500  1
  C  C108  1  0.05560400  0.06482100  0.49378500  1
  C  C109  1  0.94417700  0.94638200  0.50604200  1
  C  C110  1  0.05582300  0.94638200  0.49395800  1
  C  C111  1  0.44417700  0.44638200  0.50604200  1
  C  C112  1  0.55582300  0.44638200  0.49395800  1
  C  C113  1  0.61326200  0.83649200  0.29201600  1
  C  C114  1  0.38673800  0.83649200  0.70798500  1
  C  C115  1  0.11326200  0.33649200  0.29201600  1
  C  C116  1  0.88673800  0.33649200  0.70798500  1
  C  C117  1  0.99490200  0.69533100  0.84874400  1
  C  C118  1  0.00509800  0.69533100  0.15125600  1
  C  C119  1  0.49490200  0.19533100  0.84874400  1
  C  C120  1  0.50509800  0.19533100  0.15125600  1
  C  C121  1  0.51816300  0.82666300  0.14575300  1
  C  C122  1  0.48183700  0.82666300  0.85424700  1
  C  C123  1  0.01816300  0.32666300  0.14575300  1
  C  C124  1  0.98183700  0.32666300  0.85424700  1
  C  C125  1  0.82455400  0.82057300  0.39849000  1
  C  C126  1  0.17544600  0.82057300  0.60151000  1
  C  C127  1  0.32455400  0.32057300  0.39849000  1
  C  C128  1  0.67544600  0.32057300  0.60151000  1
  N  N1  1  0.51452700  0.72391900  0.03399300  1
  N  N2  1  0.48547300  0.72391900  0.96600700  1
  N  N3  1  0.01452700  0.22391900  0.03399300  1
  N  N4  1  0.98547300  0.22391900  0.96600700  1
  N  N5  1  0.48536500  0.79803100  0.96605000  1
  N  N6  1  0.51463500  0.79803100  0.03395100  1
  N  N7  1  0.98536500  0.29803100  0.96605000  1
  N  N8  1  0.01463500  0.29803100  0.03395100  1
  N  N9  1  0.02327100  0.74018600  0.96979000  1
  N  N10  1  0.97672900  0.74018600  0.03021000  1
  N  N11  1  0.52327100  0.24018600  0.96979000  1
  N  N12  1  0.47672900  0.24018600  0.03021000  1
  N  N13  1  0.05457200  0.74023900  0.03801200  1
  N  N14  1  0.94542800  0.74023900  0.96198800  1
  N  N15  1  0.55457200  0.24023900  0.03801200  1
  N  N16  1  0.44542800  0.24023900  0.96198800  1
  O  O1  1  0.81627800  0.77858100  0.49327500  1
  O  O2  1  0.18372200  0.77858100  0.50672500  1
  O  O3  1  0.31627800  0.27858100  0.49327500  1
  O  O4  1  0.68372200  0.27858100  0.50672500  1
  O  O5  1  0.76728100  0.82667500  0.50558500  1
  O  O6  1  0.23271900  0.82667500  0.49441500  1
  O  O7  1  0.26728100  0.32667500  0.50558500  1
  O  O8  1  0.73271900  0.32667500  0.49441500  1
  O  O9  1  0.72136100  0.73363900  0.39305900  1
  O  O10  1  0.27863900  0.73363900  0.60694100  1
  O  O11  1  0.22136100  0.23363900  0.39305900  1
  O  O12  1  0.77863900  0.23363900  0.60694100  1
  O  O13  1  0.66951700  0.78011000  0.40247600  1
  O  O14  1  0.33048300  0.78011000  0.59752400  1
  O  O15  1  0.16951700  0.28011000  0.40247600  1
  O  O16  1  0.83048300  0.28011000  0.59752400  1
  O  O17  1  0.73266900  0.68375100  0.49557000  1
  O  O18  1  0.26733100  0.68375100  0.50443000  1
  O  O19  1  0.23266900  0.18375100  0.49557000  1
  O  O20  1  0.76733100  0.18375100  0.50443000  1
  O  O21  1  0.68405900  0.73183200  0.50880600  1
  O  O22  1  0.31594100  0.73183200  0.49119400  1
  O  O23  1  0.18405900  0.23183200  0.50880600  1
  O  O24  1  0.81594100  0.23183200  0.49119400  1
  O  O25  1  0.83038600  0.72993700  0.59908100  1
  O  O26  1  0.16961400  0.72993700  0.40091900  1
  O  O27  1  0.33038600  0.22993700  0.59908100  1
  O  O28  1  0.66961400  0.22993700  0.40091900  1
  O  O29  1  0.77868700  0.77692200  0.60832800  1
  O  O30  1  0.22131300  0.77692200  0.39167200  1
  O  O31  1  0.27868700  0.27692200  0.60832800  1
  O  O32  1  0.72131300  0.27692200  0.39167200  1
  O  O33  1  0.42755200  0.55154500  0.44554400  1
  O  O34  1  0.57244800  0.55154500  0.55445600  1
  O  O35  1  0.92755200  0.05154500  0.44554400  1
  O  O36  1  0.07244800  0.05154500  0.55445600  1
  O  O37  1  0.48798400  0.54965700  0.56502100  1
  O  O38  1  0.51201600  0.54965700  0.43497900  1
  O  O39  1  0.98798400  0.04965700  0.56502100  1
  O  O40  1  0.01201600  0.04965700  0.43497900  1
  O  O41  1  0.92729800  0.95998500  0.44557500  1
  O  O42  1  0.07270200  0.95998500  0.55442500  1
  O  O43  1  0.42729800  0.45998500  0.44557500  1
  O  O44  1  0.57270200  0.45998500  0.55442500  1
  O  O45  1  0.98823800  0.96116200  0.56494200  1
  O  O46  1  0.01176200  0.96116200  0.43505800  1
  O  O47  1  0.48823800  0.46116200  0.56494300  1
  O  O48  1  0.51176200  0.46116200  0.43505800  1
