# Generated by REPEAT Assigner based on pymatgen
data_DB0-m2_o15_o27_f0_pcu.sym.10
_audit_creation_date              2022-05-24
_audit_creation_method            REPEAT_Assigner
_cell_length_a                    10.974339
_cell_length_b                    9.568228
_cell_length_c                    19.303626
_cell_angle_alpha                 90.000000
_cell_angle_beta                  90.001845
_cell_angle_gamma                 90.000000
_cell_volume                      2026.976694
_symmetry_space_group_name_H-M    P1
_symmetry_Int_Tables_number       1
loop_
    _symmetry_equiv_pos_site_id
    _symmetry_equiv_pos_as_xyz
    1  x,y,z
loop_
    _atom_site_type_symbol
    _atom_site_label
    _atom_site_fract_x
    _atom_site_fract_y
    _atom_site_fract_z
    _atom_type_partial_charge
    O   O1   0.322716  0.624512  0.503139  -0.430813
    O   O2   0.671674  0.378867  0.505257  -0.454818
    O   O3   0.676768  0.615846  0.498137  -0.481919
    O   O4   0.318139  0.387438  0.492609  -0.514221
    C   C1   0.261443  0.507812  0.501719  0.631765
    C   C2   0.732947  0.494129  0.495709  0.661471
    O   O5   0.497875  0.616921  0.397730  -0.328372
    O   O6   0.484583  0.384836  0.599587  -0.437368
    O   O7   0.500571  0.621882  0.599354  -0.337597
    O   O8   0.512861  0.379527  0.398994  -0.308255
    C   C3   0.517515  0.498397  0.365248  0.322157
    C   C4   0.477086  0.503895  0.632148  0.457937
    Cu  Cu1  0.499844  0.640950  0.498363  0.538009
    Cu  Cu2  0.494686  0.361481  0.499320  0.656230
    C   C5   0.556171  0.622968  0.250249  -0.040796
    C   C6   0.459545  0.375665  0.747217  0.015788
    C   C7   0.440278  0.624072  0.747494  0.157700
    C   C8   0.551152  0.372811  0.250269  -0.059651
    C   C9   0.549712  0.621098  0.178787  0.100091
    C   C10  0.485221  0.379288  0.817278  0.096206
    C   C11  0.456212  0.623862  0.818572  0.024703
    C   C12  0.543114  0.374796  0.178617  0.114003
    H   H1   0.559289  0.718017  0.150711  0.034944
    H   H2   0.500365  0.282522  0.844565  0.001353
    H   H3   0.443371  0.719983  0.846985  0.023914
    H   H4   0.544564  0.277833  0.150043  -0.018934
    C   C13  0.536861  0.498556  0.142827  -0.520604
    C   C14  0.485497  0.503010  0.853280  -0.508266
    C   C15  0.541483  0.498263  0.288259  0.034866
    C   C16  0.457357  0.501294  0.709225  -0.191576
    N   N1   0.526959  0.379552  0.031077  -0.312217
    N   N2   0.502092  0.623317  0.964614  -0.339731
    N   N3   0.515188  0.380911  0.962948  -0.354738
    N   N4   0.514129  0.621978  0.032779  -0.351010
    C   C17  0.502329  0.502670  0.928825  0.925830
    C   C18  0.526515  0.500076  0.066903  0.910285
    H   H5   0.116401  0.077750  0.602821  0.095747
    H   H6   0.880668  0.920074  0.392001  0.095717
    H   H7   0.918516  0.029135  0.549663  0.059244
    H   H8   0.073558  0.972172  0.450285  0.072096
    C   C19  0.101050  0.762014  0.483465  -0.264004
    C   C20  0.891773  0.239012  0.516100  -0.191181
    C   C21  0.875444  0.711172  0.430040  -0.172863
    C   C22  0.121786  0.286426  0.564537  -0.261452
    C   C23  0.037009  0.867606  0.451776  0.046918
    C   C24  0.956088  0.133071  0.547267  0.044678
    C   C25  0.927911  0.839644  0.420719  -0.157772
    C   C26  0.068066  0.159073  0.575326  -0.132059
    C   C27  0.932591  0.608932  0.469558  0.102861
    C   C28  0.062641  0.390318  0.527005  0.208641
    C   C29  0.054814  0.626679  0.486395  0.215267
    C   C30  0.939390  0.373636  0.511733  0.100107
    C   C31  0.869933  0.488553  0.489158  -0.243973
    C   C32  0.124608  0.511740  0.508344  -0.321195
    H   H9   0.181641  0.792942  0.510832  0.119104
    H   H10  0.809276  0.208743  0.490346  0.111336
    H   H11  0.790547  0.691622  0.403789  0.109211
    H   H12  0.209283  0.303636  0.588413  0.175961
    H   H13  0.209353  0.126874  0.330373  0.115402
    H   H14  0.794294  0.877138  0.662911  0.095143
    H   H15  0.777550  0.130732  0.671043  0.053862
    H   H16  0.205922  0.872064  0.333228  0.061680
    C   C33  0.643031  0.143004  0.592112  -0.217299
    C   C34  0.342997  0.859024  0.410863  -0.088421
    C   C35  0.343725  0.141244  0.409374  -0.029629
    C   C36  0.658654  0.862169  0.584639  -0.077112
    C   C37  0.721972  0.073537  0.634516  0.042838
    C   C38  0.266092  0.929262  0.367333  0.082872
    C   C39  0.267608  0.070531  0.365862  -0.251224
    C   C40  0.731739  0.933181  0.629744  -0.124867
    C   C41  0.575292  0.928320  0.540661  0.120260
    C   C42  0.421471  0.074323  0.456168  0.195304
    C   C43  0.423644  0.926631  0.455968  0.096671
    C   C44  0.568745  0.075801  0.543308  0.221725
    N   N5   0.502585  0.851803  0.497147  -0.157836
    N   N6   0.492166  0.150650  0.500669  -0.278891
    H   H17  0.646072  0.251489  0.600683  0.133052
    H   H18  0.334159  0.749731  0.406189  0.089364
    H   H19  0.340823  0.250434  0.401799  0.120276
    H   H20  0.669917  0.753180  0.588617  0.106242
    C   C45  0.592822  0.761229  0.279913  0.098174
    C   C46  0.491810  0.865651  0.268155  -0.368663
    H   H21  0.501752  0.914095  0.216308  0.095871
    H   H22  0.403339  0.810337  0.270266  0.067350
    H   H23  0.497942  0.948434  0.307923  0.122262
    H   H24  0.620194  0.759042  0.334667  0.022871
    H   H25  0.674517  0.798295  0.251504  0.008792
    C   C47  0.424104  0.234813  0.719033  0.314287
    C   C48  0.325636  0.168985  0.763892  -0.389185
    H   H26  0.364307  0.121963  0.811495  0.112504
    H   H27  0.256630  0.248981  0.777709  0.062417
    H   H28  0.280306  0.084877  0.733925  0.099645
    H   H29  0.381225  0.239251  0.667664  -0.016103
    H   H30  0.505495  0.166742  0.718056  -0.083457
    C   C49  0.391609  0.756186  0.717345  -0.063895
    C   C50  0.489767  0.865816  0.720702  -0.110862
    H   H31  0.484727  0.921225  0.770994  0.064047
    H   H32  0.579154  0.812939  0.717458  0.009392
    H   H33  0.476427  0.940650  0.677710  0.061755
    H   H34  0.356483  0.744159  0.664090  0.006371
    H   H35  0.313314  0.791593  0.749154  0.025910
    C   C51  0.583012  0.234179  0.281585  0.077774
    C   C52  0.710470  0.237647  0.312331  -0.257806
    H   H36  0.777099  0.258747  0.270424  0.056553
    H   H37  0.719640  0.319719  0.352363  0.049436
    H   H38  0.731184  0.134552  0.335783  0.075046
    H   H39  0.514701  0.198660  0.319158  -0.056336
    H   H40  0.584489  0.153322  0.240657  0.077674
