# generated using pymatgen
data_Fe2H29C59NO16
_symmetry_space_group_name_H-M   'P 1'
_cell_length_a   14.17194500
_cell_length_b   14.58095500
_cell_length_c   11.21568600
_cell_angle_alpha   93.98703800
_cell_angle_beta   94.31619100
_cell_angle_gamma   109.07741700
_symmetry_Int_Tables_number   1
_chemical_formula_structural   Fe2H29C59NO16
_chemical_formula_sum   'Fe2 H29 C59 N1 O16'
_cell_volume   2173.19211130
_cell_formula_units_Z   1
loop_
 _symmetry_equiv_pos_site_id
 _symmetry_equiv_pos_as_xyz
  1  'x, y, z'
loop_
 _atom_site_type_symbol
 _atom_site_label
 _atom_site_symmetry_multiplicity
 _atom_site_fract_x
 _atom_site_fract_y
 _atom_site_fract_z
 _atom_site_occupancy
  Fe  Fe1  1  0.49471500  0.00006100  0.26593500  1
  Fe  Fe2  1  0.50536200  0.01461400  0.73883700  1
  H  H1  1  0.85756800  0.98999000  0.24208900  1
  H  H2  1  0.80023600  0.02616400  0.81590300  1
  H  H3  1  0.14518800  0.02676400  0.76136600  1
  H  H4  1  0.19389300  0.98025600  0.18533900  1
  H  H5  1  0.94777400  0.82211700  0.24561000  1
  H  H6  1  0.01151900  0.84747800  0.47038300  1
  H  H7  1  0.12354100  0.03398000  0.52520100  1
  H  H8  1  0.12402400  0.12132200  0.32351000  1
  H  H9  1  0.62251000  0.34837700  0.79255000  1
  H  H10  1  0.41605200  0.22756400  0.22879600  1
  H  H11  1  0.37411300  0.34153200  0.11983800  1
  H  H12  1  0.62711500  0.67460700  0.88494700  1
  H  H13  1  0.58559700  0.78788900  0.77581300  1
  H  H14  1  0.37934600  0.66542500  0.20788900  1
  H  H15  1  0.60661200  0.54362400  0.98824200  1
  H  H16  1  0.72912900  0.57864600  0.93404400  1
  H  H17  1  0.61238400  0.37438900  0.01025400  1
  H  H18  1  0.83291600  0.50133100  0.01458400  1
  H  H19  1  0.77987300  0.38009300  0.07375800  1
  H  H20  1  0.38104300  0.46964700  0.01644900  1
  H  H21  1  0.33284300  0.56718700  0.03931400  1
  H  H22  1  0.20480900  0.40639200  0.15916700  1
  H  H23  1  0.20256800  0.42406500  0.88903100  1
  H  H24  1  0.09883600  0.34954500  0.97243900  1
  H  H25  1  0.87385900  0.94511600  0.71445000  1
  H  H26  1  0.99473900  0.95331600  0.69074600  1
  H  H27  1  0.00614600  0.15579600  0.76001900  1
  H  H28  1  0.90124400  0.03521800  0.52421200  1
  H  H29  1  0.95113700  0.17145500  0.55631400  1
  C  C1  1  0.84618100  0.99521700  0.14709600  1
  C  C2  1  0.75467100  0.00089100  0.10196900  1
  C  C3  1  0.73979900  0.00997300  0.97994600  1
  C  C4  1  0.81574400  0.01575400  0.90832200  1
  C  C5  1  0.90537100  0.00476000  0.95151300  1
  C  C6  1  0.92102500  0.99564600  0.07264700  1
  C  C7  1  0.97819700  0.00181900  0.87479200  1
  C  C8  1  0.07204400  0.00186200  0.92368700  1
  C  C9  1  0.08702300  0.99205100  0.04476400  1
  C  C10  1  0.01121400  0.98708400  0.11875400  1
  C  C11  1  0.15178100  0.01253100  0.85376000  1
  C  C12  1  0.24387400  0.00986100  0.90106800  1
  C  C13  1  0.25735100  0.99892500  0.02277400  1
  C  C14  1  0.17873300  0.98774700  0.09169800  1
  C  C15  1  0.02668700  0.90370900  0.40955400  1
  C  C16  1  0.08474600  0.00040000  0.43837200  1
  C  C17  1  0.08478800  0.04567400  0.33437900  1
  C  C18  1  0.02733700  0.97440600  0.24625700  1
  C  C19  1  0.67791500  0.99980800  0.18554000  1
  C  C20  1  0.48709600  0.82234100  0.34336100  1
  C  C21  1  0.35458600  0.00879300  0.08729600  1
  C  C22  1  0.46932300  0.15354900  0.40231700  1
  C  C23  1  0.53078100  0.86125600  0.60275700  1
  C  C24  1  0.64333300  0.00441400  0.91767900  1
  C  C25  1  0.51301900  0.19260000  0.66176500  1
  C  C26  1  0.32254900  0.01520600  0.81915000  1
  C  C27  1  0.48614200  0.25098300  0.46213900  1
  C  C28  1  0.51764900  0.27256600  0.58438800  1
  C  C29  1  0.54263000  0.36898400  0.63473700  1
  C  C30  1  0.59219900  0.39760500  0.74939300  1
  C  C31  1  0.60844500  0.48985000  0.80537700  1
  C  C32  1  0.42918100  0.29811500  0.27620900  1
  C  C33  1  0.46658800  0.32107600  0.39606100  1
  C  C34  1  0.48186200  0.41382600  0.44985100  1
  C  C35  1  0.40423600  0.36489100  0.21220000  1
  C  C36  1  0.41765200  0.45730200  0.26534800  1
  C  C37  1  0.52166800  0.43823400  0.56870000  1
  C  C38  1  0.54011600  0.53194700  0.62183800  1
  C  C39  1  0.58087500  0.55697100  0.74088600  1
  C  C40  1  0.59570900  0.65009100  0.79318600  1
  C  C41  1  0.45901100  0.48255400  0.38406800  1
  C  C42  1  0.47768600  0.57642400  0.43704500  1
  C  C43  1  0.51764100  0.60083000  0.55582600  1
  C  C44  1  0.53345900  0.69377800  0.60922700  1
  C  C45  1  0.57136200  0.71696600  0.72882600  1
  C  C46  1  0.38927200  0.52441000  0.20213100  1
  C  C47  1  0.40811800  0.61714900  0.25596800  1
  C  C48  1  0.45744600  0.64596600  0.37065300  1
  C  C49  1  0.48275700  0.74243000  0.42074600  1
  C  C50  1  0.51418800  0.76393300  0.54297600  1
  C  C51  1  0.65693700  0.51832800  0.93333800  1
  C  C52  1  0.67550600  0.43657100  0.99350400  1
  C  C53  1  0.76837400  0.43985400  0.02933400  1
  C  C54  1  0.33766700  0.50021400  0.07647100  1
  C  C55  1  0.23331800  0.43092400  0.07576200  1
  C  C56  1  0.17470000  0.39963100  0.97276200  1
  C  C57  1  0.95259300  0.99248100  0.74035000  1
  C  C58  1  0.97000900  0.09099900  0.69817200  1
  C  C59  1  0.93912200  0.09968200  0.58595000  1
  N  N1  1  0.99204600  0.88847500  0.29236100  1
  O  O1  1  0.59450000  0.01474500  0.14800100  1
  O  O2  1  0.51243300  0.81606000  0.23368000  1
  O  O3  1  0.69325700  0.98461500  0.29821500  1
  O  O4  1  0.47698200  0.90437300  0.38642300  1
  O  O5  1  0.35866100  0.95205400  0.17213600  1
  O  O6  1  0.43304400  0.08556900  0.07759300  1
  O  O7  1  0.54395300  0.13313800  0.35692300  1
  O  O8  1  0.37845700  0.08922200  0.38645100  1
  O  O9  1  0.45582900  0.88174600  0.64713200  1
  O  O10  1  0.62166700  0.92551700  0.61938200  1
  O  O11  1  0.64129900  0.06180200  0.83301900  1
  O  O12  1  0.56348800  0.92875300  0.92640500  1
  O  O13  1  0.30786700  0.03103700  0.70659900  1
  O  O14  1  0.52370400  0.11080800  0.61892500  1
  O  O15  1  0.40546500  0.99965600  0.85676000  1
  O  O16  1  0.48742700  0.19884700  0.77133800  1
