# Generated by REPEAT Assigner based on pymatgen
data_DB0-m3_o13_o45_f0_fsc.sym.10_sqe
_audit_creation_date              2022-05-24
_audit_creation_method            REPEAT_Assigner
_cell_length_a                    8.541373
_cell_length_b                    11.416643
_cell_length_c                    12.799262
_cell_angle_alpha                 96.975368
_cell_angle_beta                  93.591080
_cell_angle_gamma                 90.158648
_cell_volume                      1236.366432
_symmetry_space_group_name_H-M    P1
_symmetry_Int_Tables_number       1
loop_
    _symmetry_equiv_pos_site_id
    _symmetry_equiv_pos_as_xyz
    1  x,y,z
loop_
    _atom_site_type_symbol
    _atom_site_label
    _atom_site_fract_x
    _atom_site_fract_y
    _atom_site_fract_z
    _atom_type_partial_charge
    C   C1   0.842679  0.987959  0.293814  0.221598
    C   C2   0.157321  0.012041  0.706186  0.221709
    C   C3   0.830437  0.008588  0.189974  -0.650629
    C   C4   0.169563  0.991412  0.810026  -0.650814
    H   H1   0.716244  0.019947  0.151337  0.238033
    H   H2   0.283756  0.980053  0.848663  0.238068
    C   C5   0.963406  0.010099  0.133770  0.724446
    C   C6   0.036594  0.989901  0.866230  0.724808
    C   C7   0.111341  0.004612  0.186160  -0.315234
    C   C8   0.888659  0.995388  0.813840  -0.315516
    C   C9   0.121424  0.985291  0.290858  0.136928
    C   C10  0.878576  0.014709  0.709142  0.137132
    C   C11  0.987320  0.969804  0.341398  -0.341305
    C   C12  0.012681  0.030195  0.658602  -0.341503
    N   N1   0.943321  0.019439  0.024631  -0.286414
    N   N2   0.056680  0.980560  0.975368  -0.286498
    H   H3   0.996388  0.951274  0.421874  0.172957
    H   H4   0.003612  0.048726  0.578125  0.173000
    O   O1   0.660934  0.096386  0.399571  -0.721351
    O   O2   0.339066  0.903614  0.600429  -0.721279
    O   O3   0.654849  0.892842  0.384553  -0.733451
    O   O4   0.345151  0.107158  0.615447  -0.733529
    C   C13  0.707259  0.992415  0.358029  0.832700
    C   C14  0.292741  0.007584  0.641971  0.832737
    O   O5   0.677141  0.904965  0.602972  -0.684410
    O   O6   0.322859  0.095035  0.397028  -0.684506
    O   O7   0.672778  0.108400  0.617957  -0.694290
    O   O8   0.327222  0.891600  0.382043  -0.694247
    C   C15  0.729799  0.009299  0.645601  0.756437
    C   C16  0.270201  0.990701  0.354399  0.756506
    Zn  Zn1  0.499582  0.868410  0.492317  1.061093
    Zn  Zn2  0.500418  0.131589  0.507683  1.061226
    N   N3   0.501080  0.286197  0.518789  0.123004
    N   N4   0.498920  0.713803  0.481210  0.122946
    C   C17  0.489596  0.536278  0.364412  -0.116958
    C   C18  0.510404  0.463721  0.635587  -0.116765
    C   C19  0.491212  0.657263  0.382763  -0.037211
    C   C20  0.508788  0.342737  0.617237  -0.037340
    C   C21  0.505350  0.653413  0.565344  -0.151094
    C   C22  0.494650  0.346587  0.434655  -0.151253
    C   C23  0.504000  0.529865  0.550949  0.225400
    C   C24  0.496000  0.470135  0.449051  0.225687
    H   H5   0.513916  0.292772  0.683816  0.129319
    H   H6   0.486084  0.707228  0.316184  0.129293
    Cl  Cl1  0.286636  0.027891  0.126522  0.004469
    Cl  Cl2  0.713364  0.972109  0.873478  0.004503
    Cl  Cl3  0.484783  0.264141  0.309555  0.115104
    Cl  Cl4  0.515217  0.735859  0.690444  0.115017
    Cl  Cl5  0.479219  0.475341  0.231620  -0.009219
    Cl  Cl6  0.520781  0.524659  0.768380  -0.009303
