# Generated by REPEAT Assigner based on pymatgen
data_DB0-m3_o16_o44_f0_fsc.sym.24
_audit_creation_date              2022-05-24
_audit_creation_method            REPEAT_Assigner
_cell_length_a                    12.161131
_cell_length_b                    8.549681
_cell_length_c                    13.469284
_cell_angle_alpha                 90.000000
_cell_angle_beta                  108.169784
_cell_angle_gamma                 90.000000
_cell_volume                      1330.621164
_symmetry_space_group_name_H-M    P1
_symmetry_Int_Tables_number       1
loop_
    _symmetry_equiv_pos_site_id
    _symmetry_equiv_pos_as_xyz
    1  x,y,z
loop_
    _atom_site_type_symbol
    _atom_site_label
    _atom_site_fract_x
    _atom_site_fract_y
    _atom_site_fract_z
    _atom_type_partial_charge
    C   C1   0.013072  0.857130  0.699821  -0.329224
    C   C2   0.012563  0.137021  0.699905  -0.277348
    C   C3   0.008034  0.856262  0.800617  0.495501
    C   C4   0.006989  0.137447  0.801222  0.386762
    C   C5   0.008787  0.996452  0.852095  -0.202342
    C   C6   0.021554  0.997087  0.653155  -0.113491
    C   C7   0.009170  0.996384  0.958680  -0.004692
    C   C8   0.008434  0.997292  0.047887  -0.071577
    C   C9   0.999772  0.856608  0.202117  0.350045
    C   C10  0.999541  0.137733  0.202862  0.459780
    C   C11  0.980186  0.856763  0.298205  -0.364536
    C   C12  0.979924  0.137192  0.298282  -0.343875
    C   C13  0.962831  0.996984  0.341197  -0.049828
    C   C14  0.003461  0.997506  0.152866  -0.110201
    H   H1   0.031206  0.997250  0.576728  0.166720
    H   H2   0.943034  0.996871  0.413417  0.162318
    O   O1   0.102261  0.665357  0.623118  -0.595937
    O   O2   0.101896  0.327040  0.622084  -0.638458
    O   O3   0.904287  0.660497  0.585478  -0.648916
    O   O4   0.903908  0.332377  0.584477  -0.705777
    C   C15  0.006832  0.714876  0.638081  0.720409
    C   C16  0.006319  0.277469  0.636588  0.861799
    O   O5   0.889317  0.666582  0.375808  -0.756657
    O   O6   0.888992  0.329007  0.374780  -0.624211
    O   O7   0.088641  0.660831  0.413521  -0.779223
    O   O8   0.088267  0.334297  0.412533  -0.650659
    C   C17  0.985695  0.716284  0.361800  1.028584
    C   C18  0.985242  0.279450  0.360263  0.715916
    Zn  Zn1  0.866923  0.497166  0.471804  1.003942
    Zn  Zn2  0.124751  0.496825  0.526651  0.997445
    C   C19  0.450032  0.494096  0.703077  -0.187782
    H   H3   0.490301  0.491605  0.786709  0.109513
    N   N1   0.276440  0.496569  0.562371  0.009395
    C   C20  0.665110  0.498601  0.332847  -0.322731
    C   C21  0.546659  0.499287  0.289461  0.486908
    C   C22  0.477442  0.498595  0.352670  -0.353639
    C   C23  0.526733  0.497319  0.460475  0.072792
    C   C24  0.647711  0.496573  0.501537  0.083740
    C   C25  0.458645  0.496825  0.528218  0.034410
    C   C26  0.513906  0.495560  0.635016  -0.032312
    C   C27  0.632664  0.494655  0.674868  0.422335
    C   C28  0.698401  0.495083  0.608728  -0.366148
    C   C29  0.336907  0.497297  0.493428  -0.138100
    C   C30  0.332089  0.495136  0.666036  0.304255
    N   N2   0.715054  0.497400  0.437292  0.100384
    H   H4   0.287214  0.498229  0.412135  0.157889
    H   H5   0.718875  0.498994  0.282447  0.187222
    H   H6   0.385851  0.498979  0.313744  0.212053
    H   H7   0.789815  0.495638  0.643665  0.158712
    N   N3   0.004458  0.712261  0.852310  -0.804117
    H   H8   0.931928  0.651167  0.806999  0.267347
    H   H9   0.078100  0.648731  0.853297  0.335529
    N   N4   0.002285  0.279302  0.855682  -0.717769
    H   H10  0.925528  0.278054  0.874922  0.287624
    H   H11  0.999833  0.375407  0.807576  0.267069
    N   N5   0.494538  0.500582  0.178824  -0.766338
    H   H12  0.559513  0.503254  0.143350  0.326247
    H   H13  0.446749  0.603784  0.159274  0.295802
    N   N6   0.012423  0.714856  0.150679  -0.704062
    H   H14  0.005355  0.618424  0.195482  0.263058
    H   H15  0.095389  0.714555  0.143331  0.300144
    N   N7   0.011752  0.281601  0.154284  -0.794711
    H   H16  0.937128  0.347236  0.146429  0.316813
    H   H17  0.082134  0.340934  0.204819  0.307428
    N   N8   0.269418  0.494692  0.739316  -0.654634
    H   H18  0.295010  0.592962  0.786979  0.276551
    H   H19  0.294175  0.395236  0.785951  0.291991
    N   N9   0.687822  0.493899  0.785255  -0.789371
    H   H20  0.776428  0.476361  0.801219  0.367171
    H   H21  0.675951  0.604278  0.813513  0.307063
