# generated using pymatgen
data_Zn3H24C39(NO3)4
_symmetry_space_group_name_H-M   'P 1'
_cell_length_a   30.94376900
_cell_length_b   30.99871700
_cell_length_c   24.73574700
_cell_angle_alpha   90.00000000
_cell_angle_beta   128.71245800
_cell_angle_gamma   90.00000000
_symmetry_Int_Tables_number   1
_chemical_formula_structural   Zn3H24C39(NO3)4
_chemical_formula_sum   'Zn12 H96 C156 N16 O48'
_cell_volume   18514.00908292
_cell_formula_units_Z   4
loop_
 _symmetry_equiv_pos_site_id
 _symmetry_equiv_pos_as_xyz
  1  'x, y, z'
loop_
 _atom_site_type_symbol
 _atom_site_label
 _atom_site_symmetry_multiplicity
 _atom_site_fract_x
 _atom_site_fract_y
 _atom_site_fract_z
 _atom_site_occupancy
  Zn  Zn1  1  0.78336000  0.71410800  0.49786700  1
  Zn  Zn2  1  0.21664000  0.71410800  0.50213300  1
  Zn  Zn3  1  0.28336000  0.21410800  0.49786700  1
  Zn  Zn4  1  0.71664000  0.21410800  0.50213300  1
  Zn  Zn5  1  0.71592100  0.78271600  0.50204100  1
  Zn  Zn6  1  0.28407900  0.78271600  0.49795900  1
  Zn  Zn7  1  0.21592100  0.28271600  0.50204100  1
  Zn  Zn8  1  0.78407900  0.28271600  0.49795900  1
  Zn  Zn9  1  0.46221700  0.49782500  0.42164400  1
  Zn  Zn10  1  0.53778300  0.49782500  0.57835600  1
  Zn  Zn11  1  0.96221700  0.99782500  0.42164400  1
  Zn  Zn12  1  0.03778300  0.99782500  0.57835600  1
  H  H1  1  0.61156700  0.81396700  0.28170400  1
  H  H2  1  0.38843300  0.81396700  0.71829600  1
  H  H3  1  0.11156700  0.31396700  0.28170400  1
  H  H4  1  0.88843300  0.31396700  0.71829600  1
  H  H5  1  0.54961400  0.81589700  0.15564000  1
  H  H6  1  0.45038600  0.81589700  0.84436000  1
  H  H7  1  0.04961400  0.31589700  0.15564000  1
  H  H8  1  0.95038600  0.31589700  0.84436000  1
  H  H9  1  0.60311800  0.68943300  0.15227000  1
  H  H10  1  0.39688200  0.68943300  0.84773000  1
  H  H11  1  0.10311800  0.18943300  0.15227000  1
  H  H12  1  0.89688200  0.18943300  0.84773000  1
  H  H13  1  0.66600700  0.68824100  0.27747700  1
  H  H14  1  0.33399300  0.68824100  0.72252400  1
  H  H15  1  0.16600700  0.18824100  0.27747700  1
  H  H16  1  0.83399300  0.18824100  0.72252400  1
  H  H17  1  0.84030100  0.88590300  0.56652800  1
  H  H18  1  0.15969900  0.88590300  0.43347200  1
  H  H19  1  0.34030100  0.38590300  0.56652800  1
  H  H20  1  0.65969900  0.38590300  0.43347200  1
  H  H21  1  0.89779700  0.94092500  0.56720100  1
  H  H22  1  0.10220300  0.94092500  0.43280000  1
  H  H23  1  0.39779700  0.44092500  0.56720100  1
  H  H24  1  0.60220300  0.44092500  0.43280000  1
  H  H25  1  0.87410500  0.85933100  0.36371400  1
  H  H26  1  0.12589400  0.85933100  0.63628600  1
  H  H27  1  0.37410500  0.35933100  0.36371400  1
  H  H28  1  0.62589400  0.35933100  0.63628600  1
  H  H29  1  0.94008000  0.83473600  0.44221700  1
  H  H30  1  0.05992000  0.83473600  0.55778300  1
  H  H31  1  0.44008000  0.33473600  0.44221700  1
  H  H32  1  0.55992000  0.33473600  0.55778300  1
  H  H33  1  0.82037800  0.80349100  0.36693800  1
  H  H34  1  0.17962200  0.80349000  0.63306200  1
  H  H35  1  0.32037800  0.30349100  0.36693800  1
  H  H36  1  0.67962200  0.30349100  0.63306200  1
  H  H37  1  0.88645200  0.77864800  0.44488300  1
  H  H38  1  0.11354800  0.77864800  0.55511700  1
  H  H39  1  0.38645200  0.27864800  0.44488300  1
  H  H40  1  0.61354800  0.27864800  0.55511700  1
  H  H41  1  0.79768900  0.77301500  0.72135000  1
  H  H42  1  0.20231100  0.77301500  0.27865000  1
  H  H43  1  0.29768900  0.27301500  0.72135000  1
  H  H44  1  0.70231100  0.27301500  0.27865000  1
  H  H45  1  0.86000000  0.77027800  0.84688500  1
  H  H46  1  0.14000000  0.77027800  0.15311500  1
  H  H47  1  0.36000000  0.27027800  0.84688500  1
  H  H48  1  0.64000000  0.27027800  0.15311500  1
  H  H49  1  0.98636700  0.71654000  0.84502400  1
  H  H50  1  0.01363300  0.71654000  0.15497700  1
  H  H51  1  0.48636700  0.21654000  0.84502400  1
  H  H52  1  0.51363300  0.21654000  0.15497700  1
  H  H53  1  0.92324400  0.71809400  0.71905100  1
  H  H54  1  0.07675600  0.71809400  0.28095000  1
  H  H55  1  0.42324400  0.21809400  0.71905100  1
  H  H56  1  0.57675600  0.21809400  0.28095000  1
  H  H57  1  0.61955800  0.69791900  0.52778300  1
  H  H58  1  0.38044200  0.69791900  0.47221700  1
  H  H59  1  0.11955800  0.19791900  0.52778300  1
  H  H60  1  0.88044200  0.19791900  0.47221700  1
  H  H61  1  0.56445700  0.64211600  0.52967600  1
  H  H62  1  0.43554300  0.64211600  0.47032400  1
  H  H63  1  0.06445700  0.14211600  0.52967600  1
  H  H64  1  0.93554300  0.14211600  0.47032400  1
  H  H65  1  0.67329900  0.52244000  0.51347400  1
  H  H66  1  0.32670100  0.52244000  0.48652700  1
  H  H67  1  0.17329900  0.02244000  0.51347400  1
  H  H68  1  0.82670100  0.02244000  0.48652700  1
  H  H69  1  0.61545100  0.53170400  0.41849600  1
  H  H70  1  0.38454900  0.53170400  0.58150400  1
  H  H71  1  0.11545100  0.03170400  0.41849600  1
  H  H72  1  0.88454900  0.03170400  0.58150400  1
  H  H73  1  0.73018500  0.57539700  0.51177400  1
  H  H74  1  0.26981500  0.57539700  0.48822600  1
  H  H75  1  0.23018500  0.07539700  0.51177400  1
  H  H76  1  0.76981500  0.07539700  0.48822600  1
  H  H77  1  0.63287000  0.60963200  0.36794100  1
  H  H78  1  0.65482700  0.55518500  0.36982500  1
  H  H79  1  0.75496100  0.60973700  0.45143000  1
  H  H80  1  0.67000400  0.60160300  0.29415500  1
  H  H81  1  0.74381300  0.62021800  0.34719300  1
  H  H82  1  0.36712900  0.60963200  0.63205900  1
  H  H83  1  0.34517300  0.55518500  0.63017600  1
  H  H84  1  0.24503900  0.60973700  0.54857000  1
  H  H85  1  0.32999600  0.60160300  0.70584500  1
  H  H86  1  0.25618600  0.62021800  0.65280700  1
  H  H87  1  0.13287000  0.10963200  0.36794100  1
  H  H88  1  0.15482700  0.05518500  0.36982500  1
  H  H89  1  0.25496100  0.10973700  0.45143000  1
  H  H90  1  0.17000400  0.10160300  0.29415500  1
  H  H91  1  0.24381300  0.12021800  0.34719300  1
  H  H92  1  0.86713000  0.10963200  0.63205900  1
  H  H93  1  0.84517300  0.05518500  0.63017600  1
  H  H94  1  0.74503900  0.10973700  0.54857000  1
  H  H95  1  0.82999600  0.10160300  0.70584500  1
  H  H96  1  0.75618600  0.12021800  0.65280700  1
  C  C1  1  0.80842000  0.80903800  0.50004200  1
  C  C2  1  0.19158000  0.80903800  0.49995800  1
  C  C3  1  0.30842000  0.30903800  0.50004200  1
  C  C4  1  0.69158000  0.30903800  0.49995800  1
  C  C5  1  0.68124000  0.74955400  0.36433700  1
  C  C6  1  0.31876000  0.74955400  0.63566300  1
  C  C7  1  0.18124000  0.24955400  0.36433700  1
  C  C8  1  0.81876000  0.24955400  0.63566300  1
  C  C9  1  0.69071900  0.68770700  0.49976800  1
  C  C10  1  0.30928100  0.68770700  0.50023200  1
  C  C11  1  0.19071900  0.18770700  0.49976800  1
  C  C12  1  0.80928100  0.18770700  0.50023200  1
  C  C13  1  0.81811100  0.74733200  0.63562400  1
  C  C14  1  0.18188800  0.74733200  0.36437600  1
  C  C15  1  0.31811100  0.24733200  0.63562400  1
  C  C16  1  0.68188800  0.24733200  0.36437600  1
  C  C17  1  0.60986400  0.78646100  0.25358500  1
  C  C18  1  0.39013600  0.78646100  0.74641500  1
  C  C19  1  0.10986400  0.28646100  0.25358500  1
  C  C20  1  0.89013600  0.28646100  0.74641500  1
  C  C21  1  0.57505700  0.78769900  0.18209900  1
  C  C22  1  0.42494300  0.78769900  0.81790100  1
  C  C23  1  0.07505700  0.28769900  0.18209900  1
  C  C24  1  0.92494300  0.28769900  0.81790100  1
  C  C25  1  0.57187600  0.75275600  0.14505400  1
  C  C26  1  0.42812400  0.75275600  0.85494600  1
  C  C27  1  0.07187600  0.25275600  0.14505400  1
  C  C28  1  0.92812400  0.25275600  0.85494600  1
  C  C29  1  0.60446400  0.71696900  0.18007100  1
  C  C30  1  0.39553600  0.71696900  0.81992900  1
  C  C31  1  0.10446400  0.21696900  0.18007100  1
  C  C32  1  0.89553600  0.21696900  0.81992900  1
  C  C33  1  0.64048000  0.71634600  0.25134600  1
  C  C34  1  0.35951900  0.71634600  0.74865400  1
  C  C35  1  0.14048000  0.21634600  0.25134600  1
  C  C36  1  0.85951900  0.21634600  0.74865400  1
  C  C37  1  0.64301400  0.75083400  0.28851000  1
  C  C38  1  0.35698600  0.75083400  0.71149000  1
  C  C39  1  0.14301400  0.25083400  0.28851000  1
  C  C40  1  0.85698600  0.25083400  0.71149000  1
  C  C41  1  0.46584600  0.75316200  0.93078000  1
  C  C42  1  0.53415400  0.75316200  0.06922000  1
  C  C43  1  0.96584600  0.25316200  0.93078000  1
  C  C44  1  0.03415400  0.25316200  0.06922000  1
  C  C45  1  0.86099600  0.83807200  0.46340600  1
  C  C46  1  0.13900400  0.83807200  0.53659400  1
  C  C47  1  0.36099600  0.33807200  0.46340600  1
  C  C48  1  0.63900400  0.33807200  0.53659400  1
  C  C49  1  0.84144200  0.84252800  0.49984300  1
  C  C50  1  0.15855800  0.84252800  0.50015700  1
  C  C51  1  0.34144200  0.34252800  0.49984300  1
  C  C52  1  0.65855800  0.34252800  0.50015700  1
  C  C53  1  0.85427700  0.88067000  0.53647500  1
  C  C54  1  0.14572200  0.88067000  0.46352500  1
  C  C55  1  0.35427700  0.38067000  0.53647500  1
  C  C56  1  0.64572200  0.38067000  0.46352500  1
  C  C57  1  0.88708100  0.91183300  0.53710500  1
  C  C58  1  0.11291900  0.91183300  0.46289500  1
  C  C59  1  0.38708100  0.41183300  0.53710500  1
  C  C60  1  0.61291900  0.41183300  0.46289500  1
  C  C61  1  0.90491400  0.90621300  0.49821700  1
  C  C62  1  0.09508600  0.90621300  0.50178300  1
  C  C63  1  0.40491400  0.40621300  0.49821700  1
  C  C64  1  0.59508600  0.40621300  0.50178300  1
  C  C65  1  0.88976400  0.86871400  0.46117700  1
  C  C66  1  0.11023600  0.86871400  0.53882300  1
  C  C67  1  0.38976400  0.36871400  0.46117700  1
  C  C68  1  0.61023600  0.36871400  0.53882300  1
  C  C69  1  0.89640700  0.84413900  0.41541300  1
  C  C70  1  0.10359300  0.84413900  0.58458700  1
  C  C71  1  0.39640700  0.34413900  0.41541300  1
  C  C72  1  0.60359300  0.34413900  0.58458700  1
  C  C73  1  0.86205600  0.80821000  0.41742700  1
  C  C74  1  0.13794400  0.80821000  0.58257300  1
  C  C75  1  0.36205600  0.30821000  0.41742700  1
  C  C76  1  0.63794400  0.30821000  0.58257300  1
  C  C77  1  0.83907500  0.76054700  0.74805000  1
  C  C78  1  0.16092500  0.76054700  0.25195000  1
  C  C79  1  0.33907500  0.26054700  0.74805000  1
  C  C80  1  0.66092500  0.26054700  0.25195000  1
  C  C81  1  0.87432400  0.75863800  0.81936400  1
  C  C82  1  0.12567600  0.75863800  0.18063600  1
  C  C83  1  0.37432400  0.25863800  0.81936400  1
  C  C84  1  0.62567600  0.25863800  0.18063600  1
  C  C85  1  0.92761200  0.74322300  0.85487300  1
  C  C86  1  0.07238800  0.74322300  0.14512700  1
  C  C87  1  0.42761200  0.24322300  0.85487300  1
  C  C88  1  0.57238800  0.24322300  0.14512700  1
  C  C89  1  0.94496600  0.72898600  0.81827900  1
  C  C90  1  0.05503400  0.72898600  0.18172100  1
  C  C91  1  0.44496600  0.22898600  0.81827900  1
  C  C92  1  0.55503400  0.22898600  0.18172100  1
  C  C93  1  0.90905900  0.72958400  0.74680500  1
  C  C94  1  0.09094100  0.72958400  0.25319500  1
  C  C95  1  0.40905900  0.22958400  0.74680500  1
  C  C96  1  0.59094100  0.22958400  0.25319500  1
  C  C97  1  0.85613300  0.74577800  0.71142000  1
  C  C98  1  0.14386700  0.74577800  0.28858100  1
  C  C99  1  0.35613300  0.24577800  0.71142000  1
  C  C100  1  0.64386700  0.24577800  0.28858100  1
  C  C101  1  0.03452300  0.74243400  0.06925100  1
  C  C102  1  0.96547700  0.74243400  0.93074900  1
  C  C103  1  0.53452300  0.24243400  0.06925100  1
  C  C104  1  0.46547700  0.24243400  0.93074900  1
  C  C105  1  0.65911100  0.61178800  0.48654800  1
  C  C106  1  0.34088900  0.61178800  0.51345200  1
  C  C107  1  0.15911100  0.11178800  0.48654800  1
  C  C108  1  0.84088900  0.11178800  0.51345200  1
  C  C109  1  0.65749300  0.65449600  0.50050200  1
  C  C110  1  0.34250700  0.65449600  0.49949900  1
  C  C111  1  0.15749300  0.15449600  0.50050200  1
  C  C112  1  0.84250700  0.15449600  0.49949900  1
  C  C113  1  0.62255700  0.66502800  0.51597700  1
  C  C114  1  0.37744300  0.66502800  0.48402300  1
  C  C115  1  0.12255700  0.16502800  0.51597700  1
  C  C116  1  0.87744300  0.16502800  0.48402300  1
  C  C117  1  0.59136000  0.63337700  0.51755400  1
  C  C118  1  0.40864000  0.63337700  0.48244600  1
  C  C119  1  0.09136000  0.13337700  0.51755400  1
  C  C120  1  0.90864000  0.13337700  0.48244600  1
  C  C121  1  0.59385800  0.59095900  0.50234100  1
  C  C122  1  0.40614200  0.59095900  0.49765900  1
  C  C123  1  0.09385800  0.09095900  0.50234100  1
  C  C124  1  0.90614200  0.09095900  0.49765900  1
  C  C125  1  0.62834400  0.58211800  0.48695100  1
  C  C126  1  0.37165600  0.58211800  0.51304900  1
  C  C127  1  0.12834400  0.08211800  0.48695100  1
  C  C128  1  0.87165600  0.08211800  0.51304900  1
  C  C129  1  0.64875800  0.54564500  0.46998100  1
  C  C130  1  0.35124200  0.54564500  0.53001900  1
  C  C131  1  0.14875800  0.04564500  0.46998100  1
  C  C132  1  0.85124200  0.04564500  0.53001900  1
  C  C133  1  0.68527300  0.58017900  0.46950000  1
  C  C134  1  0.31472700  0.58017900  0.53050000  1
  C  C135  1  0.18527300  0.08017900  0.46950000  1
  C  C136  1  0.81472700  0.08017900  0.53050000  1
  C  C137  1  0.43986800  0.55749200  0.49918900  1
  C  C138  1  0.56013200  0.55749200  0.50081100  1
  C  C139  1  0.93986800  0.05749200  0.49918900  1
  C  C140  1  0.06013200  0.05749200  0.50081100  1
  C  C141  1  0.93986100  0.93828800  0.49934500  1
  C  C142  1  0.06013900  0.93828800  0.50065500  1
  C  C143  1  0.43986100  0.43828800  0.49934500  1
  C  C144  1  0.56013900  0.43828800  0.50065500  1
  C  C145  1  0.66790500  0.58654900  0.39740600  1
  C  C146  1  0.71529000  0.60298500  0.40175300  1
  C  C147  1  0.70934100  0.60854900  0.34417700  1
  C  C148  1  0.33209400  0.58654900  0.60259400  1
  C  C149  1  0.28471000  0.60298500  0.59824700  1
  C  C150  1  0.29065900  0.60854900  0.65582300  1
  C  C151  1  0.16790500  0.08654900  0.39740600  1
  C  C152  1  0.21529000  0.10298600  0.40175300  1
  C  C153  1  0.20934100  0.10854900  0.34417700  1
  C  C154  1  0.83209400  0.08654900  0.60259400  1
  C  C155  1  0.78471000  0.10298500  0.59824700  1
  C  C156  1  0.79065900  0.10854900  0.65582300  1
  N  N1  1  0.51701500  0.71567400  0.03420600  1
  N  N2  1  0.48298500  0.71567400  0.96579400  1
  N  N3  1  0.01701500  0.21567400  0.03420600  1
  N  N4  1  0.98298500  0.21567400  0.96579400  1
  N  N5  1  0.48322200  0.79073000  0.96573800  1
  N  N6  1  0.51677800  0.79073000  0.03426200  1
  N  N7  1  0.98322200  0.29073000  0.96573800  1
  N  N8  1  0.01677800  0.29073000  0.03426200  1
  N  N9  1  0.02057800  0.74224000  0.96586400  1
  N  N10  1  0.97942200  0.74224000  0.03413600  1
  N  N11  1  0.52057800  0.24224000  0.96586400  1
  N  N12  1  0.47942200  0.24224000  0.03413600  1
  N  N13  1  0.05471000  0.74250100  0.03434600  1
  N  N14  1  0.94529000  0.74250100  0.96565400  1
  N  N15  1  0.55471000  0.24250100  0.03434600  1
  N  N16  1  0.44529000  0.24250100  0.96565400  1
  O  O1  1  0.81851600  0.76857500  0.49578100  1
  O  O2  1  0.18148400  0.76857500  0.50421900  1
  O  O3  1  0.31851600  0.26857500  0.49578100  1
  O  O4  1  0.68148400  0.26857500  0.50421900  1
  O  O5  1  0.77017200  0.82105400  0.50460700  1
  O  O6  1  0.22982700  0.82105400  0.49539300  1
  O  O7  1  0.27017200  0.32105400  0.50460700  1
  O  O8  1  0.72982700  0.32105400  0.49539300  1
  O  O9  1  0.72216500  0.72179100  0.39484600  1
  O  O10  1  0.27783500  0.72179100  0.60515500  1
  O  O11  1  0.22216500  0.22179100  0.39484600  1
  O  O12  1  0.77783500  0.22179100  0.60515500  1
  O  O13  1  0.67322500  0.77620400  0.39856600  1
  O  O14  1  0.32677500  0.77620400  0.60143500  1
  O  O15  1  0.17322500  0.27620400  0.39856600  1
  O  O16  1  0.82677500  0.27620400  0.60143500  1
  O  O17  1  0.72986700  0.67574200  0.49689500  1
  O  O18  1  0.27013300  0.67574200  0.50310600  1
  O  O19  1  0.22986700  0.17574200  0.49689500  1
  O  O20  1  0.77013300  0.17574200  0.50310600  1
  O  O21  1  0.68003100  0.72823700  0.50256400  1
  O  O22  1  0.31996900  0.72823700  0.49743600  1
  O  O23  1  0.18003100  0.22823700  0.50256400  1
  O  O24  1  0.81996900  0.22823700  0.49743600  1
  O  O25  1  0.82681800  0.72135300  0.60137900  1
  O  O26  1  0.17318200  0.72135300  0.39862100  1
  O  O27  1  0.32681800  0.22135300  0.60137900  1
  O  O28  1  0.67318200  0.22135300  0.39862100  1
  O  O29  1  0.77645200  0.77438500  0.60515100  1
  O  O30  1  0.22354700  0.77438500  0.39484900  1
  O  O31  1  0.27645200  0.27438500  0.60515100  1
  O  O32  1  0.72354800  0.27438500  0.39484900  1
  O  O33  1  0.42661500  0.54407000  0.44018400  1
  O  O34  1  0.57338500  0.54407000  0.55981600  1
  O  O35  1  0.92661500  0.04407000  0.44018400  1
  O  O36  1  0.07338500  0.04407000  0.55981600  1
  O  O37  1  0.48214000  0.54260800  0.55975600  1
  O  O38  1  0.51786000  0.54260800  0.44024400  1
  O  O39  1  0.98214000  0.04260800  0.55975600  1
  O  O40  1  0.01786000  0.04260800  0.44024400  1
  O  O41  1  0.92691200  0.95138600  0.44031300  1
  O  O42  1  0.07308800  0.95138600  0.55968800  1
  O  O43  1  0.42691200  0.45138600  0.44031300  1
  O  O44  1  0.57308800  0.45138600  0.55968800  1
  O  O45  1  0.98190900  0.95341400  0.55976700  1
  O  O46  1  0.01809000  0.95341400  0.44023300  1
  O  O47  1  0.48190900  0.45341400  0.55976700  1
  O  O48  1  0.51809000  0.45341400  0.44023300  1
