# Generated by REPEAT Assigner based on pymatgen
data_DB0-m29_o92_o172_f0_pts.sym.27
_audit_creation_date              2022-05-24
_audit_creation_method            REPEAT_Assigner
_cell_length_a                    24.870714
_cell_length_b                    21.017260
_cell_length_c                    20.774587
_cell_angle_alpha                 90.233928
_cell_angle_beta                  111.208776
_cell_angle_gamma                 116.946816
_cell_volume                      8838.140061
_symmetry_space_group_name_H-M    P1
_symmetry_Int_Tables_number       1
loop_
    _symmetry_equiv_pos_site_id
    _symmetry_equiv_pos_as_xyz
    1  x,y,z
loop_
    _atom_site_type_symbol
    _atom_site_label
    _atom_site_fract_x
    _atom_site_fract_y
    _atom_site_fract_z
    _atom_type_partial_charge
    C   C1   0.118557  0.916245  0.893542  0.451082
    O   O1   0.101365  0.860165  0.845135  -0.504790
    N   N1   0.182453  0.967958  0.926281  -0.154695
    C   C2   0.200423  0.023997  0.975569  0.443106
    C   C3   0.285943  0.966039  0.957162  -0.239431
    C   C4   0.338512  0.975908  0.941901  0.051081
    C   C5   0.278626  0.977913  0.822893  -0.107465
    C   C6   0.227395  0.970469  0.839361  -0.175364
    C   C7   0.231255  0.965705  0.906884  0.262420
    C   C8   0.088243  0.976883  0.960485  0.107128
    C   C9   0.070841  0.920176  0.910228  -0.124715
    C   C10  0.005631  0.868026  0.876192  -0.028257
    C   C11  0.153762  0.028781  0.993457  -0.116355
    C   C12  0.335146  0.982042  0.873867  -0.031644
    H   H1   0.274499  0.982385  0.769724  0.135981
    H   H2   0.185281  0.971219  0.799617  0.132831
    H   H3   0.990150  0.823471  0.835650  0.120632
    C   C13  0.655872  0.009060  0.111385  -0.038464
    C   C14  0.927696  0.931929  0.963375  0.075963
    C   C15  0.011171  0.048097  0.040761  0.075236
    C   C16  0.945924  0.992704  0.010258  -0.004160
    C   C17  0.862253  0.876140  0.936977  -0.189766
    C   C18  0.816180  0.881985  0.954283  -0.070109
    C   C19  0.833845  0.943208  0.998692  -0.091659
    C   C20  0.898472  0.998157  0.026843  0.121932
    C   C21  0.915068  0.058565  0.071897  -0.130432
    C   C22  0.867538  0.063160  0.088287  0.471021
    N   N2   0.804604  0.008633  0.060253  -0.202455
    C   C23  0.787240  0.949047  0.015933  0.427338
    C   C24  0.702063  0.012765  0.027169  -0.252849
    C   C25  0.651890  0.010328  0.042907  -0.051689
    C   C26  0.711506  0.011980  0.163092  -0.073666
    C   C27  0.761162  0.013869  0.146746  -0.183663
    C   C28  0.756144  0.013132  0.078465  0.301289
    O   O2   0.724559  0.894275  0.989763  -0.495431
    C   C29  0.975007  0.928081  0.944406  0.033940
    C   C30  0.040726  0.981966  0.977253  0.035781
    C   C31  0.059392  0.041042  0.026579  0.030454
    C   C32  0.958345  0.871852  0.892708  -0.175709
    H   H4   0.697518  0.011447  0.973371  0.199643
    H   H5   0.766089  0.837311  0.932310  0.132687
    H   H6   0.844212  0.825448  0.903633  0.137927
    H   H7   0.908601  0.829928  0.861768  0.125001
    O   O3   0.263827  0.076913  0.005820  -0.495939
    C   C33  0.172617  0.085541  0.044310  -0.036599
    H   H8   0.289869  0.963929  0.010571  0.165504
    H   H9   0.223867  0.126289  0.072310  0.120790
    C   C34  0.026341  0.109834  0.084314  -0.196485
    C   C35  0.979002  0.114643  0.099784  -0.031394
    O   O4   0.883790  0.122711  0.131503  -0.506917
    C   C36  0.126373  0.091504  0.061048  -0.169581
    H   H10  0.074341  0.157326  0.106697  0.140825
    H   H11  0.716429  0.011465  0.216896  0.123147
    H   H12  0.993323  0.163483  0.134055  0.125749
    H   H13  0.803128  0.013666  0.187372  0.132821
    H   H14  0.146064  0.136252  0.103043  0.129294
    O   O5   0.552299  0.008909  0.086710  -0.514792
    C   C37  0.602328  0.002655  0.130672  0.576683
    O   O6   0.445311  0.841591  0.087810  -0.500104
    O   O7   0.603874  0.989031  0.192698  -0.556136
    O   O8   0.469161  0.914182  0.186760  -0.477054
    C   C38  0.452167  0.850393  0.153403  0.552204
    Fe  Fe1  0.486275  0.987527  0.126744  1.424237
    O   O9   0.397541  0.944862  0.045420  -0.582427
    O   O10  0.453584  0.051701  0.016088  -0.460905
    C   C39  0.399244  0.989550  0.001268  0.633577
    O   O11  0.523731  0.084695  0.187181  -0.614157
    O   O12  0.432277  0.018656  0.208439  -0.548931
    C   C40  0.484587  0.080951  0.217426  0.595848
    O   O13  0.483395  0.931867  0.794032  -0.582680
    O   O14  0.595158  0.987884  0.837380  -0.597274
    C   C41  0.537397  0.933250  0.796487  0.615747
    O   O15  0.595255  0.055673  0.952037  -0.629048
    O   O16  0.540392  0.936884  0.958442  -0.533714
    C   C42  0.593052  0.001542  0.984263  0.844476
    O   O17  0.392290  0.020402  0.797244  -0.558484
    O   O18  0.534347  0.103559  0.817434  -0.581752
    C   C43  0.534733  0.157382  0.850103  0.677727
    O   O19  0.437791  0.982443  0.893871  -0.529871
    C   C44  0.390191  0.994942  0.854349  0.611813
    O   O20  0.520914  0.150330  0.905791  -0.528366
    Fe  Fe2  0.511937  0.018990  0.864082  1.441861
    C   C45  0.493845  0.609208  0.424003  -0.024520
    C   C46  0.522726  0.682395  0.452889  -0.009819
    C   C47  0.433640  0.623047  0.534522  -0.107536
    C   C48  0.486004  0.609166  0.563151  0.084727
    C   C49  0.494906  0.558763  0.531164  0.034924
    C   C50  0.492829  0.554671  0.463140  0.059554
    C   C51  0.505775  0.509974  0.570580  -0.154595
    C   C52  0.509378  0.452623  0.543423  0.000771
    C   C53  0.498440  0.442700  0.472235  0.109058
    C   C54  0.493055  0.495242  0.434386  -0.217974
    C   C55  0.527865  0.411075  0.590479  0.048686
    C   C56  0.562101  0.376034  0.584616  -0.103245
    C   C57  0.449099  0.310050  0.443008  -0.108557
    C   C58  0.486925  0.379375  0.434922  -0.019466
    H   H15  0.487715  0.488498  0.380693  0.178865
    H   H16  0.510660  0.517640  0.623955  0.142896
    C   C59  0.446204  0.256445  0.401760  -0.205166
    C   C60  0.481797  0.283576  0.361238  0.119319
    S   S1   0.517275  0.380305  0.368444  -0.014555
    S   S2   0.515045  0.404772  0.670627  -0.030615
    C   C61  0.551012  0.346647  0.686968  0.108907
    C   C62  0.573487  0.338682  0.637508  -0.198224
    C   C63  0.438367  0.676647  0.577914  -0.106200
    C   C64  0.494493  0.704939  0.639957  0.068235
    S   S3   0.542880  0.660585  0.650399  -0.009089
    S   S4   0.459439  0.590898  0.329112  -0.010587
    C   C65  0.479680  0.684732  0.335540  0.084826
    C   C66  0.513680  0.723996  0.403741  -0.215804
    C   C67  0.491448  0.240465  0.320837  -0.049187
    C   C68  0.553499  0.311169  0.743027  -0.053205
    C   C69  0.514118  0.764131  0.689269  -0.072814
    C   C70  0.463402  0.715562  0.277673  -0.034918
    S   S5   0.451835  0.143071  0.309444  0.052691
    C   C71  0.496421  0.146493  0.257417  0.022839
    C   C72  0.536506  0.215690  0.251822  -0.169301
    C   C73  0.533464  0.268541  0.287050  -0.105452
    C   C74  0.434127  0.678606  0.208767  -0.084691
    C   C75  0.426051  0.721749  0.160666  -0.173360
    C   C76  0.447596  0.791688  0.191934  0.004170
    S   S6   0.480090  0.808352  0.286040  0.079788
    S   S7   0.465223  0.807378  0.684462  0.088321
    C   C77  0.534820  0.871809  0.760540  0.013706
    C   C78  0.587093  0.858223  0.784533  -0.208203
    C   C79  0.575320  0.797366  0.745228  -0.050862
    C   C80  0.531087  0.321573  0.795904  -0.102267
    C   C81  0.527415  0.271119  0.838124  -0.139173
    C   C82  0.545497  0.222638  0.820676  -0.050418
    S   S8   0.572954  0.238619  0.750472  0.095590
    H   H17  0.420431  0.199604  0.403822  0.176582
    H   H18  0.598455  0.307482  0.639639  0.170643
    H   H19  0.402197  0.694965  0.563325  0.142907
    H   H20  0.532551  0.781777  0.418598  0.173992
    H   H21  0.565638  0.227408  0.221064  0.182709
    H   H22  0.561700  0.325738  0.287696  0.151879
    H   H23  0.420796  0.622580  0.193180  0.155365
    H   H24  0.406373  0.702938  0.104419  0.164295
    H   H25  0.632653  0.891339  0.830135  0.185531
    H   H26  0.612050  0.780086  0.757079  0.139505
    H   H27  0.516588  0.362027  0.800840  0.162507
    H   H28  0.508675  0.267591  0.878261  0.164642
    H   H29  0.551581  0.706839  0.508191  0.077604
    H   H30  0.580250  0.378257  0.544223  0.126546
    H   H31  0.424167  0.298414  0.478139  0.138187
    Br  Br1  0.357632  0.569117  0.448428  0.009641
