# generated using pymatgen
data_ZnH9C21NO4
_symmetry_space_group_name_H-M   'P 1'
_cell_length_a   8.56059900
_cell_length_b   10.90908400
_cell_length_c   17.49797800
_cell_angle_alpha   90.00000000
_cell_angle_beta   93.70874200
_cell_angle_gamma   90.00000000
_symmetry_Int_Tables_number   1
_chemical_formula_structural   ZnH9C21NO4
_chemical_formula_sum   'Zn2 H18 C42 N2 O8'
_cell_volume   1630.68409662
_cell_formula_units_Z   2
loop_
 _symmetry_equiv_pos_site_id
 _symmetry_equiv_pos_as_xyz
  1  'x, y, z'
loop_
 _atom_site_type_symbol
 _atom_site_label
 _atom_site_symmetry_multiplicity
 _atom_site_fract_x
 _atom_site_fract_y
 _atom_site_fract_z
 _atom_site_occupancy
  Zn  Zn1  1  0.98941000  0.98706900  0.91587900  1
  Zn  Zn2  1  0.00970700  0.01318400  0.08400900  1
  H  H1  1  0.02379700  0.68758800  0.68649300  1
  H  H2  1  0.94925900  0.29049700  0.69530500  1
  H  H3  1  0.00486000  0.70782900  0.30209500  1
  H  H4  1  0.02439400  0.31328800  0.31571000  1
  H  H5  1  0.99398000  0.69453900  0.43641800  1
  H  H6  1  0.01783000  0.31131600  0.45067200  1
  H  H7  1  0.03618700  0.68950100  0.55188100  1
  H  H8  1  0.95620400  0.30348200  0.56071800  1
  H  H9  1  0.96265000  0.17506800  0.81045900  1
  H  H10  1  0.00402000  0.79182900  0.80581800  1
  H  H11  1  0.01365400  0.82435700  0.18808200  1
  H  H12  1  0.02110400  0.20888000  0.19516300  1
  H  H13  1  0.11085100  0.38987100  0.99832400  1
  H  H14  1  0.11238000  0.61003800  0.00885900  1
  H  H15  1  0.75157800  0.59307200  0.98791400  1
  H  H16  1  0.75513200  0.40757000  0.00722300  1
  H  H17  1  0.49072400  0.08716900  0.96946800  1
  H  H18  1  0.50030300  0.91316800  0.03056700  1
  C  C1  1  0.77888800  0.83181500  0.00578200  1
  C  C2  1  0.77678700  0.16839300  0.99084700  1
  C  C3  1  0.21686500  0.17235400  0.99322500  1
  C  C4  1  0.21923500  0.82802500  0.00989000  1
  C  C5  1  0.99379100  0.87810900  0.77552900  1
  C  C6  1  0.97052700  0.09114600  0.77815100  1
  C  C7  1  0.98797900  0.99071300  0.65794900  1
  C  C8  1  0.99726800  0.88090600  0.69661100  1
  C  C9  1  0.97377800  0.09625600  0.69958500  1
  C  C10  1  0.01350100  0.77422500  0.65660800  1
  C  C11  1  0.96321300  0.20720900  0.66297700  1
  C  C12  1  0.00613800  0.89136100  0.45789600  1
  C  C13  1  0.00247300  0.11266400  0.46234900  1
  C  C14  1  0.00745000  0.00425800  0.42099700  1
  C  C15  1  0.00355900  0.78520700  0.41347000  1
  C  C16  1  0.01176000  0.22349900  0.42305000  1
  C  C17  1  0.00752000  0.79148900  0.33526100  1
  C  C18  1  0.01833100  0.22613200  0.34476300  1
  C  C19  1  0.01328700  0.90292400  0.29950000  1
  C  C20  1  0.01718700  0.11903100  0.30386300  1
  C  C21  1  0.01304400  0.00877600  0.34183900  1
  C  C22  1  0.01999500  0.12206400  0.22490600  1
  C  C23  1  0.01594900  0.90827400  0.22093200  1
  C  C24  1  0.00589400  0.88695800  0.53781900  1
  C  C25  1  0.98938500  0.10791500  0.54160300  1
  C  C26  1  0.99424800  0.99519200  0.57882300  1
  C  C27  1  0.01821600  0.77671000  0.57823800  1
  C  C28  1  0.97012200  0.21348100  0.58490100  1
  C  C29  1  0.50233300  0.43604100  0.99757400  1
  C  C30  1  0.50291100  0.56434300  0.00216500  1
  C  C31  1  0.36034700  0.37336800  0.99565200  1
  C  C32  1  0.36190300  0.62686200  0.00693500  1
  C  C33  1  0.22186900  0.43716400  0.99983400  1
  C  C34  1  0.22260400  0.56288500  0.00519600  1
  C  C35  1  0.36165600  0.75351400  0.01463000  1
  C  C36  1  0.35790000  0.24673700  0.98816900  1
  C  C37  1  0.50066800  0.81568700  0.02167700  1
  C  C38  1  0.49406100  0.18466600  0.97825300  1
  C  C39  1  0.63845100  0.75725200  0.01031600  1
  C  C40  1  0.63521900  0.24322700  0.98657100  1
  C  C41  1  0.64041700  0.63250500  0.99917200  1
  C  C42  1  0.64060700  0.36802500  0.99775400  1
  N  N1  1  0.98094500  0.98298300  0.81510400  1
  N  N2  1  0.01843500  0.01693800  0.18465000  1
  O  O1  1  0.83722200  0.88768100  0.06759500  1
  O  O2  1  0.84101600  0.13769400  0.05822900  1
  O  O3  1  0.82792900  0.86054300  0.93854600  1
  O  O4  1  0.82102800  0.11402200  0.92891500  1
  O  O5  1  0.15866900  0.11582300  0.93164700  1
  O  O6  1  0.15832700  0.86151400  0.94227500  1
  O  O7  1  0.17136200  0.14081700  0.06078800  1
  O  O8  1  0.17507100  0.88298900  0.07160400  1
