data_DB0-m2_o11_o29_f0_pcu.sym.4_repeat
_audit_creation_date              2024-02-23
_audit_creation_method            'Materials Studio'
_symmetry_space_group_name_H-M    'P1'
_symmetry_Int_Tables_number       1
_symmetry_cell_setting            triclinic
loop_
_symmetry_equiv_pos_as_xyz
  x,y,z
_cell_length_a                    27.5425
_cell_length_b                    11.0308
_cell_length_c                    9.5210
_cell_angle_alpha                 90.0206
_cell_angle_beta                  90.0157
_cell_angle_gamma                 89.9936
loop_
_atom_site_label
_atom_site_type_symbol
_atom_site_fract_x
_atom_site_fract_y
_atom_site_fract_z
_atom_site_U_iso_or_equiv
_atom_site_adp_type
_atom_site_occupancy
O1     O     0.49971   0.33403   0.59874   0.00000  Uiso   1.00
O2     O     0.50066   0.33585   0.35642   0.00000  Uiso   1.00
C1     C     0.50077   0.27836   0.47727   0.00000  Uiso   1.00
O3     O     0.42853   0.49993   0.60471   0.00000  Uiso   1.00
O4     O     0.42690   0.51284   0.36304   0.00000  Uiso   1.00
C2     C     0.40501   0.50508   0.48499   0.00000  Uiso   1.00
Cu1    Cu    0.49943   0.50872   0.61875   0.00000  Uiso   1.00
Cu2    Cu    0.49715   0.51273   0.33796   0.00000  Uiso   1.00
O5     O     0.49484   0.68610   0.59974   0.00000  Uiso   1.00
O6     O     0.49757   0.68823   0.35844   0.00000  Uiso   1.00
O7     O     0.56952   0.51239   0.59312   0.00000  Uiso   1.00
O8     O     0.56793   0.52032   0.35199   0.00000  Uiso   1.00
C3     C     0.49554   0.74379   0.47987   0.00000  Uiso   1.00
C4     C     0.59154   0.52019   0.47150   0.00000  Uiso   1.00
C5     C     0.17427   0.40251   0.52479   0.00000  Uiso   1.00
O9     O     0.19848   0.30160   0.56150   0.00000  Uiso   1.00
N1     N     0.19924   0.50249   0.48794   0.00000  Uiso   1.00
C6     C     0.17563   0.60377   0.44838   0.00000  Uiso   1.00
C7     C     0.27596   0.52072   0.36433   0.00000  Uiso   1.00
C8     C     0.32592   0.52119   0.36288   0.00000  Uiso   1.00
C9     C     0.32664   0.48242   0.60969   0.00000  Uiso   1.00
C10    C     0.27648   0.48037   0.61031   0.00000  Uiso   1.00
C11    C     0.25101   0.50051   0.48760   0.00000  Uiso   1.00
C12    C     0.09914   0.50482   0.48110   0.00000  Uiso   1.00
C13    C     0.12402   0.40226   0.52104   0.00000  Uiso   1.00
C14    C     0.09859   0.29997   0.55758   0.00000  Uiso   1.00
C15    C     0.12541   0.60638   0.44548   0.00000  Uiso   1.00
C16    C     0.35171   0.50240   0.48607   0.00000  Uiso   1.00
H1     H     0.34599   0.46830   0.70715   0.00000  Uiso   1.00
H2     H     0.25720   0.46515   0.70758   0.00000  Uiso   1.00
H3     H     0.11717   0.21894   0.59183   0.00000  Uiso   1.00
C17    C     0.64488   0.52392   0.46891   0.00000  Uiso   1.00
C18    C     0.97221   0.40040   0.49489   0.00000  Uiso   1.00
C19    C     0.97342   0.61507   0.44825   0.00000  Uiso   1.00
C20    C     0.94775   0.50835   0.46977   0.00000  Uiso   1.00
C21    C     0.94514   0.29412   0.50531   0.00000  Uiso   1.00
C22    C     0.89537   0.29610   0.49808   0.00000  Uiso   1.00
C23    C     0.87110   0.40384   0.48056   0.00000  Uiso   1.00
C24    C     0.89720   0.50958   0.46603   0.00000  Uiso   1.00
C25    C     0.87219   0.61653   0.44821   0.00000  Uiso   1.00
C26    C     0.82195   0.61670   0.44739   0.00000  Uiso   1.00
N2     N     0.79717   0.51221   0.46160   0.00000  Uiso   1.00
C27    C     0.82085   0.40629   0.47718   0.00000  Uiso   1.00
C28    C     0.71884   0.45821   0.36034   0.00000  Uiso   1.00
C29    C     0.66891   0.46388   0.36228   0.00000  Uiso   1.00
C30    C     0.67168   0.58129   0.57371   0.00000  Uiso   1.00
C31    C     0.72177   0.57539   0.57059   0.00000  Uiso   1.00
C32    C     0.74542   0.51466   0.46425   0.00000  Uiso   1.00
O10    O     0.79534   0.30343   0.49302   0.00000  Uiso   1.00
C33    C     0.02290   0.40075   0.50730   0.00000  Uiso   1.00
C34    C     0.04859   0.50585   0.47713   0.00000  Uiso   1.00
C35    C     0.02423   0.61212   0.44323   0.00000  Uiso   1.00
C36    C     0.04878   0.29868   0.55058   0.00000  Uiso   1.00
H4     H     0.64874   0.41711   0.28142   0.00000  Uiso   1.00
H5     H     0.73692   0.40955   0.27658   0.00000  Uiso   1.00
H6     H     0.87603   0.21132   0.50709   0.00000  Uiso   1.00
H7     H     0.96114   0.20568   0.51485   0.00000  Uiso   1.00
H8     H     0.03192   0.21590   0.58464   0.00000  Uiso   1.00
O11    O     0.20112   0.70341   0.41429   0.00000  Uiso   1.00
C37    C     0.10138   0.70979   0.40538   0.00000  Uiso   1.00
H9     H     0.34412   0.53772   0.26432   0.00000  Uiso   1.00
H10    H     0.25643   0.53556   0.26748   0.00000  Uiso   1.00
H11    H     0.12098   0.79013   0.37399   0.00000  Uiso   1.00
C38    C     0.94738   0.72261   0.43330   0.00000  Uiso   1.00
C39    C     0.89753   0.72308   0.43322   0.00000  Uiso   1.00
O12    O     0.79753   0.72099   0.42958   0.00000  Uiso   1.00
C40    C     0.05156   0.71283   0.40385   0.00000  Uiso   1.00
H12    H     0.96418   0.81030   0.42596   0.00000  Uiso   1.00
H13    H     0.87907   0.80886   0.42144   0.00000  Uiso   1.00
H14    H     0.74307   0.61969   0.65097   0.00000  Uiso   1.00
H15    H     0.03591   0.79583   0.36608   0.00000  Uiso   1.00
C41    C     0.49898   0.94307   0.36740   0.00000  Uiso   1.00
C42    C     0.49389   0.87634   0.48410   0.00000  Uiso   1.00
H16    H     0.50323   0.89728   0.26728   0.00000  Uiso   1.00
H17    H     0.48774   0.91665   0.58580   0.00000  Uiso   1.00
C43    C     0.49862   0.07739   0.36507   0.00000  Uiso   1.00
C44    C     0.50162   0.14541   0.48121   0.00000  Uiso   1.00
H18    H     0.49693   0.12058   0.26306   0.00000  Uiso   1.00
H19    H     0.50420   0.10524   0.58425   0.00000  Uiso   1.00
C45    C     0.47399   0.43401   0.89929   0.00000  Uiso   1.00
N3     N     0.50062   0.50958   0.82882   0.00000  Uiso   1.00
H20    H     0.44835   0.37440   0.84593   0.00000  Uiso   1.00
H21    H     0.52928   0.54762   0.88158   0.00000  Uiso   1.00
C46    C     0.47830   0.42411   0.05334   0.00000  Uiso   1.00
N4     N     0.49491   0.51232   0.12809   0.00000  Uiso   1.00
H22    H     0.46511   0.34090   0.10188   0.00000  Uiso   1.00
H23    H     0.49860   0.59425   0.07801   0.00000  Uiso   1.00
C47    C     0.64859   0.65447   0.68363   0.00000  Uiso   1.00
C48    C     0.66039   0.63566   0.82304   0.00000  Uiso   1.00
C49    C     0.63970   0.70646   0.92629   0.00000  Uiso   1.00
C50    C     0.60750   0.79696   0.89075   0.00000  Uiso   1.00
C51    C     0.59627   0.81754   0.75171   0.00000  Uiso   1.00
C52    C     0.61689   0.74671   0.64814   0.00000  Uiso   1.00
H24    H     0.68545   0.56462   0.85243   0.00000  Uiso   1.00
H25    H     0.64883   0.69085   0.03518   0.00000  Uiso   1.00
H26    H     0.59135   0.85243   0.97189   0.00000  Uiso   1.00
H27    H     0.57162   0.88986   0.72385   0.00000  Uiso   1.00
H28    H     0.60881   0.76517   0.53909   0.00000  Uiso   1.00
