# Generated by REPEAT Assigner based on pymatgen
data_DB0-m9_o6_o13_f0_sra.sym.34_sqe
_audit_creation_date              2022-05-24
_audit_creation_method            REPEAT_Assigner
_cell_length_a                    20.865580
_cell_length_b                    6.179025
_cell_length_c                    19.896210
_cell_angle_alpha                 90.000000
_cell_angle_beta                  102.666829
_cell_angle_gamma                 90.000000
_cell_volume                      2502.764655
_symmetry_space_group_name_H-M    P1
_symmetry_Int_Tables_number       1
loop_
    _symmetry_equiv_pos_site_id
    _symmetry_equiv_pos_as_xyz
    1  x,y,z
loop_
    _atom_site_type_symbol
    _atom_site_label
    _atom_site_fract_x
    _atom_site_fract_y
    _atom_site_fract_z
    _atom_type_partial_charge
    O  O1   0.814217  0.624759  0.204558  -0.405833
    O  O2   0.184292  0.388801  0.792774  -0.508997
    O  O3   0.685783  0.124759  0.295442  -0.405817
    O  O4   0.315708  0.888803  0.707225  -0.508945
    O  O5   0.668872  0.256912  0.161309  -0.518008
    O  O6   0.328758  0.756496  0.840853  -0.484146
    O  O7   0.831128  0.756912  0.338691  -0.517993
    O  O8   0.171242  0.256495  0.659146  -0.484140
    C  C1   0.646584  0.457417  0.159565  0.560367
    C  C2   0.351427  0.556266  0.843069  0.546195
    C  C3   0.853416  0.957416  0.340435  0.560336
    C  C4   0.148572  0.056265  0.656931  0.546182
    O  O9   0.801328  0.256420  0.169359  -0.337599
    O  O10  0.195666  0.756990  0.828587  -0.520098
    O  O11  0.698672  0.756420  0.330641  -0.337584
    O  O12  0.304334  0.256990  0.671412  -0.520050
    O  O13  0.825859  0.124428  0.303324  -0.461492
    O  O14  0.174985  0.889116  0.694760  -0.489593
    O  O15  0.674141  0.624428  0.196675  -0.461502
    O  O16  0.325014  0.389117  0.805240  -0.489670
    C  C5   0.827400  0.451890  0.169943  0.433654
    C  C6   0.169621  0.561090  0.826677  0.651030
    C  C7   0.672600  0.951891  0.330057  0.433607
    C  C8   0.330379  0.061092  0.673323  0.650966
    O  O17  0.759419  0.401937  0.293967  -0.369949
    O  O18  0.242139  0.611629  0.705904  -0.369046
    O  O19  0.740581  0.901937  0.206033  -0.369966
    O  O20  0.257861  0.111629  0.794095  -0.368975
    V  V1   0.745148  0.158865  0.231405  1.154140
    V  V2   0.254044  0.854606  0.768814  1.268812
    V  V3   0.754852  0.658865  0.268595  1.153723
    V  V4   0.245956  0.354606  0.731185  1.269051
    C  C9   0.464583  0.179420  0.504945  -0.168310
    C  C10  0.541504  0.817694  0.502159  -0.328117
    C  C11  0.035417  0.679419  0.995056  -0.168339
    C  C12  0.958497  0.317691  0.997841  -0.328103
    H  H1   0.435772  0.323581  0.507178  0.137003
    H  H2   0.571903  0.676452  0.501400  0.199651
    H  H3   0.064228  0.823580  0.992822  0.137009
    H  H4   0.928098  0.176450  0.998601  0.199645
    C  C13  0.458304  0.003124  0.545686  0.288128
    C  C14  0.547350  0.993830  0.461269  0.393705
    C  C15  0.041696  0.503123  0.954314  0.288112
    C  C16  0.952651  0.493828  0.038731  0.393695
    C  C17  0.497588  0.823518  0.545031  -0.053604
    C  C18  0.509579  0.174343  0.463472  -0.112530
    C  C19  0.002412  0.323516  0.954970  -0.053613
    C  C20  0.990421  0.674341  0.036528  -0.112491
    C  C21  0.413650  0.013276  0.591436  -0.198646
    C  C22  0.592296  0.991393  0.415638  -0.222849
    C  C23  0.086350  0.513274  0.908564  -0.198631
    C  C24  0.907705  0.491391  0.084362  -0.222826
    C  C25  0.628835  0.980898  0.376251  -0.037470
    C  C26  0.375911  0.029594  0.629314  -0.077299
    C  C27  0.871166  0.480897  0.123749  -0.037524
    C  C28  0.124089  0.529593  0.870685  -0.077302
    C  C29  0.910791  0.007091  0.394177  -0.016362
    C  C30  0.091941  0.006750  0.602261  -0.017420
    C  C31  0.589209  0.507091  0.105822  -0.016390
    C  C32  0.408059  0.506751  0.897738  -0.017394
    C  C33  0.013976  0.749497  0.544006  -0.267560
    C  C34  0.989101  0.264080  0.452031  -0.246796
    C  C35  0.486023  0.249497  0.955993  -0.267777
    C  C36  0.510899  0.764080  0.047969  -0.246788
    C  C37  0.065904  0.800892  0.597279  -0.040961
    C  C38  0.936874  0.212916  0.399003  -0.091509
    C  C39  0.434095  0.300892  0.902720  -0.040761
    C  C40  0.563126  0.712916  0.100996  -0.091497
    C  C41  0.066268  0.161632  0.554111  -0.229700
    C  C42  0.936803  0.852060  0.442091  -0.229134
    C  C43  0.433732  0.661633  0.945888  -0.229767
    C  C44  0.563197  0.352061  0.057908  -0.229123
    C  C45  0.014632  0.109822  0.500539  0.195652
    C  C46  0.988567  0.903748  0.495488  0.192912
    C  C47  0.485368  0.609822  0.999460  0.195607
    C  C48  0.511433  0.403748  0.004512  0.193012
    H  H5   0.915845  0.691370  0.438530  0.160622
    H  H6   0.087125  0.322482  0.557846  0.156659
    H  H7   0.584155  0.191371  0.061470  0.160616
    H  H8   0.412875  0.822483  0.942154  0.156696
    H  H9   0.916010  0.334580  0.361512  0.102665
    H  H10  0.086491  0.679482  0.634981  0.092336
    H  H11  0.583990  0.834581  0.138488  0.102656
    H  H12  0.413508  0.179482  0.865019  0.092287
    H  H13  0.993417  0.588243  0.540095  0.133915
    H  H14  0.009611  0.425404  0.455926  0.139856
    H  H15  0.506582  0.088243  0.959905  0.133963
    H  H16  0.490389  0.925404  0.044074  0.139860
    C  C49  0.522846  0.364212  0.425642  0.512195
    O  O21  0.492584  0.531944  0.427707  -0.448968
    O  O22  0.575065  0.359517  0.396249  -0.310295
    C  C50  0.602817  0.548273  0.381160  0.481987
    C  C51  0.667327  0.578966  0.432982  -0.261794
    H  H17  0.568790  0.682163  0.385115  -0.063125
    H  H18  0.611362  0.541523  0.328112  -0.090108
    H  H19  0.659043  0.555756  0.485691  0.018736
    H  H20  0.687100  0.743631  0.429261  0.059215
    H  H21  0.703346  0.457251  0.423388  0.056221
    C  C52  0.494477  0.642703  0.591516  0.646463
    O  O23  0.454457  0.644473  0.627881  -0.444441
    O  O24  0.537695  0.478662  0.596299  -0.418936
    C  C53  0.538032  0.316804  0.643436  0.484910
    C  C54  0.603893  0.313127  0.693909  -0.413208
    H  H22  0.529723  0.158983  0.616496  -0.062908
    H  H23  0.498580  0.346374  0.671682  -0.037383
    H  H24  0.643360  0.283406  0.665685  0.092321
    H  H25  0.604184  0.182238  0.732111  0.092254
    H  H26  0.612386  0.471013  0.720899  0.102695
    C  C55  0.977155  0.864210  0.074359  0.512143
    O  O25  0.007416  0.031941  0.072294  -0.448951
    O  O26  0.924935  0.859515  0.103752  -0.310247
    C  C56  0.897183  0.048271  0.118840  0.481957
    C  C57  0.832674  0.078964  0.067018  -0.261803
    H  H27  0.931210  0.182161  0.114885  -0.063118
    H  H28  0.888639  0.041522  0.171888  -0.090101
    H  H29  0.840957  0.055753  0.014309  0.018744
    H  H30  0.812901  0.243630  0.070738  0.059222
    H  H31  0.796654  0.957249  0.076612  0.056221
    C  C58  0.005523  0.142703  0.908484  0.646497
    O  O27  0.045542  0.144475  0.872118  -0.444460
    O  O28  0.962305  0.978662  0.903701  -0.418943
    C  C59  0.961967  0.816804  0.856564  0.484899
    C  C60  0.896106  0.813123  0.806092  -0.413228
    H  H32  0.970278  0.658984  0.883504  -0.062906
    H  H33  0.001419  0.846376  0.828317  -0.037377
    H  H34  0.856640  0.783407  0.834318  0.092325
    H  H35  0.895814  0.682230  0.767891  0.092266
    H  H36  0.887613  0.971007  0.779101  0.102702
