# Generated by REPEAT Assigner based on pymatgen
data_DB0-m2_o22_o27_f0_nbo.sym.42_sqe
_audit_creation_date              2022-05-24
_audit_creation_method            REPEAT_Assigner
_cell_length_a                    29.809625
_cell_length_b                    30.453562
_cell_length_c                    24.321685
_cell_angle_alpha                 90.000000
_cell_angle_beta                  127.791202
_cell_angle_gamma                 90.000000
_cell_volume                      17448.266113
_symmetry_space_group_name_H-M    P1
_symmetry_Int_Tables_number       1
loop_
    _symmetry_equiv_pos_site_id
    _symmetry_equiv_pos_as_xyz
    1  x,y,z
loop_
    _atom_site_type_symbol
    _atom_site_label
    _atom_site_fract_x
    _atom_site_fract_y
    _atom_site_fract_z
    _atom_type_partial_charge
    C   C1    0.807507  0.809479  0.498652  0.530417
    C   C2    0.312809  0.690001  0.497994  0.588293
    C   C3    0.645529  0.255699  0.289751  -0.021601
    C   C4    0.034870  0.768302  0.069598  0.966032
    C   C5    0.965130  0.768302  0.930402  0.965753
    C   C6    0.534870  0.268302  0.069598  0.966077
    C   C7    0.465130  0.268302  0.930402  0.965904
    C   C8    0.632224  0.623123  0.444695  -0.126593
    C   C9    0.367776  0.623123  0.555305  -0.126591
    C   C10   0.132224  0.123123  0.444695  -0.126673
    C   C11   0.867776  0.123123  0.555305  -0.126530
    C   C12   0.598692  0.586363  0.446081  0.030470
    C   C13   0.187191  0.190001  0.502006  0.587841
    C   C14   0.401307  0.586363  0.553919  0.030593
    C   C15   0.098692  0.086363  0.446081  0.030536
    C   C16   0.901307  0.086363  0.553919  0.030527
    C   C17   0.689750  0.629750  0.571154  -0.172157
    C   C18   0.310249  0.629750  0.428846  -0.171864
    C   C19   0.189750  0.129750  0.571154  -0.172225
    C   C20   0.810249  0.129750  0.428846  -0.171797
    C   C21   0.599478  0.674252  0.492384  -0.026694
    C   C22   0.400522  0.674252  0.507616  -0.026245
    C   C23   0.099478  0.174252  0.492384  -0.026730
    C   C24   0.812809  0.190001  0.497994  0.587940
    C   C25   0.900522  0.174252  0.507616  -0.026252
    C   C26   0.652414  0.655167  0.503515  0.096067
    C   C27   0.347586  0.655167  0.496485  0.095706
    C   C28   0.152414  0.155167  0.503515  0.096356
    C   C29   0.847586  0.155167  0.496485  0.096015
    C   C30   0.594652  0.593677  0.504685  0.224396
    C   C31   0.405348  0.593677  0.495315  0.224073
    C   C32   0.094652  0.093677  0.504685  0.224350
    C   C33   0.905348  0.093677  0.495315  0.224040
    C   C34   0.655352  0.594393  0.573882  0.294754
    C   C35   0.814743  0.752688  0.633753  0.547390
    C   C36   0.344647  0.594393  0.426118  0.294738
    C   C37   0.155352  0.094393  0.573882  0.294707
    C   C38   0.844647  0.094393  0.426118  0.294570
    C   C39   0.564296  0.637302  0.490100  -0.185458
    C   C40   0.435704  0.637302  0.509900  -0.185676
    C   C41   0.064296  0.137302  0.490100  -0.185474
    C   C42   0.935704  0.137302  0.509900  -0.185773
    C   C43   0.061600  0.938562  0.502063  0.641049
    C   C44   0.938400  0.938562  0.497937  0.640924
    C   C45   0.561600  0.438562  0.502063  0.641039
    C   C46   0.185256  0.752688  0.366247  0.547621
    C   C47   0.438400  0.438562  0.497937  0.640897
    C   C48   0.439792  0.556890  0.497361  0.501952
    C   C49   0.560207  0.556890  0.502639  0.501604
    C   C50   0.939792  0.056890  0.497361  0.502019
    C   C51   0.060207  0.056890  0.502639  0.501614
    C   C52   0.836166  0.890419  0.583493  0.621865
    C   C53   0.887189  0.876096  0.653604  -0.421278
    C   C54   0.163833  0.890419  0.416507  0.621727
    C   C55   0.112810  0.876096  0.346395  -0.421197
    C   C56   0.336166  0.390419  0.583493  0.621841
    C   C57   0.314744  0.252688  0.633753  0.547456
    C   C58   0.387189  0.376096  0.653604  -0.421299
    C   C59   0.663833  0.390419  0.416507  0.621675
    C   C60   0.612810  0.376096  0.346395  -0.421123
    C   C61   0.830599  0.962689  0.474836  0.639784
    C   C62   0.798933  0.987780  0.494048  -0.471271
    C   C63   0.169401  0.962689  0.525164  0.639751
    C   C64   0.201067  0.987780  0.505952  -0.471144
    C   C65   0.330599  0.462689  0.474836  0.639766
    C   C66   0.298933  0.487780  0.494048  -0.471277
    C   C67   0.669401  0.462689  0.525164  0.639736
    C   C68   0.685256  0.252688  0.366247  0.547583
    C   C69   0.701067  0.487780  0.505952  -0.471163
    C   C70   0.937626  0.728669  0.717163  0.641491
    C   C71   0.980833  0.755459  0.720088  -0.379711
    C   C72   0.062374  0.728669  0.282836  0.641559
    C   C73   0.019167  0.755459  0.279912  -0.379927
    C   C74   0.437626  0.228669  0.717164  0.641507
    C   C75   0.480833  0.255459  0.720088  -0.379717
    C   C76   0.562374  0.228669  0.282836  0.641593
    C   C77   0.519167  0.255459  0.279912  -0.379973
    C   C78   0.611001  0.707868  0.545196  0.655405
    C   C79   0.602385  0.778214  0.251906  -0.050664
    C   C80   0.585514  0.752696  0.522457  -0.549823
    C   C81   0.388999  0.707868  0.454804  0.655249
    C   C82   0.414486  0.752696  0.477543  -0.549569
    C   C83   0.111001  0.207868  0.545196  0.655375
    C   C84   0.085514  0.252696  0.522457  -0.549797
    C   C85   0.888999  0.207868  0.454804  0.655287
    C   C86   0.914486  0.252696  0.477543  -0.549533
    C   C87   0.633088  0.683801  0.150608  0.478989
    C   C88   0.645114  0.636820  0.172629  -0.482540
    C   C89   0.366912  0.683801  0.849392  0.479213
    C   C90   0.397615  0.778214  0.748094  -0.050605
    C   C91   0.354886  0.636820  0.827370  -0.482824
    C   C92   0.133088  0.183801  0.150608  0.478972
    C   C93   0.145114  0.136820  0.172629  -0.482504
    C   C94   0.866912  0.183801  0.849392  0.479196
    C   C95   0.854886  0.136820  0.827370  -0.482777
    C   C96   0.660505  0.600083  0.639138  0.546584
    C   C97   0.716671  0.593226  0.708275  -0.472376
    C   C98   0.339494  0.600083  0.360862  0.546590
    C   C99   0.283329  0.593226  0.291725  -0.472311
    C   C100  0.160505  0.100083  0.639138  0.546619
    C   C101  0.102385  0.278214  0.251906  -0.050745
    C   C102  0.216671  0.093226  0.708275  -0.472368
    C   C103  0.839494  0.100083  0.360862  0.546635
    C   C104  0.783329  0.093226  0.291725  -0.472323
    C   C105  0.192493  0.809479  0.501348  0.530955
    C   C106  0.897615  0.278214  0.748094  -0.050654
    C   C107  0.569071  0.778072  0.180371  0.045821
    C   C108  0.430929  0.778072  0.819629  0.045733
    C   C109  0.069071  0.278072  0.180371  0.045839
    C   C110  0.930929  0.278072  0.819629  0.045754
    C   C111  0.576522  0.746530  0.145787  -0.512233
    C   C112  0.423478  0.746530  0.854213  -0.512239
    C   C113  0.076522  0.246530  0.145787  -0.512276
    C   C114  0.923478  0.246530  0.854213  -0.512262
    C   C115  0.619031  0.715219  0.183945  0.119717
    C   C116  0.307507  0.309479  0.498652  0.530799
    C   C117  0.380969  0.715219  0.816055  0.119823
    C   C118  0.119031  0.215219  0.183945  0.119792
    C   C119  0.880969  0.215219  0.816055  0.119855
    C   C120  0.652439  0.715734  0.255741  -0.049701
    C   C121  0.347561  0.715734  0.744258  -0.049945
    C   C122  0.152439  0.215734  0.255741  -0.049827
    C   C123  0.847561  0.215734  0.744258  -0.049986
    C   C124  0.644208  0.746965  0.289973  -0.054408
    C   C125  0.355792  0.746965  0.710027  -0.054285
    C   C126  0.144208  0.246965  0.289973  -0.054225
    C   C127  0.692493  0.309479  0.501348  0.530982
    C   C128  0.855792  0.246965  0.710027  -0.054191
    C   C129  0.462726  0.746218  0.930535  0.954790
    C   C130  0.537274  0.746218  0.069465  0.954803
    C   C131  0.962726  0.246218  0.930535  0.954797
    C   C132  0.037274  0.246218  0.069465  0.954823
    C   C133  0.905450  0.831955  0.545934  -0.014715
    C   C134  0.094549  0.831955  0.454066  -0.014240
    C   C135  0.405450  0.331955  0.545934  -0.014467
    C   C136  0.594549  0.331955  0.454066  -0.014240
    C   C137  0.940719  0.869637  0.550400  -0.172644
    C   C138  0.680975  0.747656  0.366175  0.642724
    C   C139  0.059281  0.869637  0.449599  -0.172623
    C   C140  0.440719  0.369637  0.550400  -0.172765
    C   C141  0.559281  0.369637  0.449599  -0.172643
    C   C142  0.825245  0.848775  0.426044  0.014774
    C   C143  0.174754  0.848775  0.573956  0.014878
    C   C144  0.325245  0.348775  0.426044  0.014739
    C   C145  0.674754  0.348775  0.573956  0.014918
    C   C146  0.831667  0.889084  0.518105  -0.047134
    C   C147  0.168333  0.889084  0.481895  -0.046800
    C   C148  0.331667  0.389084  0.518105  -0.046886
    C   C149  0.319025  0.747656  0.633824  0.642636
    C   C150  0.668333  0.389084  0.481895  -0.046757
    C   C151  0.842845  0.844527  0.498981  0.106969
    C   C152  0.157155  0.844527  0.501019  0.105869
    C   C153  0.342845  0.344527  0.498981  0.106362
    C   C154  0.657155  0.344527  0.501019  0.105816
    C   C155  0.901912  0.904448  0.497229  0.282623
    C   C156  0.098088  0.904448  0.502770  0.282346
    C   C157  0.401912  0.404448  0.497230  0.282695
    C   C158  0.598088  0.404448  0.502770  0.282362
    C   C159  0.863504  0.881797  0.426324  -0.196907
    C   C160  0.180975  0.247656  0.366175  0.642479
    C   C161  0.136495  0.881797  0.573676  -0.196446
    C   C162  0.363504  0.381797  0.426324  -0.196796
    C   C163  0.636495  0.381797  0.573676  -0.196493
    C   C164  0.867816  0.924558  0.519080  -0.146013
    C   C165  0.132184  0.924558  0.480919  -0.146012
    C   C166  0.367816  0.424558  0.519080  -0.146025
    C   C167  0.632184  0.424558  0.480919  -0.145987
    C   C168  0.834442  0.771410  0.744924  -0.082298
    C   C169  0.165557  0.771410  0.255075  -0.082272
    C   C170  0.334442  0.271410  0.744924  -0.082238
    C   C171  0.819025  0.247656  0.633825  0.642590
    C   C172  0.665557  0.271410  0.255076  -0.082232
    C   C173  0.870113  0.775477  0.816423  0.112382
    C   C174  0.129887  0.775477  0.183577  0.112492
    C   C175  0.370113  0.275477  0.816423  0.112424
    C   C176  0.629887  0.275477  0.183577  0.112429
    C   C177  0.927047  0.765553  0.854221  -0.543756
    C   C178  0.072953  0.765553  0.145779  -0.543810
    C   C179  0.427047  0.265553  0.854221  -0.543878
    C   C180  0.572953  0.265553  0.145779  -0.543847
    C   C181  0.947676  0.751246  0.819792  0.132472
    C   C182  0.687191  0.690001  0.502006  0.588026
    C   C183  0.052324  0.751246  0.180208  0.132339
    C   C184  0.447676  0.251246  0.819792  0.132484
    C   C185  0.552324  0.251246  0.180208  0.132409
    C   C186  0.911951  0.745318  0.748679  -0.078747
    C   C187  0.088049  0.745318  0.251321  -0.078387
    C   C188  0.411951  0.245318  0.748679  -0.078584
    C   C189  0.588049  0.245318  0.251321  -0.078540
    C   C190  0.854471  0.755699  0.710249  -0.021404
    C   C191  0.145528  0.755699  0.289751  -0.021751
    C   C192  0.354471  0.255699  0.710249  -0.021590
    Cu  Cu1   0.779477  0.718734  0.501388  0.966980
    Cu  Cu2   0.466868  0.496900  0.432231  0.984142
    Cu  Cu3   0.033132  0.996900  0.567769  0.984119
    Cu  Cu4   0.966868  0.996900  0.432231  0.984113
    Cu  Cu5   0.220523  0.718734  0.498612  0.967088
    Cu  Cu6   0.279477  0.218735  0.501388  0.966957
    Cu  Cu7   0.720523  0.218734  0.498612  0.967074
    Cu  Cu8   0.714939  0.780638  0.498354  0.951583
    Cu  Cu9   0.285061  0.780638  0.501646  0.951581
    Cu  Cu10  0.214939  0.280638  0.498354  0.951577
    Cu  Cu11  0.785061  0.280638  0.501646  0.951521
    Cu  Cu12  0.533132  0.496900  0.567769  0.984119
    H   H1    0.595285  0.803181  0.277373  0.110570
    H   H2    0.313555  0.692157  0.714942  0.098318
    H   H3    0.945435  0.143839  0.473539  0.045954
    H   H4    0.709871  0.652121  0.616306  0.040835
    H   H5    0.290129  0.652121  0.383693  0.040743
    H   H6    0.209871  0.152121  0.616307  0.040844
    H   H7    0.790129  0.152121  0.383693  0.040733
    H   H8    0.888151  0.839804  0.657266  0.122864
    H   H9    0.883791  0.889186  0.693456  0.104136
    H   H10   0.926755  0.888786  0.664623  0.124578
    H   H11   0.111849  0.839804  0.342734  0.122940
    H   H12   0.116208  0.889186  0.306544  0.104107
    H   H13   0.186445  0.192157  0.285058  0.098281
    H   H14   0.073245  0.888786  0.335377  0.124622
    H   H15   0.388151  0.339804  0.657266  0.122891
    H   H16   0.383791  0.389186  0.693456  0.104140
    H   H17   0.426755  0.388786  0.664623  0.124580
    H   H18   0.611849  0.339804  0.342734  0.122901
    H   H19   0.616208  0.389186  0.306544  0.104102
    H   H20   0.573245  0.388786  0.335377  0.124590
    H   H21   0.827910  0.996262  0.550119  0.129839
    H   H22   0.762917  0.968213  0.483004  0.130621
    H   H23   0.781669  0.018307  0.462760  0.151981
    H   H24   0.813555  0.192157  0.714942  0.098326
    H   H25   0.172090  0.996262  0.449881  0.129820
    H   H26   0.237082  0.968213  0.516996  0.130565
    H   H27   0.218331  0.018307  0.537240  0.151949
    H   H28   0.327910  0.496262  0.550119  0.129838
    H   H29   0.262917  0.468213  0.483004  0.130614
    H   H30   0.281669  0.518307  0.462760  0.151991
    H   H31   0.672090  0.496262  0.449881  0.129826
    H   H32   0.737082  0.468213  0.516996  0.130569
    H   H33   0.718331  0.518307  0.537240  0.151960
    H   H34   0.982710  0.788868  0.739553  0.041014
    H   H35   0.911834  0.803269  0.523343  0.052083
    H   H36   0.969071  0.757756  0.667237  0.111100
    H   H37   0.022951  0.739470  0.755381  0.141421
    H   H38   0.017290  0.788868  0.260447  0.041047
    H   H39   0.030929  0.757756  0.332763  0.111180
    H   H40   0.977049  0.739470  0.244619  0.141466
    H   H41   0.482710  0.288868  0.739553  0.040997
    H   H42   0.469071  0.257756  0.667237  0.111082
    H   H43   0.522951  0.239470  0.755381  0.141427
    H   H44   0.517290  0.288868  0.260447  0.041063
    H   H45   0.530929  0.257756  0.332763  0.111186
    H   H46   0.088166  0.803269  0.476657  0.052044
    H   H47   0.477049  0.239470  0.244619  0.141479
    H   H48   0.560901  0.756869  0.465503  0.113952
    H   H49   0.619878  0.777562  0.549509  0.155073
    H   H50   0.556900  0.757809  0.536595  0.149889
    H   H51   0.439099  0.756869  0.534496  0.113859
    H   H52   0.380122  0.777562  0.450491  0.155005
    H   H53   0.443100  0.757809  0.463404  0.149852
    H   H54   0.060901  0.256869  0.465503  0.113948
    H   H55   0.119878  0.277562  0.549509  0.155067
    H   H56   0.056900  0.257809  0.536595  0.149884
    H   H57   0.411834  0.303269  0.523343  0.052046
    H   H58   0.939099  0.256869  0.534496  0.113855
    H   H59   0.880122  0.277562  0.450491  0.154998
    H   H60   0.943100  0.257809  0.463404  0.149834
    H   H61   0.635797  0.629732  0.209419  0.089938
    H   H62   0.690312  0.629520  0.197707  0.172390
    H   H63   0.617786  0.615647  0.126123  0.161505
    H   H64   0.364203  0.629732  0.790580  0.090078
    H   H65   0.309688  0.629520  0.802293  0.172425
    H   H66   0.382213  0.615647  0.873876  0.161541
    H   H67   0.135797  0.129732  0.209419  0.089933
    H   H68   0.588166  0.303269  0.476657  0.052047
    H   H69   0.190312  0.129520  0.197707  0.172382
    H   H70   0.117786  0.115647  0.126124  0.161490
    H   H71   0.864203  0.129732  0.790581  0.090050
    H   H72   0.809688  0.129520  0.802293  0.172418
    H   H73   0.882213  0.115647  0.873876  0.161538
    H   H74   0.749091  0.584132  0.701592  0.078375
    H   H75   0.713004  0.566432  0.736181  0.139508
    H   H76   0.729760  0.623913  0.739119  0.144464
    H   H77   0.250909  0.584132  0.298408  0.078361
    H   H78   0.286996  0.566432  0.263819  0.139487
    H   H79   0.920587  0.822460  0.598430  0.009819
    H   H80   0.270240  0.623913  0.260880  0.144461
    H   H81   0.249091  0.084132  0.701592  0.078376
    H   H82   0.213004  0.066432  0.736181  0.139502
    H   H83   0.229760  0.123913  0.739119  0.144463
    H   H84   0.750909  0.084132  0.298408  0.078367
    H   H85   0.786996  0.066432  0.263819  0.139489
    H   H86   0.770240  0.123913  0.260880  0.144459
    H   H87   0.079413  0.822460  0.401570  0.009705
    H   H88   0.420587  0.322460  0.598430  0.009801
    H   H89   0.404715  0.803181  0.722626  0.110552
    H   H90   0.579413  0.322460  0.401570  0.009718
    H   H91   0.966825  0.883663  0.603574  0.035751
    H   H92   0.033175  0.883663  0.396426  0.035782
    H   H93   0.466825  0.383663  0.603574  0.035773
    H   H94   0.533175  0.383663  0.396426  0.035796
    H   H95   0.969627  0.857153  0.539694  0.052249
    H   H96   0.030373  0.857153  0.460306  0.052211
    H   H97   0.469627  0.357153  0.539694  0.052266
    H   H98   0.530373  0.357153  0.460306  0.052211
    H   H99   0.829032  0.816569  0.407948  0.025889
    H   H100  0.095285  0.303181  0.277374  0.110596
    H   H101  0.170967  0.816569  0.592052  0.025892
    H   H102  0.329032  0.316569  0.407948  0.025910
    H   H103  0.670967  0.316569  0.592052  0.025892
    H   H104  0.890262  0.863929  0.416286  0.045502
    H   H105  0.109738  0.863929  0.583714  0.045454
    H   H106  0.390262  0.363929  0.416286  0.045477
    H   H107  0.609738  0.363929  0.583714  0.045464
    H   H108  0.787063  0.897504  0.474926  0.016272
    H   H109  0.212937  0.897504  0.525074  0.016260
    H   H110  0.287063  0.397504  0.474926  0.016252
    H   H111  0.904715  0.303181  0.722626  0.110566
    H   H112  0.712937  0.397504  0.525074  0.016250
    H   H113  0.898043  0.937024  0.572922  0.019665
    H   H114  0.101957  0.937024  0.427078  0.019724
    H   H115  0.398043  0.437024  0.572922  0.019663
    H   H116  0.601957  0.437024  0.427078  0.019721
    H   H117  0.780463  0.859728  0.389463  0.006515
    H   H118  0.219537  0.859728  0.610537  0.006449
    H   H119  0.280463  0.359728  0.389463  0.006542
    H   H120  0.719537  0.359728  0.610537  0.006447
    H   H121  0.836840  0.905378  0.383281  0.080483
    H   H122  0.535902  0.802376  0.151490  0.073579
    H   H123  0.163160  0.905378  0.616719  0.080343
    H   H124  0.336840  0.405378  0.383281  0.080446
    H   H125  0.663160  0.405378  0.616719  0.080348
    H   H126  0.790125  0.779728  0.716455  0.116318
    H   H127  0.209875  0.779728  0.283545  0.116254
    H   H128  0.290125  0.279728  0.716455  0.116296
    H   H129  0.709875  0.279728  0.283545  0.116240
    H   H130  0.852926  0.787000  0.842095  0.031836
    H   H131  0.147074  0.787000  0.157905  0.031810
    H   H132  0.352926  0.287000  0.842095  0.031821
    H   H133  0.464098  0.802376  0.848510  0.073583
    H   H134  0.647074  0.287000  0.157905  0.031803
    H   H135  0.991924  0.742680  0.848435  0.034020
    H   H136  0.008076  0.742680  0.151565  0.034032
    H   H137  0.491924  0.242680  0.848435  0.034002
    H   H138  0.508076  0.242680  0.151565  0.034021
    H   H139  0.668894  0.608638  0.450163  0.048559
    H   H140  0.331106  0.608638  0.549837  0.048600
    H   H141  0.168894  0.108638  0.450163  0.048572
    H   H142  0.831106  0.108638  0.549837  0.048573
    H   H143  0.604997  0.640470  0.394056  0.026451
    H   H144  0.035902  0.302376  0.151490  0.073576
    H   H145  0.395002  0.640470  0.605944  0.026454
    H   H146  0.104997  0.140470  0.394056  0.026446
    H   H147  0.895002  0.140470  0.605944  0.026427
    H   H148  0.555772  0.585545  0.395199  0.011676
    H   H149  0.444228  0.585545  0.604801  0.011666
    H   H150  0.055772  0.085545  0.395199  0.011667
    H   H151  0.944228  0.085545  0.604801  0.011682
    H   H152  0.619655  0.554616  0.453584  -0.043946
    H   H153  0.380345  0.554616  0.546416  -0.043927
    H   H154  0.119655  0.054616  0.453584  -0.043960
    H   H155  0.964098  0.302376  0.848510  0.073580
    H   H156  0.880345  0.054616  0.546416  -0.043914
    H   H157  0.724401  0.613507  0.573992  0.029248
    H   H158  0.275599  0.613507  0.426008  0.029272
    H   H159  0.224401  0.113507  0.573992  0.029271
    H   H160  0.775599  0.113507  0.426008  0.029247
    H   H161  0.675312  0.562558  0.578573  -0.080482
    H   H162  0.324687  0.562558  0.421426  -0.080455
    H   H163  0.175312  0.062558  0.578573  -0.080475
    H   H164  0.824687  0.062558  0.421426  -0.080409
    H   H165  0.573104  0.689795  0.440282  0.006583
    H   H166  0.686445  0.692157  0.285058  0.098246
    H   H167  0.426896  0.689795  0.559718  0.006498
    H   H168  0.073104  0.189795  0.440282  0.006587
    H   H169  0.926896  0.189795  0.559718  0.006490
    H   H170  0.523072  0.636459  0.437180  0.087320
    H   H171  0.476928  0.636459  0.562820  0.087347
    H   H172  0.023072  0.136459  0.437180  0.087319
    H   H173  0.976928  0.136459  0.562820  0.087369
    H   H174  0.554564  0.643839  0.526461  0.045925
    H   H175  0.445435  0.643839  0.473539  0.045931
    H   H176  0.054564  0.143839  0.526461  0.045945
    N   N1    0.518252  0.708034  0.034320  -0.320351
    N   N2    0.978238  0.768428  0.034399  -0.388629
    N   N3    0.521762  0.268428  0.965601  -0.388572
    N   N4    0.478238  0.268428  0.034399  -0.388647
    N   N5    0.056243  0.768627  0.034380  -0.318233
    N   N6    0.943756  0.768627  0.965620  -0.317928
    N   N7    0.556243  0.268627  0.034380  -0.318146
    N   N8    0.443756  0.268627  0.965620  -0.317941
    N   N9    0.481747  0.708034  0.965680  -0.320558
    N   N10   0.018252  0.208034  0.034320  -0.320357
    N   N11   0.981747  0.208034  0.965680  -0.320561
    N   N12   0.481779  0.784399  0.965654  -0.357838
    N   N13   0.518221  0.784399  0.034346  -0.357933
    N   N14   0.981779  0.284399  0.965654  -0.357837
    N   N15   0.018221  0.284399  0.034346  -0.357936
    N   N16   0.021762  0.768428  0.965600  -0.388422
    O   O1    0.821484  0.768137  0.501720  -0.629693
    O   O2    0.276714  0.719809  0.599801  -0.591250
    O   O3    0.223286  0.219809  0.400199  -0.591209
    O   O4    0.776714  0.219809  0.599801  -0.591228
    O   O5    0.670606  0.776266  0.397414  -0.604731
    O   O6    0.329393  0.776266  0.602586  -0.604749
    O   O7    0.170606  0.276266  0.397414  -0.604677
    O   O8    0.829393  0.276266  0.602586  -0.604767
    O   O9    0.731418  0.677824  0.506060  -0.575592
    O   O10   0.268582  0.677824  0.493940  -0.575701
    O   O11   0.231418  0.177824  0.506060  -0.575665
    O   O12   0.178516  0.768137  0.498279  -0.629854
    O   O13   0.768582  0.177824  0.493940  -0.575658
    O   O14   0.675169  0.731300  0.502266  -0.576935
    O   O15   0.324830  0.731300  0.497734  -0.577201
    O   O16   0.175169  0.231300  0.502266  -0.576904
    O   O17   0.824831  0.231300  0.497734  -0.577044
    O   O18   0.824396  0.723718  0.602270  -0.471387
    O   O19   0.175604  0.723718  0.397730  -0.471383
    O   O20   0.324396  0.223718  0.602270  -0.471324
    O   O21   0.675604  0.223718  0.397730  -0.471386
    O   O22   0.770742  0.779298  0.599695  -0.535365
    O   O23   0.321484  0.268137  0.501721  -0.629759
    O   O24   0.229257  0.779298  0.400305  -0.535483
    O   O25   0.270742  0.279298  0.599695  -0.535379
    O   O26   0.729257  0.279298  0.400305  -0.535464
    O   O27   0.064733  0.943818  0.558342  -0.620438
    O   O28   0.935267  0.943818  0.441658  -0.620392
    O   O29   0.564733  0.443818  0.558342  -0.620426
    O   O30   0.435267  0.443818  0.441658  -0.620421
    O   O31   0.027188  0.961658  0.444423  -0.657956
    O   O32   0.972812  0.961658  0.555577  -0.657933
    O   O33   0.527188  0.461658  0.444423  -0.657959
    O   O34   0.678516  0.268137  0.498279  -0.629861
    O   O35   0.472812  0.461658  0.555577  -0.657911
    O   O36   0.491382  0.550129  0.555860  -0.580348
    O   O37   0.508617  0.550129  0.444140  -0.580283
    O   O38   0.991382  0.050129  0.555860  -0.580347
    O   O39   0.008617  0.050129  0.444140  -0.580275
    O   O40   0.417143  0.532265  0.441416  -0.530619
    O   O41   0.582857  0.532265  0.558584  -0.530571
    O   O42   0.917143  0.032265  0.441416  -0.530620
    O   O43   0.082857  0.032265  0.558584  -0.530570
    O   O44   0.795730  0.904459  0.578992  -0.525741
    O   O45   0.766076  0.821635  0.500069  -0.528230
    O   O46   0.204270  0.904459  0.421008  -0.525779
    O   O47   0.295730  0.404459  0.578992  -0.525743
    O   O48   0.704270  0.404459  0.421008  -0.525770
    O   O49   0.827450  0.974902  0.424875  -0.498656
    O   O50   0.172550  0.974902  0.575125  -0.498648
    O   O51   0.327450  0.474902  0.424875  -0.498649
    O   O52   0.672550  0.474902  0.575125  -0.498647
    O   O53   0.928732  0.690993  0.695838  -0.510764
    O   O54   0.071268  0.690993  0.304162  -0.510816
    O   O55   0.428732  0.190993  0.695838  -0.510797
    O   O56   0.233924  0.821635  0.499931  -0.528211
    O   O57   0.571268  0.190993  0.304162  -0.510816
    O   O58   0.638257  0.698341  0.606535  -0.515985
    O   O59   0.361743  0.698341  0.393465  -0.515970
    O   O60   0.138257  0.198341  0.606535  -0.515978
    O   O61   0.861743  0.198341  0.393465  -0.515991
    O   O62   0.636973  0.696353  0.106053  -0.453234
    O   O63   0.363027  0.696353  0.893946  -0.453324
    O   O64   0.136973  0.196353  0.106053  -0.453239
    O   O65   0.863027  0.196353  0.893946  -0.453324
    O   O66   0.619463  0.608408  0.636992  -0.512413
    O   O67   0.266076  0.321635  0.500069  -0.528289
    O   O68   0.380537  0.608408  0.363008  -0.512462
    O   O69   0.119463  0.108408  0.636992  -0.512424
    O   O70   0.880537  0.108408  0.363008  -0.512462
    O   O71   0.733924  0.321635  0.499931  -0.528193
    O   O72   0.723285  0.719809  0.400199  -0.591350
