# Generated by REPEAT Assigner based on pymatgen
data_DB0-m3_o24_o109_f0_fsc.sym.20
_audit_creation_date              2022-05-24
_audit_creation_method            REPEAT_Assigner
_cell_length_a                    9.136574
_cell_length_b                    10.911617
_cell_length_c                    10.849915
_cell_angle_alpha                 90.000000
_cell_angle_beta                  90.072159
_cell_angle_gamma                 90.000000
_cell_volume                      1081.679122
_symmetry_space_group_name_H-M    P1
_symmetry_Int_Tables_number       1
loop_
    _symmetry_equiv_pos_site_id
    _symmetry_equiv_pos_as_xyz
    1  x,y,z
loop_
    _atom_site_type_symbol
    _atom_site_label
    _atom_site_fract_x
    _atom_site_fract_y
    _atom_site_fract_z
    _atom_type_partial_charge
    C   C1   0.979924  0.257816  0.783003  -0.002335
    C   C2   0.020076  0.742184  0.216998  -0.002556
    C   C3   0.970703  0.256283  0.218644  -0.069862
    C   C4   0.029297  0.743717  0.781357  -0.069883
    C   C5   0.948376  0.314491  0.892101  -0.235339
    C   C6   0.051624  0.685509  0.107900  -0.235196
    C   C7   0.943292  0.313632  0.109044  -0.030279
    C   C8   0.056708  0.686368  0.890957  -0.030226
    C   C9   0.955413  0.250180  0.000454  0.058402
    C   C10  0.044587  0.749820  0.999547  0.058261
    C   C11  0.002630  0.133176  0.780125  -0.223306
    C   C12  0.997370  0.866824  0.219875  -0.222958
    C   C13  0.994380  0.131665  0.221010  -0.153916
    C   C14  0.005620  0.868335  0.778990  -0.153859
    C   C15  0.994936  0.064076  0.888437  0.084083
    C   C16  0.005064  0.935924  0.111564  0.083777
    C   C17  0.990616  0.063295  0.111949  -0.033551
    C   C18  0.009384  0.936705  0.888051  -0.033708
    C   C19  0.980113  0.125190  0.000272  0.066029
    C   C20  0.019887  0.874810  0.999729  0.066223
    Zn  Zn1  0.837371  0.511775  0.502303  0.959152
    Zn  Zn2  0.162629  0.488225  0.497698  0.959138
    C   C21  0.571915  0.401605  0.499379  0.040534
    C   C22  0.428085  0.598395  0.500621  0.040529
    C   C23  0.454113  0.436099  0.590157  -0.028628
    C   C24  0.545887  0.563901  0.409843  -0.028611
    C   C25  0.466321  0.444675  0.403760  -0.102673
    C   C26  0.533679  0.555325  0.596240  -0.102658
    H   H1   0.633627  0.314168  0.497693  0.066613
    H   H2   0.366373  0.685832  0.502307  0.066608
    H   H3   0.415117  0.380169  0.668862  0.106011
    H   H4   0.584883  0.619831  0.331139  0.106005
    N   N1   0.354593  0.478762  0.493283  0.134405
    N   N2   0.645407  0.521238  0.506717  0.134390
    H   H5   0.029487  0.094360  0.691869  0.104007
    H   H6   0.970513  0.905640  0.308131  0.103921
    H   H7   0.019314  0.092302  0.309484  0.134210
    H   H8   0.980686  0.907698  0.690516  0.134202
    H   H9   0.928343  0.411953  0.892977  0.155172
    H   H10  0.071657  0.588047  0.107024  0.155154
    H   H11  0.924013  0.411198  0.108204  0.076661
    H   H12  0.075987  0.588802  0.891796  0.076646
    O   O1   0.119440  0.365935  0.632247  -0.710090
    O   O2   0.880560  0.634065  0.367753  -0.710090
    O   O3   0.861633  0.384698  0.369040  -0.584074
    O   O4   0.138367  0.615302  0.630961  -0.584073
    O   O5   0.867491  0.380641  0.630481  -0.693243
    O   O6   0.132509  0.619359  0.369519  -0.693233
    O   O7   0.112561  0.359693  0.371023  -0.587078
    O   O8   0.887439  0.640307  0.628978  -0.587083
    C   C27  0.989481  0.333433  0.672462  0.812143
    C   C28  0.010519  0.666567  0.327539  0.812167
    C   C29  0.981575  0.332056  0.329236  0.645081
    C   C30  0.018425  0.667944  0.670765  0.645075
    C   C31  0.431464  0.375565  0.286217  0.766507
    F   F1   0.558295  0.361405  0.218423  -0.268248
    F   F2   0.330674  0.440841  0.217468  -0.240592
    F   F3   0.375780  0.261303  0.314781  -0.245712
    C   C32  0.568536  0.624435  0.713783  0.766495
    F   F4   0.441705  0.638595  0.781577  -0.268246
    F   F5   0.624220  0.738697  0.685220  -0.245706
    F   F6   0.669326  0.559159  0.782533  -0.240592
