# generated using pymatgen
data_ZnH13C24NO6
_symmetry_space_group_name_H-M   'P 1'
_cell_length_a   8.92951000
_cell_length_b   17.77878600
_cell_length_c   16.58952700
_cell_angle_alpha   90.00046200
_cell_angle_beta   97.77806600
_cell_angle_gamma   90.00441500
_symmetry_Int_Tables_number   1
_chemical_formula_structural   ZnH13C24NO6
_chemical_formula_sum   'Zn2 H26 C48 N2 O12'
_cell_volume   2609.45378096
_cell_formula_units_Z   2
loop_
 _symmetry_equiv_pos_site_id
 _symmetry_equiv_pos_as_xyz
  1  'x, y, z'
loop_
 _atom_site_type_symbol
 _atom_site_label
 _atom_site_symmetry_multiplicity
 _atom_site_fract_x
 _atom_site_fract_y
 _atom_site_fract_z
 _atom_site_occupancy
  Zn  Zn1  1  0.50422600  0.49785800  0.59085200  1
  Zn  Zn2  1  0.50014100  0.50035100  0.40720100  1
  H  H1  1  0.98241300  0.49801600  0.40571000  1
  H  H2  1  0.02191400  0.49994000  0.59230800  1
  H  H3  1  0.38538000  0.87989700  0.60387200  1
  H  H4  1  0.61511200  0.11955700  0.39122200  1
  H  H5  1  0.60284100  0.73628200  0.39498800  1
  H  H6  1  0.40278800  0.26142300  0.60324700  1
  H  H7  1  0.60778900  0.87359000  0.39353800  1
  H  H8  1  0.39708800  0.12407000  0.60355600  1
  H  H9  1  0.32819900  0.41802100  0.70399700  1
  H  H10  1  0.67713800  0.57966600  0.29414000  1
  H  H11  1  0.68535000  0.57356200  0.73257900  1
  H  H12  1  0.31805800  0.42522700  0.26538400  1
  H  H13  1  0.68681600  0.57307900  0.88078500  1
  H  H14  1  0.31660700  0.42574000  0.11718000  1
  H  H15  1  0.39744100  0.80813000  0.72576900  1
  H  H16  1  0.21021000  0.71625300  0.78967000  1
  H  H17  1  0.11853700  0.61618600  0.67639200  1
  H  H18  1  0.79408700  0.34982700  0.45381300  1
  H  H19  1  0.90983700  0.37426300  0.31664800  1
  H  H20  1  0.77941600  0.27676200  0.20964100  1
  H  H21  1  0.42245200  0.36024400  0.97695200  1
  H  H22  1  0.17138000  0.28381500  0.98432100  1
  H  H23  1  0.99117900  0.31200200  0.84830100  1
  H  H24  1  0.58364400  0.63777500  0.02126000  1
  H  H25  1  0.83571700  0.71338700  0.01396000  1
  H  H26  1  0.01556700  0.68459400  0.14993900  1
  C  C1  1  0.50945000  0.35187200  0.49690800  1
  C  C2  1  0.49485300  0.64636000  0.50116100  1
  C  C3  1  0.20655400  0.49700500  0.47910500  1
  C  C4  1  0.79780400  0.50117700  0.51894200  1
  C  C5  1  0.04092800  0.49804900  0.46733800  1
  C  C6  1  0.96341500  0.50002800  0.53068900  1
  C  C7  1  0.43582900  0.84734700  0.55960300  1
  C  C8  1  0.56646900  0.15134400  0.43678900  1
  C  C9  1  0.42882600  0.76965800  0.56020600  1
  C  C10  1  0.57551200  0.22888400  0.43749600  1
  C  C11  1  0.49086300  0.72891600  0.50117900  1
  C  C12  1  0.51406600  0.26935900  0.49685900  1
  C  C13  1  0.55388400  0.76694800  0.44124200  1
  C  C14  1  0.45116600  0.23101100  0.55661200  1
  C  C15  1  0.55817800  0.84439400  0.44059000  1
  C  C16  1  0.44627500  0.15355000  0.55654300  1
  C  C17  1  0.49963000  0.88455600  0.49993000  1
  C  C18  1  0.50319800  0.11372800  0.49638700  1
  C  C19  1  0.50086800  0.96525500  0.49842200  1
  C  C20  1  0.50156000  0.03302400  0.49734300  1
  C  C21  1  0.40753000  0.44847800  0.82695600  1
  C  C22  1  0.59744000  0.54946800  0.17115000  1
  C  C23  1  0.40719300  0.45186100  0.74373600  1
  C  C24  1  0.59772400  0.54607500  0.25436500  1
  C  C25  1  0.60680700  0.53826900  0.75943000  1
  C  C26  1  0.39703700  0.46028500  0.23857500  1
  C  C27  1  0.60832700  0.53768700  0.84258000  1
  C  C28  1  0.39552900  0.46088500  0.15542600  1
  C  C29  1  0.50823700  0.49279900  0.87686300  1
  C  C30  1  0.49618500  0.50546700  0.12119400  1
  C  C31  1  0.50388500  0.49707300  0.96289400  1
  C  C32  1  0.50051600  0.50118700  0.03516100  1
  C  C33  1  0.34495300  0.73320100  0.61955000  1
  C  C34  1  0.33864800  0.76012900  0.69667300  1
  C  C35  1  0.24325400  0.71325100  0.72942600  1
  C  C36  1  0.19665600  0.66149500  0.66983400  1
  C  C37  1  0.65990100  0.26494000  0.37829100  1
  C  C38  1  0.76285800  0.32206800  0.39601800  1
  C  C39  1  0.82335500  0.33399700  0.32634600  1
  C  C40  1  0.75482200  0.28272500  0.27135700  1
  C  C41  1  0.29810700  0.39947800  0.85953800  1
  C  C42  1  0.32188000  0.36208700  0.93282800  1
  C  C43  1  0.19418600  0.32149100  0.93630500  1
  C  C44  1  0.10194000  0.33638200  0.86499600  1
  C  C45  1  0.70749300  0.59812200  0.13862300  1
  C  C46  1  0.68419900  0.63560000  0.06537600  1
  C  C47  1  0.81242300  0.67578000  0.06193600  1
  C  C48  1  0.90448500  0.66057800  0.13322400  1
  N  N1  1  0.50648000  0.49587800  0.71149200  1
  N  N2  1  0.49789300  0.50235600  0.28656200  1
  O  O1  1  0.50778900  0.38619000  0.56684200  1
  O  O2  1  0.49647400  0.61201600  0.43123200  1
  O  O3  1  0.50438800  0.38794700  0.42754600  1
  O  O4  1  0.50021100  0.61025500  0.57049800  1
  O  O5  1  0.27864200  0.49647200  0.55346500  1
  O  O6  1  0.72571700  0.50182200  0.44458800  1
  O  O7  1  0.27539800  0.49807400  0.41411100  1
  O  O8  1  0.72897000  0.50006200  0.58394000  1
  O  O9  1  0.25726600  0.67363600  0.60239800  1
  O  O10  1  0.65643100  0.23975000  0.30292800  1
  O  O11  1  0.16499800  0.38337700  0.81759700  1
  O  O12  1  0.84081900  0.61378300  0.18057500  1
