# generated using pymatgen
data_ZnH17C31NO6
_symmetry_space_group_name_H-M   'P 1'
_cell_length_a   17.51277700
_cell_length_b   8.54393200
_cell_length_c   19.36192400
_cell_angle_alpha   90.00000000
_cell_angle_beta   91.03061400
_cell_angle_gamma   90.00000000
_symmetry_Int_Tables_number   1
_chemical_formula_structural   ZnH17C31NO6
_chemical_formula_sum   'Zn2 H34 C62 N2 O12'
_cell_volume   2896.61682688
_cell_formula_units_Z   2
loop_
 _symmetry_equiv_pos_site_id
 _symmetry_equiv_pos_as_xyz
  1  'x, y, z'
loop_
 _atom_site_type_symbol
 _atom_site_label
 _atom_site_symmetry_multiplicity
 _atom_site_fract_x
 _atom_site_fract_y
 _atom_site_fract_z
 _atom_site_occupancy
  Zn  Zn1  1  0.91478700  0.49109400  0.49887700  1
  Zn  Zn2  1  0.08521300  0.49109400  0.50112300  1
  H  H1  1  0.02649800  0.99121800  0.54985800  1
  H  H2  1  0.97350200  0.99121800  0.45014200  1
  H  H3  1  0.98530300  0.24346200  0.73224600  1
  H  H4  1  0.02915400  0.74041900  0.27009600  1
  H  H5  1  0.01469700  0.24346200  0.26775400  1
  H  H6  1  0.97084600  0.74041900  0.72990400  1
  H  H7  1  0.96104200  0.75732200  0.04847200  1
  H  H8  1  0.95028100  0.22138500  0.95644500  1
  H  H9  1  0.03895900  0.75732200  0.95152800  1
  H  H10  1  0.04971900  0.22138500  0.04355500  1
  H  H11  1  0.96938300  0.75685800  0.17228200  1
  H  H12  1  0.93508800  0.21949400  0.83196000  1
  H  H13  1  0.03061700  0.75685800  0.82771800  1
  H  H14  1  0.06491200  0.21949400  0.16804000  1
  H  H15  1  0.67982900  0.49711900  0.32492800  1
  H  H16  1  0.32017100  0.49711900  0.67507200  1
  H  H17  1  0.69509400  0.48557600  0.66876100  1
  H  H18  1  0.30490600  0.48557600  0.33123900  1
  H  H19  1  0.56081000  0.49384900  0.26554700  1
  H  H20  1  0.43919000  0.49384900  0.73445300  1
  H  H21  1  0.42121700  0.48913900  0.26753000  1
  H  H22  1  0.57878300  0.48913900  0.73247000  1
  H  H23  1  0.81080600  0.48434400  0.60469400  1
  H  H24  1  0.18919400  0.48434400  0.39530600  1
  H  H25  1  0.79817700  0.59450500  0.23772600  1
  H  H26  1  0.89486900  0.63522000  0.26737300  1
  H  H27  1  0.76425600  0.87497800  0.25608500  1
  H  H28  1  0.83919300  0.85096100  0.19396500  1
  H  H29  1  0.86239200  0.91497800  0.28109400  1
  H  H30  1  0.20182300  0.59450500  0.76227400  1
  H  H31  1  0.10513100  0.63522000  0.73262700  1
  H  H32  1  0.23574400  0.87497800  0.74391500  1
  H  H33  1  0.16080700  0.85096100  0.80603500  1
  H  H34  1  0.13760800  0.91497800  0.71890600  1
  C  C1  1  0.99956200  0.13042800  0.63637400  1
  C  C2  1  0.00122300  0.85197300  0.36389200  1
  C  C3  1  0.00043800  0.13042800  0.36362600  1
  C  C4  1  0.99877700  0.85197300  0.63610800  1
  C  C5  1  0.98718100  0.13170100  0.70655000  1
  C  C6  1  0.01772000  0.85119900  0.29454800  1
  C  C7  1  0.01281900  0.13170100  0.29345000  1
  C  C8  1  0.98228000  0.85119900  0.70545200  1
  C  C9  1  0.98232000  0.99086100  0.74252300  1
  C  C10  1  0.01768000  0.99086100  0.25747700  1
  C  C11  1  0.01145500  0.99117000  0.60331000  1
  C  C12  1  0.98854500  0.99117000  0.39669000  1
  C  C13  1  0.98457700  0.85858700  0.07464100  1
  C  C14  1  0.96776100  0.11924800  0.92784200  1
  C  C15  1  0.01542300  0.85858700  0.92535900  1
  C  C16  1  0.03223900  0.11924800  0.07215800  1
  C  C17  1  0.99024900  0.85847900  0.14565000  1
  C  C18  1  0.95965800  0.11785900  0.85673600  1
  C  C19  1  0.00975100  0.85847900  0.85435000  1
  C  C20  1  0.04034200  0.11785900  0.14326400  1
  C  C21  1  0.01805900  0.98821300  0.18106300  1
  C  C22  1  0.98194100  0.98821300  0.81893700  1
  C  C23  1  0.00423300  0.98965500  0.03765300  1
  C  C24  1  0.99576700  0.98965500  0.96234700  1
  C  C25  1  0.99904200  0.70972600  0.59429900  1
  C  C26  1  0.00068600  0.27267200  0.40552900  1
  C  C27  1  0.00095800  0.70972600  0.40570100  1
  C  C28  1  0.99931400  0.27267200  0.59447100  1
  C  C29  1  0.77409300  0.49676800  0.43588200  1
  C  C30  1  0.22590700  0.49676800  0.56411800  1
  C  C31  1  0.77808200  0.48689600  0.55686100  1
  C  C32  1  0.22191800  0.48689600  0.44313900  1
  C  C33  1  0.65268700  0.49599000  0.37454300  1
  C  C34  1  0.34731300  0.49599000  0.62545700  1
  C  C35  1  0.69489600  0.49464000  0.43588200  1
  C  C36  1  0.30510400  0.49464000  0.56411800  1
  C  C37  1  0.65751300  0.49071800  0.49773800  1
  C  C38  1  0.34248700  0.49071800  0.50226200  1
  C  C39  1  0.69931200  0.48808800  0.55853900  1
  C  C40  1  0.30068800  0.48808800  0.44146200  1
  C  C41  1  0.66236000  0.48702500  0.62089500  1
  C  C42  1  0.33764000  0.48702500  0.37910500  1
  C  C43  1  0.53219600  0.49259900  0.31455100  1
  C  C44  1  0.46780400  0.49259900  0.68544900  1
  C  C45  1  0.57396900  0.49332000  0.37570300  1
  C  C46  1  0.42603100  0.49332000  0.62429700  1
  C  C47  1  0.53696600  0.49146700  0.43784300  1
  C  C48  1  0.46303400  0.49146700  0.56215700  1
  C  C49  1  0.45353300  0.48993200  0.31562700  1
  C  C50  1  0.54646700  0.48993200  0.68437300  1
  C  C51  1  0.41642900  0.48900500  0.37786400  1
  C  C52  1  0.58357200  0.48900500  0.62213600  1
  C  C53  1  0.57876300  0.49066100  0.49886100  1
  C  C54  1  0.42123700  0.49066100  0.50113900  1
  C  C55  1  0.54178300  0.49017100  0.56106500  1
  C  C56  1  0.45821700  0.49017100  0.43893500  1
  C  C57  1  0.81285600  0.51432800  0.37003000  1
  C  C58  1  0.83419600  0.67023400  0.27154100  1
  C  C59  1  0.82448100  0.83901700  0.24916200  1
  C  C60  1  0.18714400  0.51432800  0.62997000  1
  C  C61  1  0.16580400  0.67023400  0.72845900  1
  C  C62  1  0.17551900  0.83901700  0.75083800  1
  N  N1  1  0.81452700  0.49088200  0.49614500  1
  N  N2  1  0.18547300  0.49088200  0.50385500  1
  O  O1  1  0.06476000  0.66060100  0.57087600  1
  O  O2  1  0.93525800  0.32141900  0.42929300  1
  O  O3  1  0.93524100  0.66060100  0.42912400  1
  O  O4  1  0.06474300  0.32141900  0.57070700  1
  O  O5  1  0.93293600  0.65453500  0.57247500  1
  O  O6  1  0.06688600  0.32770600  0.42746900  1
  O  O7  1  0.06706400  0.65453500  0.42752500  1
  O  O8  1  0.93311400  0.32770600  0.57253100  1
  O  O9  1  0.83333900  0.39887300  0.33835300  1
  O  O10  1  0.81172000  0.65496700  0.33860600  1
  O  O11  1  0.16666100  0.39887300  0.66164700  1
  O  O12  1  0.18828000  0.65496700  0.66139400  1
