# generated using pymatgen
data_ZnH10C22NO4F
_symmetry_space_group_name_H-M   'P 1'
_cell_length_a   16.12803300
_cell_length_b   14.98534000
_cell_length_c   11.00221300
_cell_angle_alpha   90.00000000
_cell_angle_beta   89.99006900
_cell_angle_gamma   90.00000000
_symmetry_Int_Tables_number   1
_chemical_formula_structural   ZnH10C22NO4F
_chemical_formula_sum   'Zn2 H20 C44 N2 O8 F2'
_cell_volume   2659.05944528
_cell_formula_units_Z   2
loop_
 _symmetry_equiv_pos_site_id
 _symmetry_equiv_pos_as_xyz
  1  'x, y, z'
loop_
 _atom_site_type_symbol
 _atom_site_label
 _atom_site_symmetry_multiplicity
 _atom_site_fract_x
 _atom_site_fract_y
 _atom_site_fract_z
 _atom_site_occupancy
  Zn  Zn1  1  0.50000000  0.59709600  0.50000000  1
  Zn  Zn2  1  0.50000000  0.39462200  0.50000000  1
  H  H1  1  0.50414000  0.35643600  0.10954100  1
  H  H2  1  0.49585900  0.35643600  0.89045900  1
  H  H3  1  0.57591600  0.66332100  0.19134200  1
  H  H4  1  0.42408600  0.66332200  0.80865900  1
  H  H5  1  0.54074000  0.80163800  0.09431600  1
  H  H6  1  0.45926200  0.80163800  0.90568500  1
  H  H7  1  0.07619400  0.63797400  0.49534500  1
  H  H8  1  0.92380600  0.63797400  0.50465500  1
  H  H9  1  0.92380700  0.35363100  0.50464700  1
  H  H10  1  0.07619300  0.35363100  0.49535400  1
  H  H11  1  0.40372200  0.07900600  0.36841700  1
  H  H12  1  0.59627800  0.07900600  0.63158300  1
  H  H13  1  0.32542400  0.83433600  0.49455300  1
  H  H14  1  0.22499900  0.75927700  0.36233300  1
  H  H15  1  0.32736600  0.89154100  0.05437400  1
  H  H16  1  0.42897900  0.96592600  0.18555200  1
  H  H17  1  0.67457600  0.83433600  0.50544700  1
  H  H18  1  0.77500100  0.75927700  0.63766600  1
  H  H19  1  0.67263500  0.89154100  0.94562600  1
  H  H20  1  0.57102100  0.96592600  0.81444800  1
  C  C1  1  0.33804500  0.49584900  0.48898100  1
  C  C2  1  0.66195500  0.49584900  0.51101900  1
  C  C3  1  0.50955100  0.49651700  0.26122400  1
  C  C4  1  0.49044900  0.49651700  0.73877600  1
  C  C5  1  0.53889000  0.65983800  0.11003400  1
  C  C6  1  0.46111200  0.65983800  0.88996600  1
  C  C7  1  0.52207100  0.73933300  0.05305600  1
  C  C8  1  0.47793200  0.73933300  0.94694400  1
  C  C9  1  0.48719500  0.57901600  0.93978100  1
  C  C10  1  0.51280600  0.57901600  0.06021900  1
  C  C11  1  0.51233600  0.49881700  0.12608400  1
  C  C12  1  0.48766400  0.49881800  0.87391600  1
  C  C13  1  0.50350000  0.41973300  0.06253700  1
  C  C14  1  0.49650000  0.41973300  0.93746300  1
  C  C15  1  0.95728800  0.57549700  0.50273300  1
  C  C16  1  0.04271200  0.57549700  0.49726600  1
  C  C17  1  0.91457500  0.49580200  0.50557500  1
  C  C18  1  0.08542500  0.49580200  0.49442500  1
  C  C19  1  0.95728800  0.41610800  0.50273100  1
  C  C20  1  0.04271200  0.41610800  0.49726900  1
  C  C21  1  0.82563700  0.49580500  0.50962200  1
  C  C22  1  0.17436300  0.49580500  0.49037800  1
  C  C23  1  0.24906900  0.49581800  0.48853300  1
  C  C24  1  0.75093100  0.49581800  0.51146700  1
  C  C25  1  0.44493200  0.95018400  0.42651600  1
  C  C26  1  0.55506800  0.95018400  0.57348400  1
  C  C27  1  0.50000000  0.90376800  0.50000000  1
  C  C28  1  0.55373400  0.04230800  0.57443600  1
  C  C29  1  0.44626600  0.04230800  0.42556400  1
  C  C30  1  0.50000000  0.08818700  0.50000000  1
  C  C31  1  0.50000000  0.80778800  0.50000000  1
  C  C32  1  0.50000000  0.18394900  0.50000000  1
  C  C33  1  0.38544200  0.90337700  0.34838900  1
  C  C34  1  0.32727500  0.84596400  0.39762100  1
  C  C35  1  0.27025100  0.80422900  0.32353000  1
  C  C36  1  0.27052600  0.82023300  0.20019000  1
  C  C37  1  0.32745200  0.87854200  0.15101800  1
  C  C38  1  0.38444200  0.92043900  0.22498900  1
  C  C39  1  0.61455800  0.90337700  0.65161100  1
  C  C40  1  0.67272500  0.84596400  0.60237900  1
  C  C41  1  0.72974900  0.80422900  0.67647000  1
  C  C42  1  0.72947400  0.82023300  0.79980900  1
  C  C43  1  0.67254800  0.87854200  0.84898100  1
  C  C44  1  0.61555800  0.92043900  0.77501100  1
  N  N1  1  0.50000000  0.26115800  0.50000000  1
  N  N2  1  0.50000000  0.73056100  0.50000000  1
  O  O1  1  0.37655400  0.57274000  0.49253400  1
  O  O2  1  0.62344600  0.57274000  0.50746500  1
  O  O3  1  0.37662200  0.41895600  0.49029000  1
  O  O4  1  0.62337800  0.41895600  0.50971000  1
  O  O5  1  0.50509500  0.57235400  0.31950900  1
  O  O6  1  0.49490500  0.57235400  0.68049100  1
  O  O7  1  0.50695200  0.41926700  0.31879100  1
  O  O8  1  0.49304800  0.41926700  0.68120900  1
  F  F1  1  0.21442500  0.77925900  0.12747300  1
  F  F2  1  0.78557600  0.77925800  0.87252700  1
