# Generated by REPEAT Assigner based on pymatgen
data_DB0-m9_o23_o25_f0_sra.sym.151
_audit_creation_date              2022-05-24
_audit_creation_method            REPEAT_Assigner
_cell_length_a                    6.705788
_cell_length_b                    20.223489
_cell_length_c                    23.685709
_cell_angle_alpha                 90.067724
_cell_angle_beta                  90.010159
_cell_angle_gamma                 90.004124
_cell_volume                      3212.121846
_symmetry_space_group_name_H-M    P1
_symmetry_Int_Tables_number       1
loop_
    _symmetry_equiv_pos_site_id
    _symmetry_equiv_pos_as_xyz
    1  x,y,z
loop_
    _atom_site_type_symbol
    _atom_site_label
    _atom_site_fract_x
    _atom_site_fract_y
    _atom_site_fract_z
    _atom_type_partial_charge
    O  O1   0.492359  0.444085  0.439708  -0.554790
    O  O2   0.833298  0.430504  0.559050  -0.537154
    O  O3   0.992430  0.554326  0.562259  -0.570606
    C  C1   0.658964  0.420314  0.581283  0.661590
    O  O4   0.833276  0.429952  0.443270  -0.533818
    O  O5   0.992421  0.553698  0.439372  -0.533823
    C  C2   0.658898  0.419824  0.421147  0.696311
    O  O6   0.492465  0.444657  0.562605  -0.551432
    O  O7   0.666961  0.540729  0.500894  -0.474234
    V  V1   0.940883  0.490727  0.501001  1.399097
    O  O8   0.333282  0.567871  0.442932  -0.566840
    C  C3   0.158940  0.577923  0.420641  0.739105
    O  O9   0.333314  0.568452  0.558712  -0.569163
    C  C4   0.158808  0.578751  0.580759  0.719904
    V  V2   0.440887  0.507657  0.500992  1.460566
    O  O10  0.166778  0.457656  0.501100  -0.491181
    C  C5   0.025646  0.730260  0.792451  -0.129288
    C  C6   0.215709  0.708138  0.764688  -0.290142
    H  H1   0.440246  0.796570  0.773104  0.060875
    C  C7   0.145797  0.626418  0.625398  -0.014670
    C  C8   0.080298  0.886737  0.873883  -0.055566
    C  C9   0.924318  0.736943  0.735541  -0.166419
    C  C10  0.117465  0.715298  0.708119  0.761372
    C  C11  0.996262  0.808503  0.732092  -0.152747
    C  C12  0.096203  0.800539  0.788872  0.665588
    C  C13  0.189199  0.785969  0.703870  -0.194415
    C  C14  0.289258  0.778838  0.761435  -0.085320
    C  C15  0.133275  0.666563  0.662784  -0.487115
    C  C16  0.085033  0.847996  0.835292  -0.440211
    H  H2   0.256921  0.808315  0.665678  0.081161
    H  H3   0.905157  0.851744  0.719338  0.070060
    H  H4   0.773589  0.718496  0.724425  0.090141
    C  C17  0.280354  0.805119  0.242339  -0.048625
    C  C18  0.914065  0.795014  0.243757  -0.000744
    C  C19  0.937455  0.750861  0.294945  -0.207188
    H  H5   0.320137  0.778213  0.329659  0.051937
    H  H6   0.260185  0.854376  0.262157  0.042521
    H  H7   0.781085  0.779611  0.219247  0.114227
    H  H8   0.895619  0.847010  0.257736  0.014309
    H  H9   0.952005  0.781959  0.333324  0.017461
    H  H10  0.804623  0.718635  0.299211  0.006713
    C  C20  0.147256  0.624008  0.374604  -0.127338
    C  C21  0.097872  0.789188  0.207032  0.233594
    C  C22  0.304696  0.753437  0.288092  -0.214057
    C  C23  0.123302  0.708892  0.288506  0.749699
    C  C24  0.115994  0.670948  0.233323  -0.271776
    C  C25  0.111759  0.719204  0.184419  -0.075380
    C  C26  0.136907  0.662410  0.335774  -0.354717
    C  C27  0.083303  0.835973  0.160007  -0.189930
    C  C28  0.070196  0.875036  0.121730  -0.240331
    H  H11  0.249494  0.713686  0.159001  0.067419
    H  H12  0.980749  0.708693  0.157301  0.021397
    H  H13  0.251182  0.639623  0.229851  0.088397
    H  H14  0.439626  0.723373  0.279470  0.034404
    C  C29  0.431286  0.245972  0.704476  -0.139753
    C  C30  0.800910  0.239853  0.709508  0.192659
    C  C31  0.776831  0.187265  0.754418  -0.498542
    H  H15  0.399031  0.146803  0.736329  0.014951
    H  H16  0.435562  0.218218  0.664142  0.111690
    H  H17  0.937611  0.268865  0.718422  0.017089
    H  H18  0.755583  0.138480  0.733844  0.138521
    C  C32  0.579766  0.115625  0.874918  -0.115874
    C  C33  0.622062  0.285690  0.710746  0.691289
    C  C34  0.411789  0.197803  0.753211  -0.150708
    C  C35  0.595401  0.202671  0.790225  0.382859
    C  C36  0.612110  0.272061  0.814340  0.225243
    C  C37  0.620517  0.321893  0.766711  -0.453131
    C  C38  0.583726  0.154782  0.836529  -0.284561
    C  C39  0.636389  0.333671  0.664576  -0.362209
    C  C40  0.647012  0.373218  0.626586  -0.081398
    H  H19  0.489354  0.355106  0.768955  0.134756
    H  H20  0.758537  0.351751  0.770703  0.074758
    H  H21  0.276866  0.209532  0.778194  0.248596
    H  H22  0.749708  0.275875  0.840016  0.009988
    C  C41  0.447285  0.307106  0.252754  -0.302393
    C  C42  0.813986  0.291649  0.255307  -0.070921
    C  C43  0.787911  0.248803  0.202967  -0.261554
    H  H23  0.422636  0.282338  0.164563  0.029917
    H  H24  0.472754  0.356685  0.234143  0.050088
    H  H25  0.839529  0.343422  0.241729  0.070780
    H  H26  0.770972  0.282458  0.166346  0.067189
    C  C44  0.569509  0.123865  0.122602  -0.218888
    C  C45  0.623784  0.288779  0.289590  0.673969
    C  C46  0.423966  0.256688  0.205912  -0.021539
    C  C47  0.597120  0.209114  0.208018  0.436550
    C  C48  0.587838  0.171412  0.263307  -0.137713
    C  C49  0.596991  0.219470  0.312202  -0.164574
    C  C50  0.582504  0.162658  0.160981  -0.253188
    C  C51  0.637051  0.335181  0.336699  -0.336059
    C  C52  0.647257  0.373638  0.375392  -0.105705
    H  H27  0.456317  0.216752  0.336700  0.017335
    H  H28  0.724536  0.206686  0.339926  0.021976
    H  H29  0.444890  0.143940  0.265357  0.091029
    H  H30  0.309673  0.308125  0.278703  0.092861
    H  H31  0.283317  0.228867  0.211722  -0.021554
    O  O11  0.754789  0.038696  0.929253  -0.544400
    O  O12  0.386763  0.041963  0.075455  -0.606670
    O  O13  0.206079  0.927424  0.041426  -0.446091
    C  C53  0.552699  0.076966  0.077511  0.791428
    O  O14  0.441092  0.078204  0.960483  -0.469055
    O  O15  0.254743  0.962655  0.928837  -0.535677
    C  C54  0.581107  0.069389  0.920991  0.630419
    O  O16  0.705791  0.072504  0.042178  -0.482480
    O  O17  0.572214  0.956033  0.000472  -0.557453
    V  V3   0.297411  0.007600  0.001616  1.370078
    O  O18  0.941408  0.922675  0.959631  -0.498670
    C  C55  0.080947  0.932312  0.920232  0.656532
    O  O19  0.886798  0.957404  0.074949  -0.520620
    C  C56  0.052958  0.922392  0.076787  0.725052
    V  V4   0.797451  0.992715  0.001490  1.361946
    O  O20  0.072309  0.044372  0.000985  -0.531126
    C  C57  0.336995  0.650089  0.782415  0.713775
    O  O21  0.409707  0.648377  0.829564  -0.523103
    N  N1   0.368071  0.596498  0.744242  -0.689618
    H  H32  0.451699  0.560722  0.765403  0.314976
    H  H33  0.228710  0.576166  0.735001  0.273902
    C  C58  0.461599  0.806304  0.205997  0.533151
    O  O22  0.514101  0.756506  0.181071  -0.459528
    N  N2   0.574693  0.865687  0.200710  -0.531507
    H  H34  0.571025  0.879631  0.158296  0.271350
    H  H35  0.502088  0.902208  0.224153  0.217931
    C  C59  0.935897  0.627762  0.231734  0.656618
    O  O23  0.955195  0.567920  0.228823  -0.574000
    N  N3   0.741274  0.656100  0.233563  -0.475351
    H  H36  0.638736  0.617291  0.231969  0.232938
    H  H37  0.723079  0.684343  0.197077  0.198509
    C  C60  0.936047  0.699593  0.843632  0.659056
    O  O24  0.884669  0.641781  0.842717  -0.531158
    N  N4   0.910329  0.737849  0.893713  -0.674860
    H  H38  0.850607  0.706724  0.924514  0.313174
    H  H39  0.051599  0.752755  0.907201  0.291473
    C  C61  0.819286  0.207896  0.653018  0.437368
    O  O25  0.686401  0.172304  0.635394  -0.566931
    N  N5   0.994363  0.217950  0.619969  -0.443217
    H  H40  0.978258  0.190417  0.582932  0.230369
    H  H41  0.114381  0.198370  0.642518  0.205820
    C  C62  0.958842  0.185007  0.790446  0.654520
    O  O26  0.012738  0.234183  0.816040  -0.403550
    N  N6   0.071090  0.125330  0.794626  -0.709760
    H  H42  0.068092  0.110480  0.836819  0.307654
    H  H43  0.997412  0.089433  0.770743  0.255410
    C  C63  0.437257  0.286657  0.851112  0.526910
    O  O27  0.270157  0.289083  0.830968  -0.438503
    N  N7   0.466035  0.299068  0.909826  -0.763169
    H  H44  0.326908  0.310231  0.927168  0.324495
    H  H45  0.556055  0.340981  0.913466  0.277275
    C  C64  0.256688  0.291558  0.703674  0.283481
    O  O28  0.212844  0.323105  0.745757  -0.427103
    N  N8   0.141977  0.298802  0.653349  -0.442626
    H  H46  0.035308  0.335395  0.660798  0.210732
    H  H47  0.237765  0.316009  0.621880  0.248422
    C  C65  0.984561  0.270619  0.291586  0.368334
    O  O29  0.090274  0.224404  0.277938  -0.229051
    N  N9   0.025170  0.305630  0.342602  -0.702758
    H  H48  0.146942  0.282762  0.361899  0.304313
    H  H49  0.901772  0.299886  0.369011  0.319739
    C  C66  0.961229  0.204637  0.191137  0.751713
    O  O30  0.993853  0.156488  0.220612  -0.500047
    N  N10  0.075181  0.214744  0.141042  -0.864684
    H  H50  0.191256  0.180338  0.140972  0.381538
    H  H51  0.136435  0.262138  0.143021  0.322791
    C  C67  0.755461  0.123438  0.267102  0.706083
    O  O31  0.878342  0.128521  0.304792  -0.554539
    N  N11  0.771480  0.071195  0.226858  -0.879069
    H  H52  0.901723  0.044999  0.235937  0.353791
    H  H53  0.787656  0.092642  0.187048  0.360647
