data_DB0-m3_o12_o23_f0_pcu.sym.131_repeat
_audit_creation_date              2024-02-23
_audit_creation_method            'Materials Studio'
_symmetry_space_group_name_H-M    'P1'
_symmetry_Int_Tables_number       1
_symmetry_cell_setting            triclinic
loop_
_symmetry_equiv_pos_as_xyz
  x,y,z
_cell_length_a                    9.9959
_cell_length_b                    11.2567
_cell_length_c                    15.9643
_cell_angle_alpha                 89.9868
_cell_angle_beta                  80.7314
_cell_angle_gamma                 92.4424
loop_
_atom_site_label
_atom_site_type_symbol
_atom_site_fract_x
_atom_site_fract_y
_atom_site_fract_z
_atom_site_U_iso_or_equiv
_atom_site_adp_type
_atom_site_occupancy
O1     O     0.42786   0.69089   0.50654   0.00000  Uiso   1.00
O2     O     0.65706   0.65765   0.48305   0.00000  Uiso   1.00
C1     C     0.55561   0.72919   0.49349   0.00000  Uiso   1.00
O3     O     0.38729   0.51571   0.63524   0.00000  Uiso   1.00
O4     O     0.61674   0.48225   0.61151   0.00000  Uiso   1.00
C2     C     0.50223   0.49887   0.66224   0.00000  Uiso   1.00
Zn1    Zn    0.34973   0.52135   0.51437   0.00000  Uiso   1.00
Zn2    Zn    0.65215   0.47762   0.48299   0.00000  Uiso   1.00
O5     O     0.34466   0.34110   0.51484   0.00000  Uiso   1.00
O6     O     0.57408   0.30829   0.49070   0.00000  Uiso   1.00
O7     O     0.38508   0.51631   0.38586   0.00000  Uiso   1.00
O8     O     0.61466   0.48362   0.36211   0.00000  Uiso   1.00
C3     C     0.44670   0.26983   0.50388   0.00000  Uiso   1.00
C4     C     0.49966   0.50008   0.33511   0.00000  Uiso   1.00
C5     C     0.40290   0.58957   0.96091   0.00000  Uiso   1.00
C6     C     0.64219   0.54165   0.93718   0.00000  Uiso   1.00
C7     C     0.63941   0.54564   0.03254   0.00000  Uiso   1.00
H1     H     0.44478   0.68065   0.94382   0.00000  Uiso   1.00
H2     H     0.66456   0.63328   0.91176   0.00000  Uiso   1.00
H3     H     0.66159   0.63792   0.05166   0.00000  Uiso   1.00
H4     H     0.71946   0.49036   0.05067   0.00000  Uiso   1.00
C8     C     0.49933   0.50003   0.24526   0.00000  Uiso   1.00
C9     C     0.50248   0.50007   0.91923   0.00000  Uiso   1.00
C10    C     0.38539   0.57179   0.05636   0.00000  Uiso   1.00
C11    C     0.50108   0.49923   0.07796   0.00000  Uiso   1.00
C12    C     0.47855   0.37292   0.04895   0.00000  Uiso   1.00
C13    C     0.46255   0.37583   0.95613   0.00000  Uiso   1.00
C14    C     0.49980   0.49976   0.16973   0.00000  Uiso   1.00
C15    C     0.50270   0.49940   0.82756   0.00000  Uiso   1.00
C16    C     0.50269   0.49902   0.75208   0.00000  Uiso   1.00
H5     H     0.35591   0.35138   0.95072   0.00000  Uiso   1.00
H6     H     0.52508   0.30778   0.92064   0.00000  Uiso   1.00
H7     H     0.38568   0.33138   0.08697   0.00000  Uiso   1.00
H8     H     0.28891   0.52001   0.07727   0.00000  Uiso   1.00
H9     H     0.56626   0.31952   0.05719   0.00000  Uiso   1.00
H10    H     0.61934   0.10112   0.46965   0.00000  Uiso   1.00
H11    H     0.38494   0.90426   0.50974   0.00000  Uiso   1.00
C17    C     0.58904   0.85768   0.49276   0.00000  Uiso   1.00
C18    C     0.49009   0.93617   0.50045   0.00000  Uiso   1.00
H12    H     0.31376   0.10715   0.52848   0.00000  Uiso   1.00
C19    C     0.41731   0.14088   0.50902   0.00000  Uiso   1.00
C20    C     0.51777   0.06573   0.49210   0.00000  Uiso   1.00
H13    H     0.11796   0.42595   0.44658   0.00000  Uiso   1.00
H14    H     0.88391   0.57294   0.55085   0.00000  Uiso   1.00
N1     N     0.85075   0.44858   0.46216   0.00000  Uiso   1.00
C21    C     0.92767   0.50860   0.50505   0.00000  Uiso   1.00
H15    H     0.10374   0.61022   0.57751   0.00000  Uiso   1.00
N2     N     0.15113   0.55037   0.53523   0.00000  Uiso   1.00
C22    C     0.07421   0.49036   0.49233   0.00000  Uiso   1.00
H16    H     0.89819   0.38892   0.41975   0.00000  Uiso   1.00
C23    C     0.37498   0.68785   0.10225   0.00000  Uiso   1.00
H17    H     0.28448   0.70377   0.14747   0.00000  Uiso   1.00
O9     O     0.46502   0.76527   0.08880   0.00000  Uiso   1.00
C24    C     0.26914   0.57676   0.93067   0.00000  Uiso   1.00
H18    H     0.20552   0.49628   0.94286   0.00000  Uiso   1.00
O10    O     0.22954   0.65900   0.89286   0.00000  Uiso   1.00
C25    C     0.73392   0.89461   0.48572   0.00000  Uiso   1.00
H19    H     0.81019   0.84103   0.44961   0.00000  Uiso   1.00
O11    O     0.77070   0.97629   0.52799   0.00000  Uiso   1.00
C26    C     0.75370   0.46748   0.89407   0.00000  Uiso   1.00
H20    H     0.82678   0.50655   0.84287   0.00000  Uiso   1.00
O12    O     0.76749   0.36634   0.91766   0.00000  Uiso   1.00
