# Generated by REPEAT Assigner based on pymatgen
data_DB0-m3_o4_o20_f0_pcu.sym.36_sqe
_audit_creation_date              2022-05-24
_audit_creation_method            REPEAT_Assigner
_cell_length_a                    14.534552
_cell_length_b                    10.988186
_cell_length_c                    9.834698
_cell_angle_alpha                 90.004536
_cell_angle_beta                  89.996616
_cell_angle_gamma                 89.997452
_cell_volume                      1570.683569
_symmetry_space_group_name_H-M    P1
_symmetry_Int_Tables_number       1
loop_
    _symmetry_equiv_pos_site_id
    _symmetry_equiv_pos_as_xyz
    1  x,y,z
loop_
    _atom_site_type_symbol
    _atom_site_label
    _atom_site_fract_x
    _atom_site_fract_y
    _atom_site_fract_z
    _atom_type_partial_charge
    O   O1   0.501131  0.310584  0.619697  -0.671518
    O   O2   0.502766  0.309579  0.384563  -0.663003
    C   C1   0.501681  0.253362  0.502262  0.760922
    O   O3   0.366789  0.495072  0.618679  -0.638734
    O   O4   0.367328  0.493136  0.383761  -0.658855
    C   C2   0.324346  0.494937  0.501022  0.852292
    Zn  Zn1  0.503810  0.492158  0.656246  1.010347
    Zn  Zn2  0.504432  0.490680  0.346646  1.027331
    O   O5   0.506094  0.673477  0.617964  -0.680940
    O   O6   0.506371  0.671881  0.383710  -0.622330
    O   O7   0.640904  0.488725  0.619104  -0.645635
    O   O8   0.641460  0.488300  0.384241  -0.622562
    C   C3   0.508410  0.729868  0.500092  0.777646
    C   C4   0.683904  0.487831  0.501869  0.881622
    C   C5   0.225618  0.494716  0.500702  -0.268710
    C   C6   0.142715  0.493753  0.500823  0.089926
    C   C7   0.045576  0.492073  0.501239  -0.023870
    C   C8   0.962679  0.490506  0.501667  -0.042677
    C   C9   0.865538  0.488859  0.502086  0.128672
    C   C10  0.782633  0.487951  0.502203  -0.310466
    C   C11  0.481596  0.050737  0.611129  0.184392
    C   C12  0.505177  0.120258  0.500992  -0.223192
    C   C13  0.536099  0.058176  0.387020  -0.043883
    H   H1   0.560747  0.108899  0.300276  0.103273
    C   C14  0.541906  0.931251  0.385310  -0.098205
    C   C15  0.512752  0.863723  0.498381  -0.185427
    C   C16  0.484500  0.929847  0.609329  0.096226
    C   C17  0.446099  0.916424  0.748167  -0.208859
    C   C18  0.442978  0.058400  0.750426  -0.177932
    H   H2   0.495232  0.876485  0.821883  0.094304
    H   H3   0.372035  0.095413  0.751285  0.102032
    H   H4   0.492140  0.099036  0.823737  0.083531
    C   C19  0.435672  0.443690  0.068285  0.213559
    N   N1   0.504093  0.489723  0.143219  -0.130966
    C   C20  0.574758  0.539082  0.072620  -0.005440
    H   H5   0.632285  0.578608  0.126357  0.160950
    C   C21  0.574288  0.540246  0.930201  -0.095093
    H   H6   0.631545  0.580428  0.876385  0.156765
    N   N2   0.503098  0.492158  0.859682  -0.049533
    C   C22  0.435166  0.444897  0.934718  0.140350
    C   C23  0.344570  0.384234  0.921712  -0.115872
    C   C24  0.345181  0.382831  0.081591  -0.175466
    H   H7   0.291131  0.445227  0.878949  0.089955
    H   H8   0.350035  0.292206  0.876415  0.073786
    H   H9   0.292112  0.443144  0.126548  0.118265
    H   H10  0.351050  0.289973  0.124913  0.098376
    C   C25  0.587281  0.873895  0.268042  0.612142
    O   O9   0.649357  0.801032  0.286354  -0.478510
    C   C26  0.562387  0.909079  0.126210  -0.487898
    H   H11  0.501722  0.970249  0.126034  0.108477
    H   H12  0.545328  0.825827  0.067735  0.146259
    H   H13  0.621624  0.955491  0.077608  0.142765
    C   C27  0.352183  0.861590  0.745537  0.754811
    O   O10  0.299826  0.885326  0.652383  -0.540546
    C   C28  0.321875  0.777463  0.855723  -0.602372
    H   H14  0.377366  0.766015  0.931978  0.099881
    H   H15  0.304577  0.687655  0.811161  0.198125
    H   H16  0.260057  0.815598  0.906267  0.161512
