# generated using pymatgen
data_CuH18C23(NO4)3
_symmetry_space_group_name_H-M   'P 1'
_cell_length_a   11.25953700
_cell_length_b   15.56660200
_cell_length_c   17.08380800
_cell_angle_alpha   96.33301000
_cell_angle_beta   90.76294200
_cell_angle_gamma   80.49792000
_symmetry_Int_Tables_number   1
_chemical_formula_structural   CuH18C23(NO4)3
_chemical_formula_sum   'Cu2 H36 C46 N6 O24'
_cell_volume   2935.18382346
_cell_formula_units_Z   2
loop_
 _symmetry_equiv_pos_site_id
 _symmetry_equiv_pos_as_xyz
  1  'x, y, z'
loop_
 _atom_site_type_symbol
 _atom_site_label
 _atom_site_symmetry_multiplicity
 _atom_site_fract_x
 _atom_site_fract_y
 _atom_site_fract_z
 _atom_site_occupancy
  Cu  Cu1  1  0.49042900  0.41394200  0.49687000  1
  Cu  Cu2  1  0.49581900  0.58604100  0.50833300  1
  H  H1  1  0.89723100  0.38516000  0.51966400  1
  H  H2  1  0.08851400  0.61595600  0.49004200  1
  H  H3  1  0.55819400  0.37581200  0.74041900  1
  H  H4  1  0.55358300  0.61301400  0.26348600  1
  H  H5  1  0.45512900  0.36046700  0.24946400  1
  H  H6  1  0.42481300  0.64770700  0.75506900  1
  H  H7  1  0.62069400  0.26331100  0.57330200  1
  H  H8  1  0.37595600  0.73504200  0.42538300  1
  H  H9  1  0.61416800  0.10880600  0.57038900  1
  H  H10  1  0.38518600  0.88895300  0.42744100  1
  H  H11  1  0.63637400  0.86947200  0.61623800  1
  H  H12  1  0.33001900  0.13399100  0.40317900  1
  H  H13  1  0.79158900  0.73744700  0.43167500  1
  H  H14  1  0.75968800  0.68958500  0.33377600  1
  H  H15  1  0.90265400  0.72616700  0.35394600  1
  H  H16  1  0.19176600  0.25651100  0.55993900  1
  H  H17  1  0.10730000  0.27548100  0.65133100  1
  H  H18  1  0.25801000  0.30161200  0.64921800  1
  H  H19  1  0.73642600  0.62506200  0.73338800  1
  H  H20  1  0.82479000  0.71065300  0.76151100  1
  H  H21  1  0.88662900  0.61676900  0.69356300  1
  H  H22  1  0.15114900  0.39339300  0.33702100  1
  H  H23  1  0.10249100  0.29813000  0.28396200  1
  H  H24  1  0.20470100  0.35582800  0.23769500  1
  H  H25  1  0.70873100  0.23233700  0.93194600  1
  H  H26  1  0.68824800  0.16921100  0.83863000  1
  H  H27  1  0.58778100  0.16838700  0.92015100  1
  H  H28  1  0.68186400  0.73087600  0.06767000  1
  H  H29  1  0.65546400  0.79997500  0.16026900  1
  H  H30  1  0.55066400  0.81594700  0.07993100  1
  H  H31  1  0.36808600  0.20782500  0.02873200  1
  H  H32  1  0.38096600  0.15162700  0.11653500  1
  H  H33  1  0.50109900  0.12866000  0.04427100  1
  H  H34  1  0.31578400  0.81593800  0.97615000  1
  H  H35  1  0.31923300  0.87061500  0.88817600  1
  H  H36  1  0.43789000  0.87477200  0.96026400  1
  C  C1  1  0.49776600  0.49357200  0.35151300  1
  C  C2  1  0.48914000  0.50630200  0.65358500  1
  C  C3  1  0.26155100  0.53125700  0.50146300  1
  C  C4  1  0.72466700  0.46873400  0.50388100  1
  C  C5  1  0.12913300  0.54964000  0.49856300  1
  C  C6  1  0.85690000  0.45033000  0.50738600  1
  C  C7  1  0.05907000  0.48862400  0.50515300  1
  C  C8  1  0.92681200  0.50999000  0.49597100  1
  C  C9  1  0.50147900  0.48826400  0.26513300  1
  C  C10  1  0.48971900  0.51085600  0.73973100  1
  C  C11  1  0.52923300  0.55684400  0.22797900  1
  C  C12  1  0.52644000  0.43653100  0.77644800  1
  C  C13  1  0.53221800  0.55202400  0.14627800  1
  C  C14  1  0.53081800  0.44057500  0.85802100  1
  C  C15  1  0.50857100  0.47577200  0.10162300  1
  C  C16  1  0.49831100  0.52184900  0.90307000  1
  C  C17  1  0.48557200  0.40618600  0.13927900  1
  C  C18  1  0.46398200  0.59627200  0.86560300  1
  C  C19  1  0.47986400  0.41310500  0.22056200  1
  C  C20  1  0.45805700  0.59048500  0.78429200  1
  C  C21  1  0.43414600  0.76431100  0.46747600  1
  C  C22  1  0.55815900  0.23471100  0.53410800  1
  C  C23  1  0.43995400  0.85236700  0.46893300  1
  C  C24  1  0.55347100  0.14645400  0.53252300  1
  C  C25  1  0.51458500  0.89024100  0.52262900  1
  C  C26  1  0.47132200  0.10989600  0.48394800  1
  C  C27  1  0.58165100  0.83859200  0.57286000  1
  C  C28  1  0.39732900  0.16261300  0.43790600  1
  C  C29  1  0.57650900  0.74989400  0.56861300  1
  C  C30  1  0.40584500  0.25055000  0.43928200  1
  C  C31  1  0.88341100  0.60725600  0.39991700  1
  C  C32  1  0.83098500  0.69575500  0.37848000  1
  C  C33  1  0.12271200  0.39046200  0.59759300  1
  C  C34  1  0.17322600  0.30027100  0.61565600  1
  C  C35  1  0.75272200  0.70958300  0.64539400  1
  C  C36  1  0.80336600  0.66251500  0.71276200  1
  C  C37  1  0.28315600  0.27746700  0.32582200  1
  C  C38  1  0.17871300  0.33486700  0.29412100  1
  C  C39  1  0.55985700  0.28571300  0.86398200  1
  C  C40  1  0.64134300  0.20905600  0.89042800  1
  C  C41  1  0.54149100  0.70337200  0.13883500  1
  C  C42  1  0.61184900  0.76655200  0.10978000  1
  C  C43  1  0.48968800  0.25141800  0.11523700  1
  C  C44  1  0.43124300  0.18039900  0.07348700  1
  C  C45  1  0.44495000  0.75226600  0.88944000  1
  C  C46  1  0.37502800  0.83355300  0.93121900  1
  N  N1  1  0.50855600  0.46423600  0.01797100  1
  N  N2  1  0.49944500  0.53347900  0.98678800  1
  N  N3  1  0.50044000  0.71471500  0.51735000  1
  N  N4  1  0.48569500  0.28527400  0.48783300  1
  N  N5  1  0.52562600  0.97995100  0.52738200  1
  N  N6  1  0.45951500  0.02040400  0.48009000  1
  O  O1  1  0.48910600  0.42230500  0.38365500  1
  O  O2  1  0.49527200  0.57800200  0.62156900  1
  O  O3  1  0.50376500  0.56858400  0.39337400  1
  O  O4  1  0.48456800  0.43104200  0.61185900  1
  O  O5  1  0.31595400  0.45009400  0.49982300  1
  O  O6  1  0.67033800  0.55005000  0.50661700  1
  O  O7  1  0.32053400  0.59741400  0.50292200  1
  O  O8  1  0.66578000  0.40243700  0.50116300  1
  O  O9  1  0.87692400  0.58900400  0.47498300  1
  O  O10  1  0.93102700  0.55117200  0.34938200  1
  O  O11  1  0.10783300  0.40770000  0.52207200  1
  O  O12  1  0.09416300  0.44851000  0.65114600  1
  O  O13  1  0.64251100  0.69867000  0.61764600  1
  O  O14  1  0.81499000  0.75172900  0.61222300  1
  O  O15  1  0.33077700  0.30327800  0.39589800  1
  O  O16  1  0.33066800  0.21170600  0.28523400  1
  O  O17  1  0.57550200  0.36769900  0.89214600  1
  O  O18  1  0.47534800  0.27371000  0.82105400  1
  O  O19  1  0.56743500  0.61755000  0.11129300  1
  O  O20  1  0.45620700  0.73050200  0.18312600  1
  O  O21  1  0.46220700  0.33375500  0.09461800  1
  O  O22  1  0.56755900  0.23337800  0.16383700  1
  O  O23  1  0.43061300  0.67336800  0.91049100  1
  O  O24  1  0.52015600  0.75800200  0.84038500  1
