# generated using pymatgen
data_Zn2H16C28N3O8F3
_symmetry_space_group_name_H-M   'P 1'
_cell_length_a   8.52495300
_cell_length_b   10.69577500
_cell_length_c   14.25138200
_cell_angle_alpha   97.80647800
_cell_angle_beta   90.10270900
_cell_angle_gamma   90.00840400
_symmetry_Int_Tables_number   1
_chemical_formula_structural   Zn2H16C28N3O8F3
_chemical_formula_sum   'Zn2 H16 C28 N3 O8 F3'
_cell_volume   1287.41008485
_cell_formula_units_Z   1
loop_
 _symmetry_equiv_pos_site_id
 _symmetry_equiv_pos_as_xyz
  1  'x, y, z'
loop_
 _atom_site_type_symbol
 _atom_site_label
 _atom_site_symmetry_multiplicity
 _atom_site_fract_x
 _atom_site_fract_y
 _atom_site_fract_z
 _atom_site_occupancy
  Zn  Zn1  1  0.49926200  0.49429000  0.10376400  1
  Zn  Zn2  1  0.49906400  0.50703600  0.89563400  1
  H  H1  1  0.61036700  0.89718300  0.01489500  1
  H  H2  1  0.99550700  0.59359200  0.05673400  1
  H  H3  1  0.99569200  0.40850700  0.94293900  1
  H  H4  1  0.25404800  0.90398900  0.99231600  1
  H  H5  1  0.25443000  0.09698500  0.00553000  1
  H  H6  1  0.71473000  0.60777700  0.58107300  1
  H  H7  1  0.69518000  0.62320500  0.42487200  1
  H  H8  1  0.54233500  0.29255700  0.39974300  1
  H  H9  1  0.71549200  0.38945100  0.41671200  1
  H  H10  1  0.70378100  0.38400200  0.57193500  1
  H  H11  1  0.26271200  0.56362000  0.41864500  1
  H  H12  1  0.27947900  0.39574300  0.41885100  1
  H  H13  1  0.28537100  0.60526100  0.57679500  1
  H  H14  1  0.50397400  0.69596000  0.44056000  1
  H  H15  1  0.54038400  0.70373700  0.59833300  1
  H  H16  1  0.25595500  0.44057300  0.58138200  1
  C  C1  1  0.99736100  0.69154800  0.04587400  1
  C  C2  1  0.13790200  0.74826400  0.03146400  1
  C  C3  1  0.14106000  0.86918500  0.00972300  1
  C  C4  1  0.85858600  0.75235100  0.03294700  1
  C  C5  1  0.86066200  0.87737000  0.01598000  1
  C  C6  1  0.00289200  0.93787700  0.00735400  1
  C  C7  1  0.00291600  0.06377700  0.99170200  1
  C  C8  1  0.14122700  0.13209800  0.98869600  1
  C  C9  1  0.13794200  0.25323800  0.96735500  1
  C  C10  1  0.72219600  0.94250600  0.00787900  1
  C  C11  1  0.86092800  0.12516900  0.98396300  1
  C  C12  1  0.85897800  0.24985200  0.96705600  1
  C  C13  1  0.99746200  0.31049600  0.95365600  1
  C  C14  1  0.27911600  0.67117500  0.02174700  1
  C  C15  1  0.27917100  0.33011000  0.97715400  1
  C  C16  1  0.71700500  0.32726000  0.97721100  1
  C  C17  1  0.71724900  0.67394400  0.02265400  1
  C  C18  1  0.57648700  0.61466100  0.45509500  1
  C  C19  1  0.59103200  0.38151600  0.43762200  1
  C  C20  1  0.58214400  0.38212000  0.54406300  1
  C  C21  1  0.50003600  0.49290700  0.41037300  1
  C  C22  1  0.58955400  0.61458800  0.56108700  1
  C  C23  1  0.49968400  0.50280000  0.58857700  1
  C  C24  1  0.33260800  0.50974300  0.55263100  1
  C  C25  1  0.33262700  0.48839800  0.44536200  1
  C  C26  1  0.49933400  0.51095800  0.69191300  1
  C  C27  1  0.49998200  0.48824500  0.30731100  1
  C  C28  1  0.50621100  0.26031000  0.56692800  1
  N  N1  1  0.72479000  0.06410100  0.99277400  1
  N  N2  1  0.49910000  0.51504400  0.77345300  1
  N  N3  1  0.49986600  0.48622500  0.22593800  1
  O  O1  1  0.33014700  0.63474400  0.93560300  1
  O  O2  1  0.33443800  0.62785100  0.09707200  1
  O  O3  1  0.33035400  0.36652800  0.06334900  1
  O  O4  1  0.33411000  0.37348400  0.90190200  1
  O  O5  1  0.66774000  0.36614600  0.06343100  1
  O  O6  1  0.66309600  0.37279100  0.90245300  1
  O  O7  1  0.66758000  0.63521500  0.93639500  1
  O  O8  1  0.66349000  0.62850900  0.09738200  1
  F  F1  1  0.36132600  0.24124900  0.52386800  1
  F  F2  1  0.48935400  0.26323500  0.66361500  1
  F  F3  1  0.60248000  0.16007000  0.53371400  1
