# generated using pymatgen
data_Zn3H36C46(ClO6)2
_symmetry_space_group_name_H-M   'P 1'
_cell_length_a   21.53063400
_cell_length_b   21.50972900
_cell_length_c   22.08022300
_cell_angle_alpha   60.89166600
_cell_angle_beta   119.16016700
_cell_angle_gamma   89.96025500
_symmetry_Int_Tables_number   1
_chemical_formula_structural   Zn3H36C46(ClO6)2
_chemical_formula_sum   'Zn6 H72 C92 Cl4 O24'
_cell_volume   7413.56206482
_cell_formula_units_Z   2
loop_
 _symmetry_equiv_pos_site_id
 _symmetry_equiv_pos_as_xyz
  1  'x, y, z'
loop_
 _atom_site_type_symbol
 _atom_site_label
 _atom_site_symmetry_multiplicity
 _atom_site_fract_x
 _atom_site_fract_y
 _atom_site_fract_z
 _atom_site_occupancy
  Zn  Zn1  1  0.50504600  0.41910200  0.51050600  1
  Zn  Zn2  1  0.50330500  0.56038300  0.50957900  1
  Zn  Zn3  1  0.07528300  0.98925700  0.51210500  1
  Zn  Zn4  1  0.93301300  0.99048100  0.50886700  1
  Zn  Zn5  1  0.05239600  0.44278000  0.60528500  1
  Zn  Zn6  1  0.95574600  0.53679700  0.41622500  1
  H  H1  1  0.36956400  0.77473000  0.06110300  1
  H  H2  1  0.31997300  0.72347500  0.95446900  1
  H  H3  1  0.18907500  0.76202200  0.06691000  1
  H  H4  1  0.13943200  0.71080900  0.96017800  1
  H  H5  1  0.28535900  0.61167700  0.05919300  1
  H  H6  1  0.69282200  0.40937700  0.47917100  1
  H  H7  1  0.74004300  0.36700300  0.59041400  1
  H  H8  1  0.85120200  0.37216300  0.60728300  1
  H  H9  1  0.80759400  0.39516500  0.50228400  1
  H  H10  1  0.63116400  0.54824700  0.37947600  1
  H  H11  1  0.73599100  0.52922700  0.38292700  1
  H  H12  1  0.72923800  0.55039100  0.57245500  1
  H  H13  1  0.77349600  0.45024600  0.64311800  1
  H  H14  1  0.87240200  0.47209700  0.63524600  1
  H  H15  1  0.82000900  0.56831200  0.54828800  1
  H  H16  1  0.66001000  0.60638900  0.41934800  1
  H  H17  1  0.75339600  0.60300100  0.40093700  1
  H  H18  1  0.63987700  0.32560500  0.95804200  1
  H  H19  1  0.69211600  0.16834700  0.06258600  1
  H  H20  1  0.87584000  0.16689400  0.06247800  1
  H  H21  1  0.73248200  0.16467900  0.96068500  1
  H  H22  1  0.23566300  0.58294100  0.38110000  1
  H  H23  1  0.13381700  0.57812700  0.37707900  1
  H  H24  1  0.14377700  0.48520100  0.39916200  1
  H  H25  1  0.33324400  0.37050800  0.55898900  1
  H  H26  1  0.22194000  0.37434300  0.54740100  1
  H  H27  1  0.35031700  0.52094700  0.59655900  1
  H  H28  1  0.29343500  0.59974200  0.48912900  1
  H  H29  1  0.19229500  0.59638500  0.49425100  1
  H  H30  1  0.24844500  0.51619500  0.60099000  1
  H  H31  1  0.36593800  0.39509600  0.63312200  1
  H  H32  1  0.26287000  0.38706600  0.63210800  1
  H  H33  1  0.06548800  0.82578100  0.45065700  1
  H  H34  1  0.96538300  0.85316200  0.37921300  1
  H  H35  1  0.98642400  0.74678900  0.38613700  1
  H  H36  1  0.08256100  0.71139100  0.47344100  1
  H  H37  1  0.12050800  0.74166200  0.60360600  1
  H  H38  1  0.11686000  0.63033000  0.62038400  1
  H  H39  1  0.92304400  0.77012300  0.54177900  1
  H  H40  1  0.88143200  0.83418800  0.43071400  1
  H  H41  1  0.88622700  0.73992800  0.41371800  1
  H  H42  1  0.90909400  0.67840700  0.51860600  1
  H  H43  1  0.06167700  0.73061700  0.64255900  1
  H  H44  1  0.04305800  0.62938000  0.63827100  1
  H  H45  1  0.08479700  0.21001600  0.47866300  1
  H  H46  1  0.12689400  0.14591100  0.58982700  1
  H  H47  1  0.12225400  0.24016000  0.60685500  1
  H  H48  1  0.09853700  0.30187100  0.50163100  1
  H  H49  1  0.94607800  0.24937700  0.37846500  1
  H  H50  1  0.96422200  0.35065400  0.38273300  1
  H  H51  1  0.94344500  0.15341700  0.57117500  1
  H  H52  1  0.04360900  0.12610900  0.64216700  1
  H  H53  1  0.02298400  0.23223700  0.63579300  1
  H  H54  1  0.92654300  0.26750700  0.54913400  1
  H  H55  1  0.88766700  0.23771300  0.41799400  1
  H  H56  1  0.89102300  0.34889900  0.40161200  1
  H  H57  1  0.69106000  0.43608400  0.93796700  1
  H  H58  1  0.70944900  0.53078500  0.97072200  1
  H  H59  1  0.90013900  0.36883600  0.21380700  1
  H  H60  1  0.88344100  0.27432100  0.18162200  1
  H  H61  1  0.93935300  0.26515600  0.08427600  1
  H  H62  1  0.01918300  0.33699100  0.05160900  1
  H  H63  1  0.83339500  0.48587500  0.80027700  1
  H  H64  1  0.75306000  0.41585300  0.83206500  1
  H  H65  1  0.25636700  0.58959200  0.28882100  1
  H  H66  1  0.26214300  0.54094600  0.21176600  1
  H  H67  1  0.24364400  0.33571400  0.36785400  1
  H  H68  1  0.23495100  0.38345800  0.44365700  1
  H  H69  1  0.29315200  0.84957900  0.09641000  1
  H  H70  1  0.27416500  0.97415100  0.07160800  1
  H  H71  1  0.13493800  0.07288000  0.80954400  1
  H  H72  1  0.15301300  0.94989300  0.83299400  1
  C  C1  1  0.62754600  0.48784100  0.51368100  1
  C  C2  1  0.42527700  0.57215800  0.34680200  1
  C  C3  1  0.38069900  0.49156500  0.50646700  1
  C  C4  1  0.58345600  0.40741400  0.67332000  1
  C  C5  1  0.29064800  0.73178400  0.98085000  1
  C  C6  1  0.31692300  0.76054700  0.03736900  1
  C  C7  1  0.38109000  0.61665600  0.25723400  1
  C  C8  1  0.12882700  0.86298200  0.76331200  1
  C  C9  1  0.27074000  0.67175500  0.03598800  1
  C  C10  1  0.29604100  0.70136200  0.09074300  1
  C  C11  1  0.19215000  0.72487300  0.98389400  1
  C  C12  1  0.21259500  0.78437700  0.92980400  1
  C  C13  1  0.21828900  0.75359300  0.04048100  1
  C  C14  1  0.23837300  0.81300800  0.98548000  1
  C  C15  1  0.34306200  0.65466400  0.18200800  1
  C  C16  1  0.16628000  0.82715400  0.83852400  1
  C  C17  1  0.73077800  0.41477400  0.53161300  1
  C  C18  1  0.80533600  0.41285200  0.54089700  1
  C  C19  1  0.67759900  0.55199000  0.42926400  1
  C  C20  1  0.75407800  0.49974100  0.58028400  1
  C  C21  1  0.69700800  0.48843400  0.51396000  1
  C  C22  1  0.81407000  0.49011700  0.51257700  1
  C  C23  1  0.74559400  0.54690200  0.42553600  1
  C  C24  1  0.82009900  0.50943200  0.57247900  1
  C  C25  1  0.72170400  0.20437900  0.03801000  1
  C  C26  1  0.69391500  0.28965000  0.98216900  1
  C  C27  1  0.62934200  0.36374900  0.76288900  1
  C  C28  1  0.87963500  0.11919400  0.25768000  1
  C  C29  1  0.74454400  0.20159900  0.98395600  1
  C  C30  1  0.71741900  0.28626200  0.92922000  1
  C  C31  1  0.82210800  0.20341000  0.03831800  1
  C  C32  1  0.79855900  0.20683500  0.09119600  1
  C  C33  1  0.79400300  0.28853300  0.98255400  1
  C  C34  1  0.77151600  0.29110200  0.03641100  1
  C  C35  1  0.66887200  0.32830900  0.83804500  1
  C  C36  1  0.84301100  0.15862000  0.18248700  1
  C  C37  1  0.24203200  0.52276400  0.41849600  1
  C  C38  1  0.17256500  0.52003700  0.42044200  1
  C  C39  1  0.31936500  0.41200900  0.56985100  1
  C  C40  1  0.30077800  0.54087800  0.53353800  1
  C  C41  1  0.31115300  0.49089600  0.50644500  1
  C  C42  1  0.19398000  0.48959800  0.50860200  1
  C  C43  1  0.24809900  0.41063600  0.56791000  1
  C  C44  1  0.23175800  0.53877500  0.53630900  1
  C  C45  1  0.00234900  0.86917800  0.50849900  1
  C  C46  1  0.08522400  0.90689500  0.67376500  1
  C  C47  1  0.00595600  0.11056400  0.51248900  1
  C  C48  1  0.92309600  0.07286700  0.34720400  1
  C  C49  1  0.00391500  0.36706900  0.51282500  1
  C  C50  1  0.88265200  0.49087400  0.51113000  1
  C  C51  1  0.00425100  0.61250800  0.50867200  1
  C  C52  1  0.12551200  0.48890300  0.51034900  1
  C  C53  1  0.01452800  0.80931400  0.44209900  1
  C  C54  1  0.02375400  0.73579300  0.44917800  1
  C  C55  1  0.06591300  0.73422700  0.59293200  1
  C  C56  1  0.92888300  0.78443700  0.48966800  1
  C  C57  1  0.00278800  0.79996900  0.50815000  1
  C  C58  1  0.00409500  0.68191500  0.50857200  1
  C  C59  1  0.06081000  0.66270700  0.59592000  1
  C  C60  1  0.92688700  0.71922300  0.48017600  1
  C  C61  1  0.07925600  0.19557500  0.53099000  1
  C  C62  1  0.08122400  0.26080300  0.54048700  1
  C  C63  1  0.94211100  0.24544000  0.42837900  1
  C  C64  1  0.99429600  0.17001900  0.57946200  1
  C  C65  1  0.00553900  0.17972600  0.51296800  1
  C  C66  1  0.00416700  0.29768400  0.51282000  1
  C  C67  1  0.94702300  0.31691600  0.42553600  1
  C  C68  1  0.98519400  0.24338400  0.57273900  1
  C  C69  1  0.78392200  0.34762400  0.05856800  1
  C  C70  1  0.73654100  0.42045600  0.99921700  1
  C  C71  1  0.74696800  0.47402300  0.01734200  1
  C  C72  1  0.80524900  0.45535000  0.09468700  1
  C  C73  1  0.85370000  0.38327800  0.15351200  1
  C  C74  1  0.84349200  0.32965800  0.13541700  1
  C  C75  1  0.84107400  0.33369400  0.96000800  1
  C  C76  1  0.91574200  0.31313200  0.02141700  1
  C  C77  1  0.96077600  0.35362200  0.00328500  1
  C  C78  1  0.93138500  0.41531700  0.92370600  1
  C  C79  1  0.85673500  0.43691400  0.86251900  1
  C  C80  1  0.81154500  0.39656900  0.88057600  1
  C  C81  1  0.24761900  0.48962200  0.37415600  1
  C  C82  1  0.25394200  0.53344800  0.30752200  1
  C  C83  1  0.25736400  0.50623200  0.26376300  1
  C  C84  1  0.25447600  0.43500200  0.28589600  1
  C  C85  1  0.24710600  0.39127700  0.35118300  1
  C  C86  1  0.24314200  0.41843300  0.39473600  1
  C  C87  1  0.22490300  0.89044000  0.96681800  1
  C  C88  1  0.25833600  0.89842900  0.03311800  1
  C  C89  1  0.24773100  0.96845700  0.01934200  1
  C  C90  1  0.20347800  0.03114900  0.93905200  1
  C  C91  1  0.16979700  0.02369500  0.87260900  1
  C  C92  1  0.18033600  0.95368000  0.88625700  1
  Cl  Cl1  1  0.81848400  0.52341200  0.11768900  1
  Cl  Cl2  1  0.98857400  0.46678500  0.90064800  1
  Cl  Cl3  1  0.25888600  0.40060000  0.23024000  1
  Cl  Cl4  1  0.18994300  0.12014200  0.92145200  1
  O  O1  1  0.60002100  0.43305400  0.51532900  1
  O  O2  1  0.59598800  0.54306200  0.50984800  1
  O  O3  1  0.44635800  0.49896700  0.38626800  1
  O  O4  1  0.44136800  0.60698800  0.38485400  1
  O  O5  1  0.41209000  0.43673000  0.50967100  1
  O  O6  1  0.40859400  0.54607400  0.50532900  1
  O  O7  1  0.56674600  0.37246000  0.63528900  1
  O  O8  1  0.56247600  0.48054200  0.63379300  1
  O  O9  1  0.05774900  0.89650400  0.51264400  1
  O  O10  1  0.94712100  0.89930300  0.50558200  1
  O  O11  1  0.12082300  0.92753400  0.63659900  1
  O  O12  1  0.01201000  0.92579500  0.63340700  1
  O  O13  1  0.06119200  0.08043200  0.51540800  1
  O  O14  1  0.95054700  0.08323500  0.50833100  1
  O  O15  1  0.99629900  0.05401800  0.38758100  1
  O  O16  1  0.88747500  0.05227500  0.38436200  1
  O  O17  1  0.04319000  0.36008700  0.58480500  1
  O  O18  1  0.96552500  0.43214000  0.44083200  1
  O  O19  1  0.94838700  0.45321800  0.58242000  1
  O  O20  1  0.87423100  0.52834600  0.43840300  1
  O  O21  1  0.04209300  0.54743600  0.58072000  1
  O  O22  1  0.96549000  0.61951600  0.43665900  1
  O  O23  1  0.13396200  0.45187600  0.58312700  1
  O  O24  1  0.05974200  0.52573400  0.43910900  1
