# Generated by REPEAT Assigner based on pymatgen
data_DB0-m29_o97_o110_f0_pts.sym.29
_audit_creation_date              2022-05-24
_audit_creation_method            REPEAT_Assigner
_cell_length_a                    17.607469
_cell_length_b                    14.071947
_cell_length_c                    11.062518
_cell_angle_alpha                 95.992440
_cell_angle_beta                  82.642176
_cell_angle_gamma                 97.149279
_cell_volume                      2686.350441
_symmetry_space_group_name_H-M    P1
_symmetry_Int_Tables_number       1
loop_
    _symmetry_equiv_pos_site_id
    _symmetry_equiv_pos_as_xyz
    1  x,y,z
loop_
    _atom_site_type_symbol
    _atom_site_label
    _atom_site_fract_x
    _atom_site_fract_y
    _atom_site_fract_z
    _atom_type_partial_charge
    C   C1   0.230531  0.021056  0.218646  -0.269845
    C   C2   0.098560  0.020220  0.293435  -0.198482
    C   C3   0.289739  0.026827  0.125131  0.003836
    C   C4   0.274806  0.033515  0.006474  -0.134277
    C   C5   0.155848  0.023572  0.197146  0.218381
    C   C6   0.138454  0.027984  0.080451  -0.024326
    C   C7   0.197777  0.030816  0.984163  0.168461
    C   C8   0.178057  0.024413  0.866707  -0.180584
    C   C9   0.023017  0.019634  0.274739  -0.132693
    C   C10  0.002677  0.022108  0.157550  0.018144
    C   C11  0.061624  0.026920  0.060412  0.026459
    C   C12  0.044076  0.029386  0.942798  0.044666
    C   C13  0.102869  0.023770  0.846480  -0.137615
    C   C14  0.863598  0.009463  0.227160  -0.189431
    C   C15  0.925205  0.016286  0.134733  0.069649
    C   C16  0.908294  0.018346  0.016194  0.003127
    C   C17  0.967851  0.030929  0.922153  0.069518
    C   C18  0.950014  0.047598  0.808727  -0.211546
    C   C19  0.788369  0.998896  0.201658  -0.110391
    C   C20  0.770982  0.993097  0.082631  0.091179
    C   C21  0.831698  0.006867  0.990614  0.017562
    C   C22  0.816258  0.007348  0.871551  0.049691
    C   C23  0.694393  0.979754  0.055106  -0.083180
    C   C24  0.680441  0.975225  0.933427  -0.049152
    C   C25  0.875543  0.035310  0.783753  -0.039119
    C   C26  0.742084  0.981466  0.840864  -0.040322
    H   H1   0.243389  0.016865  0.310684  0.203040
    H   H2   0.112436  0.016993  0.385207  0.135205
    H   H3   0.219354  0.015656  0.786949  0.157526
    H   H4   0.982454  0.015824  0.355669  0.116365
    H   H5   0.092786  0.013454  0.751882  0.130579
    H   H6   0.870366  0.012356  0.322501  0.151108
    H   H7   0.992317  0.071890  0.736085  0.128948
    H   H8   0.744396  0.996121  0.278805  0.138399
    H   H9   0.866218  0.047823  0.692708  0.097671
    O   O1   0.568538  0.017137  0.152678  -0.562876
    C   C27  0.627760  0.968031  0.151428  0.588677
    O   O2   0.453379  0.792811  0.215578  -0.457550
    O   O3   0.625182  0.904177  0.230678  -0.525247
    O   O4   0.478840  0.884165  0.388821  -0.565297
    C   C28  0.460887  0.799059  0.332709  0.591658
    Fe  Fe1  0.483430  0.991365  0.284590  1.483570
    O   O5   0.386691  0.955007  0.204485  -0.590015
    O   O6   0.413901  0.110027  0.157429  -0.585792
    C   C29  0.367671  0.029318  0.157497  0.766667
    O   O7   0.494788  0.113829  0.394422  -0.670443
    O   O8   0.367597  0.064272  0.438828  -0.668836
    C   C30  0.426614  0.129659  0.451721  0.807002
    O   O9   0.458397  0.863106  0.684816  -0.668938
    O   O10  0.569140  0.915945  0.572529  -0.518620
    C   C31  0.514214  0.846599  0.597588  0.747944
    O   O11  0.581084  0.031998  0.839434  -0.561815
    O   O12  0.554059  0.887664  0.920907  -0.563787
    C   C32  0.600981  0.966125  0.901787  0.696944
    O   O13  0.342677  0.093700  0.819050  -0.555884
    O   O14  0.486372  0.088374  0.648244  -0.551233
    C   C33  0.502043  0.177083  0.695990  0.679526
    O   O15  0.398712  0.989009  0.912723  -0.540124
    C   C34  0.340429  0.038120  0.907863  0.628865
    O   O16  0.503024  0.192696  0.814862  -0.487159
    Fe  Fe2  0.480062  0.994425  0.771560  1.408485
    C   C35  0.351148  0.262333  0.463985  -0.119980
    C   C36  0.412929  0.227314  0.501380  -0.010440
    C   C37  0.469299  0.290919  0.552909  0.120793
    C   C38  0.522165  0.259946  0.620604  -0.162354
    C   C39  0.586999  0.322422  0.644117  0.075037
    C   C40  0.351293  0.358919  0.456883  -0.112605
    C   C41  0.415108  0.422436  0.483160  0.031210
    C   C42  0.471876  0.388697  0.537936  0.009176
    C   C43  0.531605  0.452756  0.576755  0.050174
    C   C44  0.377324  0.549856  0.378638  -0.141018
    C   C45  0.423098  0.518517  0.455947  0.081621
    C   C46  0.479142  0.584251  0.504316  0.007894
    C   C47  0.389423  0.642447  0.346804  -0.119722
    C   C48  0.442450  0.710157  0.397635  -0.045001
    C   C49  0.592169  0.416805  0.618804  -0.164880
    C   C50  0.531069  0.551275  0.570258  0.041692
    C   C51  0.579956  0.617717  0.632825  -0.150414
    C   C52  0.482967  0.682547  0.487823  0.079790
    C   C53  0.528367  0.747340  0.560820  0.007214
    C   C54  0.575806  0.713553  0.631226  -0.070014
    H   H10  0.301085  0.380874  0.426214  0.109706
    H   H11  0.336200  0.502339  0.330599  0.141746
    H   H12  0.356413  0.661219  0.278673  0.134164
    H   H13  0.645393  0.461151  0.631668  0.123137
    H   H14  0.616003  0.598566  0.696005  0.137373
    H   H15  0.305319  0.213830  0.427604  0.125409
    H   H16  0.606772  0.763409  0.693333  0.134902
    C   C55  0.730374  0.950199  0.708963  -0.010374
    C   C56  0.770366  0.860819  0.661842  0.125185
    C   C57  0.765620  0.838314  0.525776  -0.206197
    H   H17  0.704856  0.830224  0.506600  0.049173
    H   H18  0.798542  0.897336  0.475576  0.037240
    H   H19  0.790916  0.770405  0.494223  0.038461
    H   H20  0.831922  0.869586  0.675988  -0.035862
    H   H21  0.741561  0.799051  0.711069  -0.012197
    H   H22  0.669651  0.929147  0.698562  -0.015504
    H   H23  0.749299  0.009218  0.649518  0.107948
    C   C58  0.654766  0.289325  0.690733  -0.146097
    C   C59  0.694007  0.222148  0.592814  0.384131
    C   C60  0.776056  0.217627  0.617892  -0.360888
    H   H24  0.810011  0.289005  0.609652  0.074821
    H   H25  0.775928  0.195939  0.711442  0.059743
    H   H26  0.802905  0.164338  0.550007  0.044476
    H   H27  0.662033  0.149101  0.592243  -0.064168
    H   H28  0.695247  0.249594  0.502102  -0.061182
    H   H29  0.697004  0.352139  0.711827  0.038997
    H   H30  0.638754  0.253867  0.776432  0.073417
