# generated using pymatgen
data_CuH10C18NO4
_symmetry_space_group_name_H-M   'P 1'
_cell_length_a   11.80676200
_cell_length_b   12.21291800
_cell_length_c   13.35139100
_cell_angle_alpha   116.50868700
_cell_angle_beta   78.99391200
_cell_angle_gamma   102.04092400
_symmetry_Int_Tables_number   1
_chemical_formula_structural   CuH10C18NO4
_chemical_formula_sum   'Cu2 H20 C36 N2 O8'
_cell_volume   1674.34327355
_cell_formula_units_Z   2
loop_
 _symmetry_equiv_pos_site_id
 _symmetry_equiv_pos_as_xyz
  1  'x, y, z'
loop_
 _atom_site_type_symbol
 _atom_site_label
 _atom_site_symmetry_multiplicity
 _atom_site_fract_x
 _atom_site_fract_y
 _atom_site_fract_z
 _atom_site_occupancy
  Cu  Cu1  1  0.54355900  0.09008500  0.47970600  1
  Cu  Cu2  1  0.49588100  0.89305400  0.52674700  1
  H  H1  1  0.28353500  0.45878700  0.19972300  1
  H  H2  1  0.27912200  0.25540700  0.07179100  1
  H  H3  1  0.58141300  0.36240400  0.81174900  1
  H  H4  1  0.68980000  0.89760300  0.13457200  1
  H  H5  1  0.65647900  0.54513200  0.86627100  1
  H  H6  1  0.74199400  0.75570800  0.94078100  1
  H  H7  1  0.36352400  0.67054300  0.26286400  1
  H  H8  1  0.72152400  0.16592900  0.32647800  1
  H  H9  1  0.75056000  0.54483900  0.31790200  1
  H  H10  1  0.77825100  0.34711100  0.28667200  1
  H  H11  1  0.44818500  0.32485900  0.56263000  1
  H  H12  1  0.31564100  0.81916200  0.66951500  1
  H  H13  1  0.35292600  0.47155700  0.63811500  1
  H  H14  1  0.25146200  0.64623000  0.71958700  1
  H  H15  1  0.64978200  0.71727700  0.40836300  1
  H  H16  1  0.15178000  0.11154500  0.86744400  1
  H  H17  1  0.24415000  0.04792700  0.73689600  1
  H  H18  1  0.15999700  0.94782000  0.79959200  1
  H  H19  1  0.36625100  0.98822600  0.84135000  1
  H  H20  1  0.27041200  0.05440400  0.96325000  1
  C  C1  1  0.54332800  0.84843600  0.29094700  1
  C  C2  1  0.73721000  0.00429300  0.51380400  1
  C  C3  1  0.48876500  0.13451600  0.71538700  1
  C  C4  1  0.30232600  0.97933000  0.49284800  1
  C  C5  1  0.85895800  0.00245700  0.51073100  1
  C  C6  1  0.96045200  0.99613400  0.50612300  1
  C  C7  1  0.07902200  0.98679600  0.49994800  1
  C  C8  1  0.18053700  0.98068600  0.49552500  1
  C  C9  1  0.34725200  0.27826100  0.01472100  1
  C  C10  1  0.46123300  0.22001500  0.83520500  1
  C  C11  1  0.64401000  0.80441800  0.10192100  1
  C  C12  1  0.67475900  0.72401100  0.99305700  1
  C  C13  1  0.62473300  0.60210200  0.95125000  1
  C  C14  1  0.53759900  0.55866600  0.01659800  1
  C  C15  1  0.50170300  0.64322400  0.12502400  1
  C  C16  1  0.48495200  0.43384400  0.97725600  1
  C  C17  1  0.39781500  0.39917400  0.04684900  1
  C  C18  1  0.35632500  0.48538700  0.14854700  1
  C  C19  1  0.40527800  0.60641500  0.18598700  1
  C  C20  1  0.51530100  0.34207300  0.87072700  1
  C  C21  1  0.37740000  0.18752800  0.91040600  1
  C  C22  1  0.55991800  0.76457700  0.16994100  1
  C  C23  1  0.70390600  0.34441700  0.34737500  1
  C  C24  1  0.36563200  0.74339500  0.63309900  1
  C  C25  1  0.32853800  0.64529400  0.66075500  1
  C  C26  1  0.38774900  0.54528700  0.61304400  1
  C  C27  1  0.48519200  0.54255600  0.53531400  1
  C  C28  1  0.52074900  0.64506700  0.50997400  1
  C  C29  1  0.54718200  0.44004500  0.48101700  1
  C  C30  1  0.64178000  0.44258900  0.40262800  1
  C  C31  1  0.67614400  0.54318500  0.37883000  1
  C  C32  1  0.61708300  0.64281500  0.43174000  1
  C  C33  1  0.51862000  0.33424600  0.50164000  1
  C  C34  1  0.67188100  0.24243000  0.36949800  1
  C  C35  1  0.30971100  0.06142600  0.88367300  1
  C  C36  1  0.21029900  0.04073000  0.81718600  1
  N  N1  1  0.57944300  0.23792300  0.44441000  1
  N  N2  1  0.46198600  0.74521900  0.56109700  1
  O  O1  1  0.56342900  0.96853400  0.32295900  1
  O  O2  1  0.51677900  0.79982600  0.36342500  1
  O  O3  1  0.70556400  0.08276000  0.48626800  1
  O  O4  1  0.66306000  0.92120900  0.53714000  1
  O  O5  1  0.52387600  0.18369300  0.64317900  1
  O  O6  1  0.47297000  0.01429300  0.68323900  1
  O  O7  1  0.37610000  0.06461600  0.47180800  1
  O  O8  1  0.33398000  0.89852600  0.51795500  1
