# Generated by REPEAT Assigner based on pymatgen
data_DB0-m3_o24_o52_f0_fsc.sym.99
_audit_creation_date              2022-05-24
_audit_creation_method            REPEAT_Assigner
_cell_length_a                    8.542059
_cell_length_b                    15.008901
_cell_length_c                    9.172763
_cell_angle_alpha                 90.961531
_cell_angle_beta                  90.081090
_cell_angle_gamma                 90.017545
_cell_volume                      1175.844866
_symmetry_space_group_name_H-M    P1
_symmetry_Int_Tables_number       1
loop_
    _symmetry_equiv_pos_site_id
    _symmetry_equiv_pos_as_xyz
    1  x,y,z
loop_
    _atom_site_type_symbol
    _atom_site_label
    _atom_site_fract_x
    _atom_site_fract_y
    _atom_site_fract_z
    _atom_type_partial_charge
    H   H1   0.003416  0.563555  0.055491  0.106347
    H   H2   0.003081  0.437901  0.947310  0.062349
    C   C1   0.143228  0.676791  0.015705  -0.181824
    C   C2   0.863271  0.324616  0.986682  -0.086247
    C   C3   0.144238  0.767733  0.996812  0.157682
    C   C4   0.862240  0.233645  0.005248  0.089082
    H   H3   0.254915  0.802134  0.988376  0.014233
    H   H4   0.751557  0.199236  0.013509  -0.000837
    C   C5   0.003542  0.813991  0.993817  -0.448106
    C   C6   0.002934  0.187379  0.008166  -0.409952
    C   C7   0.862948  0.767528  0.994361  0.079956
    C   C8   0.143529  0.233844  0.007755  0.069377
    H   H5   0.752302  0.801797  0.984497  0.035700
    H   H6   0.254179  0.199569  0.017506  0.012248
    C   C9   0.863946  0.676565  0.012983  -0.116662
    C   C10  0.142524  0.324832  0.989425  -0.123363
    C   C11  0.003487  0.633417  0.033136  -0.062648
    C   C12  0.003002  0.368010  0.969444  -0.006656
    N   N1   0.867176  0.956560  0.996498  -0.330180
    N   N2   0.139300  0.044809  0.005321  -0.308661
    N   N3   0.867009  0.044624  0.002802  -0.316699
    N   N4   0.139467  0.956744  0.999016  -0.346430
    C   C13  0.003062  0.089750  0.007972  0.858566
    C   C14  0.003414  0.911619  0.993858  0.879067
    O   O1   0.673239  0.588302  0.130795  -0.761484
    O   O2   0.333166  0.413133  0.871697  -0.792495
    O   O3   0.666152  0.598020  0.880091  -0.731610
    O   O4   0.340358  0.403361  0.122240  -0.796837
    C   C15  0.721706  0.622523  0.008307  0.920713
    C   C16  0.284750  0.378867  0.994101  0.942282
    O   O5   0.671433  0.412863  0.869231  -0.695946
    O   O6   0.335020  0.588512  0.133224  -0.707713
    O   O7   0.667124  0.403301  0.119973  -0.722079
    O   O8   0.339475  0.598173  0.882401  -0.712409
    C   C17  0.721099  0.378638  0.991488  0.807803
    C   C18  0.285426  0.622774  0.010928  0.881910
    Zn  Zn1  0.502215  0.504242  0.838886  1.052304
    Zn  Zn2  0.504257  0.497138  0.163549  0.978483
    C   C19  0.445085  0.572464  0.544906  -0.286858
    C   C20  0.560839  0.428958  0.457939  -0.157021
    C   C21  0.366499  0.505598  0.446441  0.030882
    C   C22  0.639620  0.495712  0.555875  -0.070680
    H   H7   0.248221  0.507515  0.396683  0.089031
    H   H8   0.758264  0.490618  0.604253  0.083469
    N   N5   0.505995  0.494698  0.354979  0.267610
    N   N6   0.500437  0.506571  0.647473  0.346619
    C   C23  0.583699  0.562557  0.446702  0.045351
    C   C24  0.422583  0.438744  0.555956  -0.175016
    H   H9   0.652303  0.617885  0.400163  0.084964
    H   H10  0.354102  0.383391  0.602571  0.144448
    C   C25  0.385154  0.660407  0.599338  0.696753
    O   O9   0.471931  0.709518  0.669204  -0.446502
    N   N7   0.227996  0.687668  0.571217  -0.721492
    H   H11  0.173399  0.697847  0.671885  0.328321
    H   H12  0.169694  0.635883  0.516983  0.279689
    C   C26  0.628654  0.342160  0.408408  0.818852
    O   O10  0.767784  0.327536  0.425496  -0.552141
    N   N8   0.529472  0.274379  0.348385  -0.819405
    H   H13  0.567628  0.259944  0.242566  0.408093
    H   H14  0.416373  0.300401  0.342671  0.315766
