# Generated by REPEAT Assigner based on pymatgen
data_DB0-m2_o17_o29_f0_pcu.sym.50_sqe
_audit_creation_date              2022-05-24
_audit_creation_method            REPEAT_Assigner
_cell_length_a                    14.947628
_cell_length_b                    13.527510
_cell_length_c                    27.543057
_cell_angle_alpha                 90.000000
_cell_angle_beta                  89.984253
_cell_angle_gamma                 90.000000
_cell_volume                      5569.321161
_symmetry_space_group_name_H-M    P1
_symmetry_Int_Tables_number       1
loop_
    _symmetry_equiv_pos_site_id
    _symmetry_equiv_pos_as_xyz
    1  x,y,z
loop_
    _atom_site_type_symbol
    _atom_site_label
    _atom_site_fract_x
    _atom_site_fract_y
    _atom_site_fract_z
    _atom_type_partial_charge
    O   O1   0.368990  0.583010  0.497227  -0.665545
    O   O2   0.630971  0.417426  0.502476  -0.662872
    O   O3   0.628980  0.587266  0.497427  -0.649567
    O   O4   0.370986  0.413024  0.502115  -0.651508
    C   C1   0.328289  0.497540  0.499605  0.868297
    C   C2   0.671596  0.502812  0.500048  0.861717
    O   O5   0.502226  0.583204  0.428608  -0.564114
    O   O6   0.497503  0.417273  0.571034  -0.566131
    O   O7   0.501859  0.587065  0.569698  -0.590684
    O   O8   0.498243  0.413233  0.429944  -0.591746
    C   C3   0.500250  0.497599  0.406486  0.641906
    C   C4   0.499636  0.502826  0.593170  0.644980
    Cu  Cu1  0.499508  0.599061  0.498989  0.906596
    Cu  Cu2  0.500927  0.401344  0.500654  0.902844
    C   C5   0.424046  0.519684  0.176932  0.462663
    C   C6   0.572537  0.470472  0.823126  0.462374
    O   O9   0.349461  0.542098  0.201865  -0.530136
    O   O10  0.644024  0.438141  0.798143  -0.527462
    N   N1   0.498805  0.494363  0.201138  -0.194775
    N   N2   0.501103  0.505960  0.798968  -0.192567
    C   C7   0.573792  0.469989  0.176869  0.450990
    C   C8   0.429679  0.540635  0.823452  0.449799
    C   C9   0.488675  0.582566  0.277723  -0.198901
    C   C10  0.503796  0.417189  0.722187  -0.202810
    C   C11  0.489556  0.583533  0.327741  -0.091130
    C   C12  0.503177  0.416391  0.672137  -0.081820
    C   C13  0.509699  0.408261  0.328311  -0.117727
    C   C14  0.496663  0.592801  0.671601  -0.105335
    C   C15  0.509712  0.407779  0.278267  -0.159550
    C   C16  0.496837  0.593333  0.721701  -0.165096
    C   C17  0.498873  0.494809  0.252859  0.277652
    C   C18  0.500648  0.505563  0.747156  0.275447
    C   C19  0.499353  0.496763  0.101105  0.106839
    C   C20  0.500857  0.503627  0.899137  0.113614
    C   C21  0.423466  0.521268  0.126722  -0.119064
    C   C22  0.573235  0.468922  0.873379  -0.122937
    C   C23  0.346906  0.546133  0.102080  -0.061435
    C   C24  0.645782  0.431831  0.897912  -0.058419
    C   C25  0.574907  0.470826  0.126648  -0.118932
    C   C26  0.428695  0.539764  0.873706  -0.124327
    C   C27  0.499798  0.496304  0.353308  -0.022966
    C   C28  0.499808  0.504187  0.646480  -0.037690
    H   H1   0.518551  0.339102  0.347317  0.122896
    H   H2   0.493905  0.662502  0.652518  0.119980
    H   H3   0.517840  0.338776  0.258965  0.133764
    H   H4   0.494866  0.662934  0.740978  0.135456
    H   H5   0.285722  0.563552  0.121128  0.135182
    H   H6   0.702854  0.402250  0.878721  0.133857
    C   C29  0.425420  0.534183  0.974843  0.048215
    C   C30  0.576442  0.470923  0.025453  0.043827
    C   C31  0.575286  0.468045  0.974590  0.053150
    C   C32  0.423469  0.527717  0.025602  0.050517
    C   C33  0.500519  0.501938  0.949687  0.018538
    C   C34  0.499757  0.498460  0.050560  0.025018
    C   C35  0.354228  0.573218  0.948363  -0.188452
    C   C36  0.652853  0.447635  0.052133  -0.187884
    C   C37  0.355862  0.575337  0.898578  -0.045461
    C   C38  0.651792  0.447464  0.101928  -0.049545
    O   O11  0.358203  0.573898  0.798784  -0.519830
    O   O12  0.648270  0.446927  0.201741  -0.522821
    C   C39  0.346530  0.548856  0.052293  -0.184883
    C   C40  0.647001  0.431208  0.947718  -0.182996
    H   H7   0.505701  0.346185  0.653439  0.109772
    H   H8   0.481848  0.653383  0.346352  0.111887
    H   H9   0.505983  0.348080  0.741820  0.146450
    H   H10  0.481280  0.651089  0.257948  0.145471
    H   H11  0.298909  0.605955  0.879692  0.127079
    H   H12  0.712698  0.428733  0.120919  0.127716
    H   H13  0.296085  0.606036  0.964652  0.133364
    H   H14  0.716591  0.431182  0.036084  0.136008
    H   H15  0.282885  0.565399  0.036150  0.133528
    H   H16  0.705386  0.398294  0.963646  0.130318
    C   C41  0.815223  0.533663  0.459996  -0.213210
    C   C42  0.184660  0.466396  0.539711  -0.214384
    C   C43  0.769098  0.503682  0.500447  -0.118187
    C   C44  0.230741  0.496632  0.499280  -0.121463
    C   C45  0.814566  0.472433  0.541073  -0.140787
    C   C46  0.185171  0.527734  0.458692  -0.136484
    C   C47  0.907625  0.473794  0.542234  0.016922
    C   C48  0.092108  0.526457  0.457649  0.014877
    C   C49  0.953701  0.500879  0.500499  -0.039370
    C   C50  0.046017  0.499469  0.499420  -0.042210
    C   C51  0.907353  0.530220  0.459644  0.252634
    C   C52  0.092498  0.470055  0.540213  0.254971
    C   C53  0.954841  0.448669  0.584252  0.129551
    C   C54  0.044959  0.551540  0.415649  0.135849
    C   C55  0.047607  0.445117  0.582123  -0.361808
    C   C56  0.952269  0.555201  0.417758  -0.363274
    H   H17  0.778558  0.556101  0.427995  0.118527
    H   H18  0.221524  0.443250  0.571493  0.117837
    H   H19  0.774597  0.448149  0.571433  0.100838
    H   H20  0.224875  0.551468  0.428193  0.099084
    H   H21  0.087832  0.423071  0.612733  0.130422
    H   H22  0.912404  0.577454  0.387096  0.130834
    C   C57  0.444873  0.796069  0.529724  -0.135210
    C   C58  0.555946  0.204338  0.470199  -0.145864
    C   C59  0.552131  0.796383  0.467685  -0.154804
    C   C60  0.448715  0.204022  0.532257  -0.153681
    N   N3   0.496569  0.746898  0.497913  0.015271
    N   N4   0.503329  0.253474  0.501858  0.020688
    C   C61  0.553462  0.898480  0.467654  0.156028
    C   C62  0.446679  0.101854  0.532019  0.147971
    C   C63  0.444635  0.897990  0.530509  0.139067
    C   C64  0.555504  0.102494  0.469147  0.141580
    C   C65  0.499385  0.949362  0.499349  0.014403
    C   C66  0.500377  0.051071  0.500102  0.022264
    C   C67  0.608671  0.950018  0.436317  -0.200562
    C   C68  0.391357  0.050409  0.563334  -0.195585
    C   C69  0.390065  0.948380  0.562392  -0.192265
    C   C70  0.609922  0.051988  0.437234  -0.193981
    H   H23  0.402513  0.755556  0.554595  0.145786
    H   H24  0.599341  0.244713  0.445852  0.149904
    H   H25  0.595255  0.755979  0.443308  0.151540
    H   H26  0.406791  0.244697  0.557193  0.153830
    H   H27  0.651190  0.911396  0.410897  0.140173
    H   H28  0.349138  0.089649  0.588686  0.138537
    H   H29  0.346355  0.907822  0.586554  0.142189
    H   H30  0.653835  0.091874  0.412946  0.142769
    C   C71  0.904977  0.427937  0.630963  -0.092881
    C   C72  0.963771  0.416803  0.675779  -0.002867
    C   C73  0.904921  0.408167  0.720506  0.232816
    C   C74  0.962653  0.397335  0.765396  -0.311448
    H   H31  0.865218  0.359266  0.626690  0.036090
    H   H32  0.859006  0.490563  0.638278  0.027298
    H   H33  0.007056  0.482875  0.679979  0.022049
    H   H34  0.004869  0.348815  0.672744  0.018591
    H   H35  0.860830  0.342599  0.717098  -0.031390
    H   H36  0.863209  0.475524  0.724294  -0.024546
    H   H37  0.004754  0.330148  0.762236  0.050139
    H   H38  0.919085  0.390705  0.797838  0.072393
    H   H39  0.006072  0.463312  0.769407  0.058394
    C   C75  0.094962  0.572223  0.369048  -0.103885
    C   C76  0.036314  0.582921  0.324181  -0.000826
    C   C77  0.094931  0.591548  0.279338  0.221836
    C   C78  0.036767  0.602347  0.234554  -0.314943
    H   H40  0.140987  0.509561  0.361948  0.030269
    H   H41  0.134342  0.641110  0.373449  0.039200
    H   H42  0.995062  0.650816  0.327118  0.020812
    H   H43  0.993114  0.516744  0.320049  0.022132
    H   H44  0.136696  0.524227  0.275500  -0.016870
    H   H45  0.138989  0.657165  0.282679  -0.030991
    H   H46  0.993311  0.536374  0.230675  0.061828
    H   H47  0.079861  0.609085  0.201937  0.073630
    H   H48  0.994561  0.669423  0.237841  0.051360
