# Generated by REPEAT Assigner based on pymatgen
data_DB0-m29_o81_o51_f0_pts.sym.56
_audit_creation_date              2022-05-24
_audit_creation_method            REPEAT_Assigner
_cell_length_a                    16.069082
_cell_length_b                    9.419224
_cell_length_c                    17.421882
_cell_angle_alpha                 89.207847
_cell_angle_beta                  84.422596
_cell_angle_gamma                 108.624012
_cell_volume                      2484.216245
_symmetry_space_group_name_H-M    P1
_symmetry_Int_Tables_number       1
loop_
    _symmetry_equiv_pos_site_id
    _symmetry_equiv_pos_as_xyz
    1  x,y,z
loop_
    _atom_site_type_symbol
    _atom_site_label
    _atom_site_fract_x
    _atom_site_fract_y
    _atom_site_fract_z
    _atom_type_partial_charge
    C   C1   0.880152  0.998093  0.886455  -0.220629
    C   C2   0.269890  0.955586  0.941312  -0.076377
    C   C3   0.187799  0.939788  0.914809  0.017635
    C   C4   0.119372  0.962330  0.964438  0.052408
    C   C5   0.038714  0.958345  0.939454  -0.234499
    C   C6   0.973336  0.989346  0.988660  0.003243
    C   C7   0.800514  0.999622  0.864366  -0.145316
    C   C8   0.730853  0.990763  0.918536  0.072478
    C   C9   0.893322  0.994750  0.964190  0.132589
    C   C10  0.825760  0.003421  0.018682  0.051007
    C   C11  0.742640  0.992199  0.996237  -0.032239
    C   C12  0.280030  0.983424  0.018681  0.011330
    C   C13  0.211551  0.001090  0.066943  -0.281578
    C   C14  0.132519  0.992521  0.040207  0.251052
    C   C15  0.066676  0.014958  0.090212  -0.317530
    C   C16  0.987700  0.012478  0.064988  0.222262
    C   C17  0.923857  0.035614  0.116877  -0.237566
    C   C18  0.843296  0.029150  0.094553  -0.093063
    H   H1   0.931249  0.004922  0.840481  0.141004
    H   H2   0.025844  0.926524  0.882217  0.130195
    H   H3   0.791287  0.999310  0.803715  0.137593
    H   H4   0.221614  0.027102  0.126270  0.160124
    H   H5   0.077383  0.036116  0.149877  0.162878
    H   H6   0.936189  0.057339  0.176186  0.146454
    H   H7   0.797376  0.053144  0.137494  0.117832
    O   O1   0.605812  0.038169  0.036193  -0.513130
    C   C19  0.666218  0.979552  0.053064  0.500767
    O   O2   0.486108  0.702084  0.106689  -0.410844
    O   O3   0.654854  0.901090  0.118236  -0.480880
    O   O4   0.490742  0.854082  0.206839  -0.554593
    C   C20  0.484144  0.721028  0.181263  0.533439
    Fe  Fe1  0.506777  0.999237  0.118954  1.445833
    O   O5   0.395018  0.908091  0.069902  -0.586174
    O   O6   0.406523  0.154801  0.065940  -0.515441
    C   C21  0.364819  0.016212  0.050011  0.695718
    O   O7   0.531447  0.202751  0.162491  -0.627095
    O   O8   0.415848  0.071653  0.248786  -0.562642
    C   C22  0.473042  0.199544  0.220954  0.662491
    O   O9   0.465190  0.770651  0.777363  -0.596207
    O   O10  0.554795  0.883915  0.669627  -0.564790
    C   C23  0.503884  0.761855  0.708513  0.599047
    O   O11  0.628630  0.063787  0.846472  -0.591678
    O   O12  0.579199  0.841046  0.915294  -0.462525
    C   C24  0.643400  0.965019  0.892628  0.554039
    O   O13  0.341761  0.961245  0.811487  -0.498464
    O   O14  0.511636  0.118715  0.727027  -0.515983
    C   C25  0.498188  0.240681  0.753493  0.559410
    O   O15  0.422722  0.959086  0.909123  -0.452311
    C   C26  0.346447  0.954640  0.886124  0.545021
    O   O16  0.486121  0.253358  0.828331  -0.520140
    Fe  Fe2  0.506092  0.979603  0.815042  1.431188
    C   C27  0.498088  0.363314  0.700452  0.037027
    C   C28  0.504305  0.346654  0.621722  -0.198081
    H   H8   0.506090  0.241098  0.600259  0.159507
    C   C29  0.505715  0.462627  0.571332  0.096629
    C   C30  0.504856  0.597971  0.600194  -0.152814
    H   H9   0.510176  0.691567  0.561289  0.130121
    C   C31  0.498290  0.615202  0.678713  0.030596
    C   C32  0.492964  0.496999  0.728894  -0.164424
    C   C33  0.509942  0.444389  0.487422  0.100599
    C   C34  0.458617  0.496329  0.446190  -0.297969
    C   C35  0.470065  0.607538  0.313966  -0.239488
    H   H10  0.470594  0.712451  0.338607  0.170036
    C   C36  0.478090  0.595266  0.234527  0.106685
    C   C37  0.482235  0.462509  0.204594  -0.281932
    C   C38  0.470469  0.339595  0.253036  0.160317
    C   C39  0.456626  0.349040  0.331316  -0.374495
    H   H11  0.441744  0.249566  0.368146  0.183895
    C   C40  0.462732  0.485048  0.362251  0.288788
    H   H12  0.489585  0.512533  0.790304  0.162855
    H   H13  0.491346  0.451768  0.142944  0.221239
    H   H14  0.413330  0.548056  0.474565  0.130370
    N   N1   0.579958  0.402556  0.448731  -0.004665
    C   C41  0.664545  0.487152  0.472135  -0.284735
    C   C42  0.566053  0.243574  0.452484  -0.108338
    H   H15  0.673085  0.608566  0.466819  0.113269
    H   H16  0.717673  0.464135  0.433939  0.119270
    H   H17  0.669750  0.456451  0.532749  0.104971
    H   H18  0.497334  0.181827  0.476658  0.067215
    H   H19  0.612970  0.217755  0.488640  0.086246
    H   H20  0.577419  0.206065  0.393470  0.063063
    N   N2   0.176030  0.903461  0.837111  0.225089
    C   C43  0.169922  0.024503  0.788406  -0.163205
    C   C44  0.115462  0.755319  0.828037  -0.287491
    H   H21  0.174224  0.123960  0.823082  0.077868
    H   H22  0.107648  0.993131  0.760909  0.066408
    H   H23  0.225892  0.055544  0.742106  0.088309
    H   H24  0.085409  0.701406  0.885525  0.097327
    H   H25  0.152553  0.686128  0.799292  0.105949
    H   H26  0.062288  0.757982  0.792652  0.118647
