# generated using pymatgen
data_FeH15C33N2O9
_symmetry_space_group_name_H-M   'P 1'
_cell_length_a   17.38287900
_cell_length_b   14.22618500
_cell_length_c   16.78198200
_cell_angle_alpha   91.67360700
_cell_angle_beta   91.05822200
_cell_angle_gamma   99.35851000
_symmetry_Int_Tables_number   1
_chemical_formula_structural   FeH15C33N2O9
_chemical_formula_sum   'Fe2 H30 C66 N4 O18'
_cell_volume   4091.93326268
_cell_formula_units_Z   2
loop_
 _symmetry_equiv_pos_site_id
 _symmetry_equiv_pos_as_xyz
  1  'x, y, z'
loop_
 _atom_site_type_symbol
 _atom_site_label
 _atom_site_symmetry_multiplicity
 _atom_site_fract_x
 _atom_site_fract_y
 _atom_site_fract_z
 _atom_site_occupancy
  Fe  Fe1  1  0.52467300  0.99230300  0.34694100  1
  Fe  Fe2  1  0.47499500  0.98989200  0.65050700  1
  H  H1  1  0.03690300  0.92073800  0.24990100  1
  H  H2  1  0.73865600  0.95392900  0.02302700  1
  H  H3  1  0.96679100  0.07482800  0.74394300  1
  H  H4  1  0.26251400  0.03735300  0.96733800  1
  H  H5  1  0.95715900  0.92995100  0.03476100  1
  H  H6  1  0.04527100  0.06451800  0.95895900  1
  H  H7  1  0.06074200  0.02720500  0.66386100  1
  H  H8  1  0.29143600  0.99913400  0.83429500  1
  H  H9  1  0.29460800  0.92408000  0.32034700  1
  H  H10  1  0.15539000  0.90568400  0.29402600  1
  H  H11  1  0.94045400  0.96675400  0.32943300  1
  H  H12  1  0.70814300  0.98774000  0.15887800  1
  H  H13  1  0.66338100  0.95325800  0.90995200  1
  H  H14  1  0.70042500  0.06728800  0.67801700  1
  H  H15  1  0.18250600  0.00303200  0.60266500  1
  H  H16  1  0.81808700  0.98790300  0.39057800  1
  H  H17  1  0.34994300  0.39740200  0.36180300  1
  H  H18  1  0.37032900  0.54149500  0.35037000  1
  H  H19  1  0.39773300  0.70648400  0.34058400  1
  H  H20  1  0.64781900  0.44129000  0.62932600  1
  H  H21  1  0.63163000  0.57824600  0.65520500  1
  H  H22  1  0.62028800  0.27521000  0.64344600  1
  H  H23  1  0.35832400  0.23474700  0.34707600  1
  H  H24  1  0.62675600  0.74200300  0.66502100  1
  H  H25  1  0.83933000  0.22146900  0.76000400  1
  H  H26  1  0.80573100  0.22390600  0.65725800  1
  H  H27  1  0.90901600  0.24041400  0.68155700  1
  H  H28  1  0.33245700  0.88537100  0.04947100  1
  H  H29  1  0.43374800  0.93960400  0.06384900  1
  H  H30  1  0.38118500  0.95783900  0.97324800  1
  C  C1  1  0.22058000  0.98654500  0.11599400  1
  C  C2  1  0.17005100  0.95589000  0.17448200  1
  C  C3  1  0.09560500  0.95624600  0.14517700  1
  C  C4  1  0.17496900  0.00183700  0.05034800  1
  C  C5  1  0.03093500  0.93809900  0.18814600  1
  C  C6  1  0.95224800  0.95027300  0.16074400  1
  C  C7  1  0.89226600  0.96406700  0.21045700  1
  C  C8  1  0.82881800  0.97054600  0.16366600  1
  C  C9  1  0.85121600  0.96071200  0.08528100  1
  C  C10  1  0.80086900  0.96383600  0.01419100  1
  C  C11  1  0.82791800  0.98850300  0.94223100  1
  C  C12  1  0.78221500  0.00252000  0.87702900  1
  C  C13  1  0.83140500  0.03751300  0.81874400  1
  C  C14  1  0.90652400  0.03870000  0.84797600  1
  C  C15  1  0.97148500  0.05773900  0.80559600  1
  C  C16  1  0.04948000  0.04376200  0.83292700  1
  C  C17  1  0.10874400  0.02829600  0.78291900  1
  C  C18  1  0.17176100  0.01998400  0.82950500  1
  C  C19  1  0.14995800  0.03048700  0.90786500  1
  C  C20  1  0.20098700  0.02662700  0.97805900  1
  C  C21  1  0.11088500  0.02124200  0.70117700  1
  C  C22  1  0.18010500  0.00725400  0.66693200  1
  C  C23  1  0.24557200  0.99928100  0.71392800  1
  C  C24  1  0.24130400  0.00458800  0.79678000  1
  C  C25  1  0.30062600  0.99765200  0.12976900  1
  C  C26  1  0.32665000  0.97661500  0.20473700  1
  C  C27  1  0.27412100  0.94083500  0.26210600  1
  C  C28  1  0.19509700  0.93127900  0.24782000  1
  C  C29  1  0.88997000  0.97122300  0.29212900  1
  C  C30  1  0.82031100  0.98349400  0.32631100  1
  C  C31  1  0.75425700  0.98940800  0.27942400  1
  C  C32  1  0.75859500  0.98388900  0.19643800  1
  C  C33  1  0.70241400  0.98467500  0.86511500  1
  C  C34  1  0.67334600  0.00763800  0.79234600  1
  C  C35  1  0.72320300  0.04935600  0.73494100  1
  C  C36  1  0.80274900  0.06434700  0.74710600  1
  C  C37  1  0.68021800  0.99623500  0.31937200  1
  C  C38  1  0.51489700  0.81880400  0.40420100  1
  C  C39  1  0.40905800  0.99435800  0.22769100  1
  C  C40  1  0.46013200  0.14120700  0.41135200  1
  C  C41  1  0.39574900  0.27754200  0.39116100  1
  C  C42  1  0.44763800  0.23725300  0.43583500  1
  C  C43  1  0.49305700  0.29249100  0.49402800  1
  C  C44  1  0.53107400  0.25066900  0.55348700  1
  C  C45  1  0.58832100  0.30684300  0.59837300  1
  C  C46  1  0.39375800  0.37330700  0.39823500  1
  C  C47  1  0.44769100  0.43305700  0.44709400  1
  C  C48  1  0.49721100  0.39150800  0.49587600  1
  C  C49  1  0.54997700  0.44813400  0.54753100  1
  C  C50  1  0.41016100  0.57786700  0.39502700  1
  C  C51  1  0.45336200  0.53263500  0.44792600  1
  C  C52  1  0.50440600  0.58911000  0.50151300  1
  C  C53  1  0.42422900  0.67473100  0.38962900  1
  C  C54  1  0.47675300  0.73072400  0.43986100  1
  C  C55  1  0.60060600  0.40381900  0.59281600  1
  C  C56  1  0.55119700  0.54690700  0.55293100  1
  C  C57  1  0.59724600  0.60474300  0.60982300  1
  C  C58  1  0.50969800  0.68844400  0.50277900  1
  C  C59  1  0.55093000  0.74291400  0.56442400  1
  C  C60  1  0.59547200  0.70054400  0.61610300  1
  C  C61  1  0.59063600  0.98767000  0.77170500  1
  C  C62  1  0.53911500  0.83991900  0.58652400  1
  C  C63  1  0.31942100  0.99063900  0.67479300  1
  C  C64  1  0.49419400  0.16459200  0.59295300  1
  C  C65  1  0.85075700  0.20225600  0.69730900  1
  C  C66  1  0.37628800  0.94924500  0.03851200  1
  N  N1  1  0.09855800  0.98361400  0.06880400  1
  N  N2  1  0.92641900  0.94693300  0.08428300  1
  N  N3  1  0.90416500  0.00972500  0.92405100  1
  N  N4  1  0.07538300  0.04643300  0.90931700  1
  O  O1  1  0.61726900  0.00790000  0.27861700  1
  O  O2  1  0.53293000  0.81306300  0.32884200  1
  O  O3  1  0.67563600  0.98460900  0.39650700  1
  O  O4  1  0.51293800  0.90357800  0.43619500  1
  O  O5  1  0.43271600  0.93552400  0.27750300  1
  O  O6  1  0.45140200  0.07796100  0.21685700  1
  O  O7  1  0.53065500  0.12445500  0.39456300  1
  O  O8  1  0.39948900  0.07500700  0.39587600  1
  O  O9  1  0.56561800  0.04575700  0.72213700  1
  O  O10  1  0.55006900  0.90308000  0.78275200  1
  O  O11  1  0.46886200  0.85737700  0.60343200  1
  O  O12  1  0.60013400  0.90549400  0.60234000  1
  O  O13  1  0.47929300  0.17357300  0.66888200  1
  O  O14  1  0.38075600  0.97559600  0.71649100  1
  O  O15  1  0.48976700  0.07836800  0.56117600  1
  O  O16  1  0.32577900  0.00429600  0.59805500  1
  O  O17  1  0.84977600  0.10411700  0.68844000  1
  O  O18  1  0.35332800  0.03054900  0.07333300  1
