# generated using pymatgen
data_CuH14C27N3(ClO2)2
_symmetry_space_group_name_H-M   'P 1'
_cell_length_a   14.99193800
_cell_length_b   15.52771200
_cell_length_c   17.08149100
_cell_angle_alpha   96.32026500
_cell_angle_beta   90.00490500
_cell_angle_gamma   92.83600700
_symmetry_Int_Tables_number   1
_chemical_formula_structural   CuH14C27N3(ClO2)2
_chemical_formula_sum   'Cu2 H28 C54 N6 Cl4 O8'
_cell_volume   3947.33862252
_cell_formula_units_Z   2
loop_
 _symmetry_equiv_pos_site_id
 _symmetry_equiv_pos_as_xyz
  1  'x, y, z'
loop_
 _atom_site_type_symbol
 _atom_site_label
 _atom_site_symmetry_multiplicity
 _atom_site_fract_x
 _atom_site_fract_y
 _atom_site_fract_z
 _atom_site_occupancy
  Cu  Cu1  1  0.49607500  0.40967500  0.49460300  1
  Cu  Cu2  1  0.50336700  0.58285300  0.50610000  1
  H  H1  1  0.78807700  0.63615700  0.51086300  1
  H  H2  1  0.21085500  0.35624300  0.49005500  1
  H  H3  1  0.77277700  0.35874300  0.48968200  1
  H  H4  1  0.22634700  0.63361300  0.51111900  1
  H  H5  1  0.90567200  0.28095900  0.48389000  1
  H  H6  1  0.09313400  0.71155400  0.51664700  1
  H  H7  1  0.06862200  0.27993500  0.48357900  1
  H  H8  1  0.93021600  0.71250800  0.51702800  1
  H  H9  1  0.44949900  0.38796800  0.88798000  1
  H  H10  1  0.54813600  0.60425400  0.11203200  1
  H  H11  1  0.44192800  0.34267800  0.10530300  1
  H  H12  1  0.55759700  0.64884300  0.89561500  1
  H  H13  1  0.44803800  0.35412600  0.24790500  1
  H  H14  1  0.55265600  0.63772100  0.75279100  1
  H  H15  1  0.59351600  0.28026700  0.56886600  1
  H  H16  1  0.40683400  0.71286600  0.43058200  1
  H  H17  1  0.59037500  0.12463400  0.56615000  1
  H  H18  1  0.40984900  0.86861500  0.43472300  1
  H  H19  1  0.62238900  0.88609000  0.60455600  1
  H  H20  1  0.37726100  0.10577300  0.39679900  1
  H  H21  1  0.61450400  0.72741300  0.59760200  1
  H  H22  1  0.38534600  0.26452100  0.40223200  1
  H  H23  1  0.24367600  0.26852400  0.64384800  1
  H  H24  1  0.47536900  0.14333400  0.70691100  1
  H  H25  1  0.54073800  0.28274900  0.76804400  1
  H  H26  1  0.52484300  0.85043500  0.29692800  1
  H  H27  1  0.75398900  0.71966400  0.35698700  1
  H  H28  1  0.68619600  0.58191100  0.29386800  1
  C  C1  1  0.50075800  0.49044200  0.34884000  1
  C  C2  1  0.49870400  0.50203800  0.65160700  1
  C  C3  1  0.32802200  0.49468600  0.49987200  1
  C  C4  1  0.67128200  0.49780700  0.50045200  1
  C  C5  1  0.81980800  0.57486800  0.50640000  1
  C  C6  1  0.17918500  0.41758900  0.49436100  1
  C  C7  1  0.76904200  0.49764800  0.50045100  1
  C  C8  1  0.23011100  0.49476800  0.50006200  1
  C  C9  1  0.81111000  0.41988800  0.49444200  1
  C  C10  1  0.18792700  0.57248200  0.50626600  1
  C  C11  1  0.90308300  0.41940800  0.49453700  1
  C  C12  1  0.09589200  0.57301900  0.50627300  1
  C  C13  1  0.95345900  0.49651700  0.50049000  1
  C  C14  1  0.04547600  0.49595700  0.50039300  1
  C  C15  1  0.91181300  0.57419100  0.50642800  1
  C  C16  1  0.08711900  0.41830100  0.49442200  1
  C  C17  1  0.94474800  0.34169200  0.48857500  1
  C  C18  1  0.05417500  0.65075900  0.51217300  1
  C  C19  1  0.03660400  0.34114500  0.48847200  1
  C  C20  1  0.96229600  0.65133600  0.51231300  1
  C  C21  1  0.50047800  0.48630100  0.26202800  1
  C  C22  1  0.49822100  0.50622400  0.73835300  1
  C  C23  1  0.52768200  0.55651700  0.22172600  1
  C  C24  1  0.46851200  0.43663300  0.77852000  1
  C  C25  1  0.52412900  0.54872600  0.14041700  1
  C  C26  1  0.47373000  0.44346800  0.85970700  1
  C  C27  1  0.49254200  0.47209300  0.09806300  1
  C  C28  1  0.50640000  0.51959500  0.90223700  1
  C  C29  1  0.46614200  0.40289800  0.13790900  1
  C  C30  1  0.53314000  0.58888700  0.86269100  1
  C  C31  1  0.47031000  0.40963700  0.21890500  1
  C  C32  1  0.52944400  0.58241900  0.78168000  1
  C  C33  1  0.45337300  0.75150500  0.46994200  1
  C  C34  1  0.54610200  0.24132300  0.53065200  1
  C  C35  1  0.45567200  0.84063200  0.47247700  1
  C  C36  1  0.54358100  0.15230700  0.52902800  1
  C  C37  1  0.51683800  0.89024200  0.52145700  1
  C  C38  1  0.48156700  0.10252000  0.48114500  1
  C  C39  1  0.57340500  0.84876200  0.56670200  1
  C  C40  1  0.42542600  0.14362500  0.43511200  1
  C  C41  1  0.56902400  0.75953500  0.56272200  1
  C  C42  1  0.43006900  0.23277700  0.43814900  1
  C  C43  1  0.42984300  0.35477500  0.73893700  1
  C  C44  1  0.34560100  0.35025800  0.70510100  1
  C  C45  1  0.30919500  0.27182700  0.67077600  1
  C  C46  1  0.35562300  0.19748300  0.67164400  1
  C  C47  1  0.43878100  0.20159100  0.70653600  1
  C  C48  1  0.47559500  0.27993900  0.74044300  1
  C  C49  1  0.56637700  0.63831600  0.26133000  1
  C  C50  1  0.52136300  0.71402900  0.26189900  1
  C  C51  1  0.56040000  0.79142100  0.29590400  1
  C  C52  1  0.64405600  0.79352900  0.32969700  1
  C  C53  1  0.68870900  0.71808700  0.32981300  1
  C  C54  1  0.65038400  0.64076500  0.29494600  1
  N  N1  1  0.48706300  0.46224900  0.01483400  1
  N  N2  1  0.51208800  0.52911400  0.98545000  1
  N  N3  1  0.50858700  0.71244600  0.51534600  1
  N  N4  1  0.49042900  0.28006900  0.48497700  1
  N  N5  1  0.52494400  0.98175100  0.52477100  1
  N  N6  1  0.47329500  0.01110300  0.47851400  1
  Cl  Cl1  1  0.28267500  0.44273100  0.70806100  1
  Cl  Cl2  1  0.30839400  0.09769700  0.62957200  1
  Cl  Cl3  1  0.41337300  0.71241800  0.22221600  1
  Cl  Cl4  1  0.69335300  0.89200600  0.37271400  1
  O  O1  1  0.49354300  0.41747700  0.38085500  1
  O  O2  1  0.50573600  0.57502000  0.61961500  1
  O  O3  1  0.50590000  0.56611100  0.39133600  1
  O  O4  1  0.49349100  0.42632800  0.60913800  1
  O  O5  1  0.36680900  0.42037200  0.49200000  1
  O  O6  1  0.63259300  0.57209000  0.50847700  1
  O  O7  1  0.37322100  0.56939100  0.50785500  1
  O  O8  1  0.62616600  0.42312800  0.49254200  1
