# Generated by REPEAT Assigner based on pymatgen
data_DB0-m29_o97_o45_f0_pts.sym.68
_audit_creation_date              2022-05-24
_audit_creation_method            REPEAT_Assigner
_cell_length_a                    17.784128
_cell_length_b                    9.342243
_cell_length_c                    16.982848
_cell_angle_alpha                 89.298529
_cell_angle_beta                  78.295702
_cell_angle_gamma                 107.014608
_cell_volume                      2634.255881
_symmetry_space_group_name_H-M    P1
_symmetry_Int_Tables_number       1
loop_
    _symmetry_equiv_pos_site_id
    _symmetry_equiv_pos_as_xyz
    1  x,y,z
loop_
    _atom_site_type_symbol
    _atom_site_label
    _atom_site_fract_x
    _atom_site_fract_y
    _atom_site_fract_z
    _atom_type_partial_charge
    C   C1   0.215810  0.020139  0.138545  -0.248539
    C   C2   0.086026  0.053041  0.172954  -0.180525
    C   C3   0.278078  0.996582  0.082789  0.011315
    C   C4   0.269536  0.973657  0.003880  0.040369
    C   C5   0.145382  0.021537  0.117135  0.189252
    C   C6   0.135032  0.995263  0.039952  0.067505
    C   C7   0.195933  0.965510  0.984190  -0.026061
    C   C8   0.181489  0.924819  0.909528  -0.072861
    C   C9   0.015905  0.057685  0.152446  -0.156392
    C   C10  0.003494  0.029775  0.075015  0.052898
    C   C11  0.064635  0.001916  0.018241  -0.008715
    C   C12  0.055951  0.981628  0.939624  0.064818
    C   C13  0.113022  0.933968  0.887284  -0.148729
    C   C14  0.863998  0.031813  0.109814  -0.150825
    C   C15  0.931911  0.030847  0.053024  0.045151
    C   C16  0.926661  0.025464  0.972835  0.013775
    C   C17  0.989595  0.004683  0.915500  0.054540
    C   C18  0.985292  0.009139  0.834746  -0.163629
    C   C19  0.795102  0.038178  0.087203  -0.068981
    C   C20  0.791933  0.049620  0.006595  0.033253
    C   C21  0.857594  0.037451  0.949916  0.018386
    C   C22  0.853161  0.031586  0.870092  0.217561
    C   C23  0.722077  0.058754  0.982566  -0.055634
    C   C24  0.717284  0.039534  0.902016  0.102447
    C   C25  0.917367  0.021189  0.812727  -0.183028
    C   C26  0.783468  0.029753  0.846952  -0.273476
    H   H1   0.223916  0.043861  0.198935  0.157496
    H   H2   0.094498  0.076563  0.233258  0.143575
    H   H3   0.221620  0.880727  0.867373  0.112032
    H   H4   0.974038  0.090099  0.198376  0.135323
    H   H5   0.105425  0.896597  0.828928  0.125183
    H   H6   0.859805  0.018293  0.173687  0.118222
    H   H7   0.034231  0.007111  0.786164  0.144940
    H   H8   0.743669  0.025319  0.135632  0.117389
    H   H9   0.914577  0.020551  0.749731  0.143558
    H   H10  0.779948  0.016948  0.784514  0.157567
    O   O1   0.578848  0.003592  0.038899  -0.473120
    C   C27  0.653127  0.077344  0.042774  0.578920
    O   O2   0.529161  0.727720  0.127930  -0.532702
    O   O3   0.666170  0.164275  0.101692  -0.538152
    O   O4   0.481605  0.849015  0.231942  -0.505633
    C   C28  0.506275  0.734969  0.205839  0.490350
    Fe  Fe1  0.495870  0.990009  0.138319  1.374713
    O   O5   0.388437  0.912985  0.108280  -0.559705
    O   O6   0.389070  0.152323  0.131535  -0.519453
    C   C29  0.355451  0.021767  0.106368  0.621156
    O   O7   0.530910  0.198807  0.174125  -0.520998
    O   O8   0.454154  0.088077  0.296088  -0.536420
    C   C30  0.498611  0.209175  0.250160  0.598504
    O   O9   0.473530  0.771371  0.816255  -0.615401
    O   O10  0.527146  0.888462  0.689765  -0.456672
    C   C31  0.498262  0.765638  0.738202  0.548909
    O   O11  0.590147  0.081531  0.893222  -0.524649
    O   O12  0.627650  0.899687  0.823984  -0.481465
    C   C32  0.642321  0.007054  0.872837  0.508717
    O   O13  0.348737  0.055051  0.869428  -0.467227
    O   O14  0.496699  0.115347  0.763552  -0.534403
    C   C33  0.500932  0.249710  0.787601  0.519243
    O   O15  0.399383  0.935377  0.952295  -0.550301
    C   C34  0.340698  0.984403  0.939254  0.509996
    O   O16  0.500632  0.273883  0.863612  -0.499358
    Fe  Fe2  0.488948  0.977242  0.856196  1.446964
    C   C35  0.500989  0.369433  0.731348  0.180903
    C   C36  0.502725  0.346192  0.650967  -0.324491
    H   H11  0.504027  0.239032  0.628493  0.171806
    C   C37  0.502745  0.459412  0.598046  0.351212
    C   C38  0.502068  0.598624  0.626054  -0.165314
    H   H12  0.502740  0.691182  0.586860  0.028718
    C   C39  0.498931  0.620633  0.706882  0.128276
    C   C40  0.498011  0.505890  0.759182  -0.269387
    N   N1   0.503411  0.429434  0.516387  -0.165139
    N   N2   0.500209  0.537891  0.475511  -0.099898
    C   C41  0.503302  0.629736  0.342860  -0.089805
    C   C42  0.506015  0.612758  0.261411  0.144105
    C   C43  0.509283  0.477162  0.231128  -0.276008
    C   C44  0.504826  0.356912  0.281879  0.088822
    C   C45  0.499851  0.373405  0.363455  -0.200130
    H   H13  0.495904  0.277410  0.402006  0.106141
    C   C46  0.501168  0.511651  0.393489  0.268102
    H   H14  0.496599  0.524183  0.822046  0.220788
    H   H15  0.510723  0.461703  0.167966  0.232746
    S   S1   0.506211  0.804702  0.385966  0.146130
    C   C47  0.614753  0.858528  0.374295  -0.103472
    H   H16  0.641032  0.978842  0.352630  0.088579
    H   H17  0.639989  0.790653  0.329175  0.043220
    H   H18  0.629818  0.839046  0.432959  0.083124
