# Generated by REPEAT Assigner based on pymatgen
data_DB0-m29_o90_o90_f0_pts.sym.72
_audit_creation_date              2022-05-24
_audit_creation_method            REPEAT_Assigner
_cell_length_a                    16.748453
_cell_length_b                    17.354766
_cell_length_c                    10.878169
_cell_angle_alpha                 109.881121
_cell_angle_beta                  108.777322
_cell_angle_gamma                 101.943298
_cell_volume                      2631.435164
_symmetry_space_group_name_H-M    P1
_symmetry_Int_Tables_number       1
loop_
    _symmetry_equiv_pos_site_id
    _symmetry_equiv_pos_as_xyz
    1  x,y,z
loop_
    _atom_site_type_symbol
    _atom_site_label
    _atom_site_fract_x
    _atom_site_fract_y
    _atom_site_fract_z
    _atom_type_partial_charge
    C   C1   0.305855  0.003484  0.953996  -0.103200
    C   C2   0.233827  0.992757  0.990351  0.105634
    H   H1   0.242167  0.984068  0.086881  0.080990
    C   C3   0.154704  0.999434  0.911066  -0.437703
    C   C4   0.146663  0.013558  0.790951  0.119027
    H   H2   0.085475  0.018651  0.726434  0.044030
    C   C5   0.217202  0.021989  0.751662  -0.152314
    H   H3   0.208460  0.032289  0.656372  0.131569
    C   C6   0.297595  0.017865  0.832654  0.036099
    N   N1   0.007357  0.008457  0.885524  -0.246789
    N   N2   0.942228  0.007304  0.929181  -0.254374
    C   C7   0.949705  0.993685  0.046317  0.792312
    N   N3   0.023812  0.980901  0.118452  -0.250292
    N   N4   0.089029  0.982156  0.074866  -0.245479
    C   C8   0.081497  0.995781  0.957670  0.777104
    C   C9   0.881538  0.972184  0.208279  0.117354
    H   H4   0.940378  0.962107  0.268828  0.044055
    C   C10  0.810757  0.965394  0.247301  -0.145800
    H   H5   0.816726  0.951625  0.338896  0.132964
    C   C11  0.733680  0.976547  0.171402  0.041002
    C   C12  0.728350  0.995054  0.054885  -0.079773
    C   C13  0.800283  0.003546  0.018199  0.113476
    H   H6   0.794167  0.015707  0.925178  0.083952
    C   C14  0.876541  0.990905  0.093001  -0.457173
    O   O1   0.603505  0.010478  0.188355  -0.565121
    C   C15  0.661134  0.971493  0.219966  0.568093
    O   O2   0.445158  0.810893  0.119171  -0.498496
    O   O3   0.658346  0.934035  0.305663  -0.520789
    O   O4   0.501916  0.910087  0.353167  -0.554030
    C   C16  0.467380  0.828132  0.255428  0.641969
    Fe  Fe1  0.517076  0.996831  0.274559  1.471639
    O   O5   0.393131  0.955025  0.116309  -0.566753
    O   O6   0.464649  0.076789  0.105162  -0.427525
    C   C17  0.391663  0.008757  0.055352  0.724770
    O   O7   0.566393  0.115848  0.441519  -0.619280
    O   O8   0.416733  0.093952  0.351765  -0.562972
    C   C18  0.499495  0.142364  0.449383  0.666685
    O   O9   0.462874  0.899637  0.569056  -0.640933
    O   O10  0.602007  0.892796  0.665403  -0.518200
    C   C19  0.520524  0.859292  0.560783  0.675643
    O   O11  0.647188  0.046778  0.892664  -0.646597
    O   O12  0.567730  0.934660  0.917321  -0.461971
    C   C20  0.644529  0.995711  0.958173  0.731090
    O   O13  0.361273  0.046184  0.675711  -0.492230
    O   O14  0.542640  0.106842  0.675603  -0.534446
    C   C21  0.534084  0.179449  0.750312  0.552186
    O   O15  0.440087  0.005514  0.838688  -0.545964
    C   C22  0.369897  0.025395  0.783356  0.597803
    O   O16  0.522784  0.189466  0.867962  -0.511643
    Fe  Fe2  0.522459  0.015834  0.744504  1.488397
    C   C23  0.517211  0.229423  0.556266  0.033999
    C   C24  0.508503  0.291956  0.507287  0.023018
    H   H7   0.493836  0.274676  0.395118  0.050986
    C   C25  0.515588  0.373595  0.597772  -0.385154
    C   C26  0.531882  0.392462  0.739604  0.064153
    H   H8   0.537483  0.455913  0.812740  0.058482
    C   C27  0.540036  0.329697  0.789255  -0.148249
    H   H9   0.551437  0.345419  0.899948  0.134176
    C   C28  0.532514  0.247497  0.698289  0.037661
    N   N5   0.499675  0.514090  0.622343  -0.254596
    N   N6   0.487337  0.571092  0.569419  -0.232372
    C   C29  0.477854  0.553510  0.433871  0.766778
    N   N7   0.482545  0.477668  0.353506  -0.212657
    N   N8   0.494571  0.420465  0.406037  -0.256067
    C   C30  0.503286  0.437927  0.541025  0.770963
    C   C31  0.432814  0.601565  0.233860  0.272430
    C   C32  0.431704  0.670643  0.195927  -0.192020
    H   H10  0.409242  0.659672  0.084935  0.102094
    C   C33  0.461509  0.756190  0.299751  0.003128
    C   C34  0.491120  0.772352  0.443852  0.013807
    C   C35  0.496110  0.705375  0.482285  -0.006519
    H   H11  0.522834  0.721572  0.596069  0.075338
    C   C36  0.468339  0.620191  0.380184  -0.448534
    C   C37  0.395377  0.508027  0.120012  -0.237109
    C   C38  0.339801  0.495171  0.968342  0.363987
    C   C39  0.293422  0.398031  0.867795  -0.362204
    H   H12  0.344488  0.366186  0.869349  0.085069
    H   H13  0.245237  0.367326  0.902349  0.081432
    H   H14  0.256011  0.389091  0.756322  0.067007
    H   H15  0.287408  0.525136  0.968933  -0.056354
    H   H16  0.384490  0.524453  0.927298  -0.043472
    H   H17  0.451685  0.484282  0.117597  0.067382
    H   H18  0.350069  0.467510  0.147575  0.065419
