# generated using pymatgen
data_ZnH7C19N(O2F3)2
_symmetry_space_group_name_H-M   'P 1'
_cell_length_a   12.31367300
_cell_length_b   13.37432800
_cell_length_c   6.91188400
_cell_angle_alpha   90.00000000
_cell_angle_beta   80.67937100
_cell_angle_gamma   90.00000000
_symmetry_Int_Tables_number   1
_chemical_formula_structural   ZnH7C19N(O2F3)2
_chemical_formula_sum   'Zn2 H14 C38 N2 O8 F12'
_cell_volume   1123.26972477
_cell_formula_units_Z   2
loop_
 _symmetry_equiv_pos_site_id
 _symmetry_equiv_pos_as_xyz
  1  'x, y, z'
loop_
 _atom_site_type_symbol
 _atom_site_label
 _atom_site_symmetry_multiplicity
 _atom_site_fract_x
 _atom_site_fract_y
 _atom_site_fract_z
 _atom_site_occupancy
  Zn  Zn1  1  0.49580300  0.11166600  0.48600900  1
  Zn  Zn2  1  0.50415700  0.88826500  0.51392800  1
  H  H1  1  0.16306800  0.94562600  0.43473600  1
  H  H2  1  0.83689200  0.05430500  0.56520300  1
  H  H3  1  0.94626900  0.94972100  0.50129900  1
  H  H4  1  0.05369000  0.05020800  0.49863800  1
  H  H5  1  0.05790900  0.93333500  0.65389700  1
  H  H6  1  0.94205000  0.06659400  0.34604000  1
  H  H7  1  0.85681700  0.85923900  0.27512400  1
  H  H8  1  0.14314400  0.14069000  0.72481000  1
  H  H9  1  0.22197100  0.03228700  0.61966400  1
  H  H10  1  0.77798900  0.96764200  0.38027200  1
  H  H11  1  0.26337000  0.58540400  0.81573600  1
  H  H12  1  0.73658800  0.41452500  0.18420100  1
  H  H13  1  0.74194500  0.59358600  0.21274400  1
  H  H14  1  0.25801300  0.40634300  0.78718900  1
  C  C1  1  0.25420900  0.97930600  0.16654900  1
  C  C2  1  0.74575100  0.02062600  0.83338900  1
  C  C3  1  0.15596700  0.95961900  0.28612700  1
  C  C4  1  0.84399200  0.04031300  0.71381100  1
  C  C5  1  0.05515800  0.96609000  0.22092400  1
  C  C6  1  0.94480200  0.03384000  0.77901300  1
  C  C7  1  0.95031900  0.98381400  0.35551000  1
  C  C8  1  0.04964100  0.01611500  0.64442700  1
  C  C9  1  0.85260600  0.94203000  0.28139100  1
  C  C10  1  0.14735400  0.05790000  0.71854400  1
  C  C11  1  0.25152600  0.00508000  0.97119000  1
  C  C12  1  0.74843400  0.99485000  0.02874700  1
  C  C13  1  0.15049400  0.01646300  0.91298100  1
  C  C14  1  0.84946600  0.98346600  0.08695600  1
  C  C15  1  0.05331600  0.99325900  0.03257700  1
  C  C16  1  0.94664400  0.00667200  0.96736000  1
  C  C17  1  0.35038900  0.98841500  0.26981200  1
  C  C18  1  0.64957200  0.01151600  0.73012500  1
  C  C19  1  0.34708100  0.00546700  0.81159700  1
  C  C20  1  0.65288000  0.99446300  0.18834000  1
  C  C21  1  0.59421900  0.70633900  0.43409400  1
  C  C22  1  0.40574000  0.29359200  0.56584200  1
  C  C23  1  0.41487800  0.70679100  0.61142300  1
  C  C24  1  0.58508100  0.29313900  0.38851400  1
  C  C25  1  0.41407100  0.60283500  0.61180800  1
  C  C26  1  0.58588800  0.39709500  0.38813100  1
  C  C27  1  0.59049600  0.60374900  0.41379100  1
  C  C28  1  0.40946400  0.39618100  0.58614700  1
  C  C29  1  0.50107600  0.55150200  0.50636800  1
  C  C30  1  0.49888300  0.44842800  0.49357300  1
  C  C31  1  0.32767900  0.54930400  0.71590900  1
  C  C32  1  0.67228000  0.45062600  0.28402900  1
  C  C33  1  0.67489000  0.55331000  0.29833700  1
  C  C34  1  0.32506900  0.44662000  0.70160000  1
  C  C35  1  0.69670300  0.76108300  0.35495900  1
  C  C36  1  0.30325600  0.23884800  0.64497300  1
  C  C37  1  0.31335100  0.76399900  0.69279800  1
  C  C38  1  0.68660700  0.23592800  0.30713600  1
  N  N1  1  0.50593200  0.75689000  0.52712900  1
  N  N2  1  0.49402700  0.24304100  0.47280900  1
  O  O1  1  0.38775200  0.90691800  0.34277000  1
  O  O2  1  0.61220800  0.09301200  0.65716600  1
  O  O3  1  0.61907700  0.92176800  0.68113700  1
  O  O4  1  0.38088300  0.07816300  0.31880000  1
  O  O5  1  0.37706700  0.08999900  0.72021000  1
  O  O6  1  0.62289300  0.90993200  0.27972700  1
  O  O7  1  0.61400000  0.08158900  0.25545700  1
  O  O8  1  0.38596000  0.91834200  0.74447900  1
  F  F1  1  0.70343200  0.84496500  0.46739600  1
  F  F2  1  0.69543800  0.78801100  0.16229300  1
  F  F3  1  0.78730700  0.70180000  0.36648000  1
  F  F4  1  0.29652800  0.15496500  0.53254000  1
  F  F5  1  0.21265200  0.29813100  0.63344700  1
  F  F6  1  0.30452000  0.21192100  0.83764000  1
  F  F7  1  0.30222100  0.84487700  0.57404600  1
  F  F8  1  0.32063600  0.79686900  0.87982400  1
  F  F9  1  0.22080000  0.70537200  0.69706100  1
  F  F10  1  0.69773900  0.15505300  0.42589200  1
  F  F11  1  0.77915900  0.29455400  0.30286400  1
  F  F12  1  0.67931800  0.20305400  0.12011600  1
