# generated using pymatgen
data_FeH12C23(N2O5)2
_symmetry_space_group_name_H-M   'P 1'
_cell_length_a   13.46458900
_cell_length_b   9.39850700
_cell_length_c   19.31937200
_cell_angle_alpha   85.30628900
_cell_angle_beta   98.86817300
_cell_angle_gamma   112.69543300
_symmetry_Int_Tables_number   1
_chemical_formula_structural   FeH12C23(N2O5)2
_chemical_formula_sum   'Fe2 H24 C46 N8 O20'
_cell_volume   2227.87184850
_cell_formula_units_Z   2
loop_
 _symmetry_equiv_pos_site_id
 _symmetry_equiv_pos_as_xyz
  1  'x, y, z'
loop_
 _atom_site_type_symbol
 _atom_site_label
 _atom_site_symmetry_multiplicity
 _atom_site_fract_x
 _atom_site_fract_y
 _atom_site_fract_z
 _atom_site_occupancy
  Fe  Fe1  1  0.50542300  0.01978100  0.13182100  1
  Fe  Fe2  1  0.49116700  0.96297800  0.87088600  1
  H  H1  1  0.90059400  0.85024600  0.82933000  1
  H  H2  1  0.76473200  0.89993900  0.87350400  1
  H  H3  1  0.23331900  0.08761600  0.12819000  1
  H  H4  1  0.90541700  0.11946700  0.16156700  1
  H  H5  1  0.48775700  0.49876000  0.84453800  1
  H  H6  1  0.50706500  0.71928400  0.64467000  1
  H  H7  1  0.49074000  0.26502700  0.35850700  1
  H  H8  1  0.51773400  0.48961800  0.15929500  1
  H  H9  1  0.02180700  0.73668400  0.81591000  1
  H  H10  1  0.00014300  0.77814800  0.69679200  1
  H  H11  1  0.09685100  0.95589800  0.66512700  1
  H  H12  1  0.96840000  0.94961000  0.68516700  1
  H  H13  1  0.46194100  0.80278200  0.33880900  1
  H  H14  1  0.57104100  0.05252200  0.37005500  1
  H  H15  1  0.67078100  0.11675000  0.30954500  1
  H  H16  1  0.71133600  0.08568100  0.40137000  1
  H  H17  1  0.07784600  0.24323700  0.19770800  1
  H  H18  1  0.11456200  0.21956500  0.31730100  1
  H  H19  1  0.19589500  0.10642900  0.34683200  1
  H  H20  1  0.04949700  0.01733500  0.34009400  1
  H  H21  1  0.42651700  0.17611900  0.61876400  1
  H  H22  1  0.57319300  0.13536200  0.55577400  1
  H  H23  1  0.52941500  0.98208400  0.62012700  1
  H  H24  1  0.67272600  0.09802900  0.62074100  1
  C  C1  1  0.20346300  0.93409900  0.93234100  1
  C  C2  1  0.10195300  0.90096000  0.89336800  1
  C  C3  1  0.02018600  0.92356500  0.92107900  1
  C  C4  1  0.91990800  0.89442900  0.88155200  1
  C  C5  1  0.84028200  0.92251800  0.90763100  1
  C  C6  1  0.22089600  0.98366000  0.00064200  1
  C  C7  1  0.13894600  0.00767700  0.02791800  1
  C  C8  1  0.03920000  0.97954400  0.98783700  1
  C  C9  1  0.95840800  0.00751800  0.01448500  1
  C  C10  1  0.85838700  0.97860900  0.97438200  1
  C  C11  1  0.77666100  0.00400700  0.00104500  1
  C  C12  1  0.15678800  0.06281900  0.09492300  1
  C  C13  1  0.07741600  0.09183200  0.12143700  1
  C  C14  1  0.97722900  0.06354600  0.08127600  1
  C  C15  1  0.89435200  0.08435100  0.10831900  1
  C  C16  1  0.79417100  0.05483800  0.06892200  1
  C  C17  1  0.70563400  0.06052900  0.10358700  1
  C  C18  1  0.51915400  0.75806800  0.19415000  1
  C  C19  1  0.32855400  0.02596300  0.04178400  1
  C  C20  1  0.49714000  0.22307300  0.22566800  1
  C  C21  1  0.50270100  0.76162500  0.77769100  1
  C  C22  1  0.66913800  0.96025400  0.96002400  1
  C  C23  1  0.48821600  0.23143300  0.81023700  1
  C  C24  1  0.29357300  0.93096400  0.89822500  1
  C  C25  1  0.49102000  0.36229800  0.76180400  1
  C  C26  1  0.49325000  0.35755600  0.69014100  1
  C  C27  1  0.49758100  0.48628700  0.64717000  1
  C  C28  1  0.50099600  0.61749800  0.67667300  1
  C  C29  1  0.49573500  0.62038500  0.74702800  1
  C  C30  1  0.48947900  0.49283800  0.78916600  1
  C  C31  1  0.50468200  0.49975200  0.43225500  1
  C  C32  1  0.49996500  0.48970800  0.57092400  1
  C  C33  1  0.49936700  0.36788800  0.32658900  1
  C  C34  1  0.50610600  0.36554700  0.25640600  1
  C  C35  1  0.51569400  0.49502000  0.21466600  1
  C  C36  1  0.51610200  0.62675100  0.24231400  1
  C  C37  1  0.51321700  0.63059600  0.31388300  1
  C  C38  1  0.50526400  0.50046800  0.35611300  1
  C  C39  1  0.08461800  0.95168900  0.77407700  1
  C  C40  1  0.03422700  0.90547400  0.70086400  1
  C  C41  1  0.62622200  0.88081100  0.34305200  1
  C  C42  1  0.64569800  0.04394400  0.35678800  1
  C  C43  1  0.11347400  0.06105300  0.24269300  1
  C  C44  1  0.11858100  0.10417000  0.31617200  1
  C  C45  1  0.58109200  0.20851300  0.65926700  1
  C  C46  1  0.58969500  0.09921900  0.61097100  1
  N  N1  1  0.47294100  0.59535300  0.52966300  1
  N  N2  1  0.47505800  0.60019200  0.46126700  1
  N  N3  1  0.53256900  0.39513700  0.47354700  1
  N  N4  1  0.53085200  0.39088400  0.54189200  1
  N  N5  1  0.08205700  0.84388500  0.82513900  1
  N  N6  1  0.52693900  0.76886000  0.34481900  1
  N  N7  1  0.10244900  0.15640000  0.18852400  1
  N  N8  1  0.48470200  0.21970200  0.66105800  1
  O  O1  1  0.61532000  0.06336100  0.06759000  1
  O  O2  1  0.53949800  0.75689700  0.12997400  1
  O  O3  1  0.71295200  0.04883400  0.17218800  1
  O  O4  1  0.49526900  0.87191700  0.21206700  1
  O  O5  1  0.35938600  0.91930100  0.07527000  1
  O  O6  1  0.39101700  0.17213100  0.04977900  1
  O  O7  1  0.54679500  0.22895500  0.17136500  1
  O  O8  1  0.43516300  0.08956300  0.25057400  1
  O  O9  1  0.45235000  0.75391400  0.83184300  1
  O  O10  1  0.56460000  0.89590000  0.75347000  1
  O  O11  1  0.63646100  0.06623900  0.92790100  1
  O  O12  1  0.60857200  0.81376600  0.95078300  1
  O  O13  1  0.29297000  0.95763700  0.83049000  1
  O  O14  1  0.50073200  0.10981500  0.79028200  1
  O  O15  1  0.38023200  0.91728600  0.93461100  1
  O  O16  1  0.47518100  0.23731900  0.87573300  1
  O  O17  1  0.12857200  0.08812300  0.78777200  1
  O  O18  1  0.70112600  0.84834400  0.33099600  1
  O  O19  1  0.11825200  0.93803500  0.23182200  1
  O  O20  1  0.66130100  0.28735700  0.69745700  1
