# generated using pymatgen
data_Zn3H22C34(N7O20)2
_symmetry_space_group_name_H-M   'P 1'
_cell_length_a   21.70779700
_cell_length_b   21.71213800
_cell_length_c   22.14644000
_cell_angle_alpha   119.33952500
_cell_angle_beta   119.32428100
_cell_angle_gamma   90.01271400
_symmetry_Int_Tables_number   1
_chemical_formula_structural   Zn3H22C34(N7O20)2
_chemical_formula_sum   'Zn6 H44 C68 N28 O80'
_cell_volume   7526.68913269
_cell_formula_units_Z   2
loop_
 _symmetry_equiv_pos_site_id
 _symmetry_equiv_pos_as_xyz
  1  'x, y, z'
loop_
 _atom_site_type_symbol
 _atom_site_label
 _atom_site_symmetry_multiplicity
 _atom_site_fract_x
 _atom_site_fract_y
 _atom_site_fract_z
 _atom_site_occupancy
  Zn  Zn1  1  0.43021500  0.00225200  0.49974800  1
  Zn  Zn2  1  0.56979500  0.99778500  0.50027200  1
  Zn  Zn3  1  0.00279800  0.57150100  0.50373400  1
  Zn  Zn4  1  0.99721000  0.42852900  0.49628700  1
  Zn  Zn5  1  0.45419100  0.44923400  0.40607200  1
  Zn  Zn6  1  0.54581500  0.55080100  0.59394400  1
  H  H1  1  0.73403800  0.46937600  0.37738600  1
  H  H2  1  0.26597000  0.53064900  0.62263000  1
  H  H3  1  0.63214200  0.43965400  0.36826800  1
  H  H4  1  0.36786500  0.56037600  0.63174800  1
  H  H5  1  0.85282500  0.62457200  0.58876500  1
  H  H6  1  0.14717900  0.37546000  0.41124800  1
  H  H7  1  0.71986600  0.36961700  0.06902800  1
  H  H8  1  0.27996700  0.63027400  0.93099600  1
  H  H9  1  0.65877600  0.30484100  0.93122500  1
  H  H10  1  0.34104500  0.69506900  0.06879900  1
  H  H11  1  0.81687200  0.22571100  0.94438200  1
  H  H12  1  0.18314100  0.77454100  0.05563500  1
  H  H13  1  0.82263600  0.37635700  0.06326100  1
  H  H14  1  0.17717600  0.62377300  0.93676400  1
  H  H15  1  0.88233500  0.32122800  0.07967400  1
  H  H16  1  0.11761700  0.67901400  0.92034500  1
  H  H17  1  0.66383400  0.15022000  0.94692400  1
  H  H18  1  0.33635400  0.84968200  0.05309700  1
  H  H19  1  0.60786800  0.23105900  0.91754800  1
  H  H20  1  0.39210400  0.76875200  0.08247600  1
  H  H21  1  0.83312100  0.20845100  0.05363100  1
  H  H22  1  0.16705600  0.79171100  0.94638800  1
  H  H23  1  0.39860900  0.18830400  0.47955300  1
  H  H24  1  0.60139700  0.81172700  0.52045900  1
  H  H25  1  0.40031000  0.25719600  0.39839300  1
  H  H26  1  0.59969600  0.74283700  0.60162200  1
  H  H27  1  0.39856100  0.29253400  0.48792600  1
  H  H28  1  0.60144300  0.70749700  0.51208700  1
  H  H29  1  0.50012500  0.24330000  0.60563500  1
  H  H30  1  0.49987900  0.75673500  0.39437900  1
  H  H31  1  0.61458600  0.21910500  0.51898100  1
  H  H32  1  0.38542300  0.78093000  0.48103700  1
  H  H33  1  0.50790800  0.25346100  0.40272700  1
  H  H34  1  0.49210000  0.74657400  0.59729100  1
  H  H35  1  0.59844900  0.30928500  0.49374900  1
  H  H36  1  0.40155800  0.69075100  0.50626800  1
  H  H37  1  0.81157100  0.42369100  0.53081300  1
  H  H38  1  0.18843400  0.57634300  0.46920800  1
  H  H39  1  0.75727700  0.39598700  0.38797400  1
  H  H40  1  0.24273000  0.60404100  0.61204800  1
  H  H41  1  0.79641700  0.59089500  0.48248000  1
  H  H42  1  0.20358800  0.40913000  0.51753100  1
  H  H43  1  0.78123800  0.55449900  0.63764300  1
  H  H44  1  0.21876800  0.44553700  0.36237500  1
  C  C1  1  0.50529900  0.11999100  0.49869600  1
  C  C2  1  0.49471000  0.88004500  0.50132300  1
  C  C3  1  0.58018400  0.08283600  0.66369500  1
  C  C4  1  0.41982500  0.91720000  0.33632500  1
  C  C5  1  0.74549300  0.44842100  0.41728500  1
  C  C6  1  0.25451300  0.55160700  0.58273300  1
  C  C7  1  0.81290000  0.50488500  0.50448000  1
  C  C8  1  0.18710600  0.49514600  0.49553800  1
  C  C9  1  0.80190900  0.58068100  0.52895900  1
  C  C10  1  0.19809600  0.41934900  0.47105500  1
  C  C11  1  0.66524400  0.26546000  0.95010500  1
  C  C12  1  0.33468800  0.73444300  0.04991800  1
  C  C13  1  0.78271000  0.26230600  0.95435900  1
  C  C14  1  0.21723200  0.73785800  0.04566100  1
  C  C15  1  0.82335500  0.31974300  0.04819500  1
  C  C16  1  0.17656600  0.68040500  0.95182600  1
  C  C17  1  0.87091800  0.37913900  0.24666100  1
  C  C18  1  0.12909100  0.62089100  0.75336000  1
  C  C19  1  0.70677200  0.21529600  0.92040500  1
  C  C20  1  0.29323800  0.78473400  0.07961600  1
  C  C21  1  0.70968500  0.30992600  0.04586700  1
  C  C22  1  0.29025600  0.68996900  0.95415500  1
  C  C23  1  0.78569000  0.29668900  0.07962400  1
  C  C24  1  0.21431800  0.70333700  0.92039700  1
  C  C25  1  0.77986900  0.21487300  0.04672800  1
  C  C26  1  0.22028600  0.78517800  0.95329200  1
  C  C27  1  0.71655800  0.16718300  0.95455300  1
  C  C28  1  0.28360000  0.83283000  0.04546700  1
  C  C29  1  0.83240100  0.34239100  0.17123900  1
  C  C30  1  0.16760800  0.65763700  0.82878200  1
  C  C31  1  0.66217200  0.16809400  0.82886000  1
  C  C32  1  0.33783800  0.83194000  0.17116000  1
  C  C33  1  0.62499500  0.12910400  0.75345800  1
  C  C34  1  0.37501500  0.87093100  0.24656200  1
  C  C35  1  0.42832100  0.19190300  0.45197900  1
  C  C36  1  0.57168700  0.80813000  0.54803600  1
  C  C37  1  0.42962300  0.26594200  0.46042200  1
  C  C38  1  0.57038400  0.73409100  0.53959300  1
  C  C39  1  0.54061600  0.25553500  0.59370000  1
  C  C40  1  0.45938900  0.74450000  0.40631600  1
  C  C41  1  0.55508000  0.20569300  0.47313000  1
  C  C42  1  0.44492900  0.79434300  0.52688800  1
  C  C43  1  0.50826100  0.19101400  0.50233400  1
  C  C44  1  0.49174700  0.80902100  0.49768300  1
  C  C45  1  0.50950000  0.31648100  0.51488100  1
  C  C46  1  0.49050600  0.68355300  0.48513500  1
  C  C47  1  0.54782800  0.33175700  0.60434500  1
  C  C48  1  0.45217700  0.66827800  0.39567100  1
  C  C49  1  0.54507300  0.27321300  0.46939200  1
  C  C50  1  0.45493500  0.72682200  0.53062600  1
  C  C51  1  0.72967600  0.58219200  0.52602900  1
  C  C52  1  0.27032900  0.41784000  0.47398500  1
  C  C53  1  0.81806700  0.48370500  0.56281000  1
  C  C54  1  0.18193900  0.51632900  0.43721000  1
  C  C55  1  0.75627700  0.50046400  0.57726600  1
  C  C56  1  0.24372800  0.49957100  0.42275300  1
  C  C57  1  0.69487600  0.50614200  0.50654200  1
  C  C58  1  0.30512900  0.49389000  0.49347500  1
  C  C59  1  0.67789500  0.43963600  0.42108100  1
  C  C60  1  0.32211100  0.56039600  0.57893600  1
  C  C61  1  0.88103700  0.50367700  0.50300300  1
  C  C62  1  0.11897000  0.49635300  0.49701600  1
  C  C63  1  0.91657600  0.42147800  0.33637900  1
  C  C64  1  0.08343200  0.57855300  0.66364100  1
  C  C65  1  0.37545000  0.49513900  0.49369300  1
  C  C66  1  0.62455600  0.50489500  0.50632400  1
  C  C67  1  0.50753600  0.38539200  0.51287300  1
  C  C68  1  0.49247000  0.61464200  0.48714300  1
  N  N1  1  0.68146300  0.59585000  0.46232500  1
  N  N2  1  0.31854200  0.40418000  0.53768800  1
  N  N3  1  0.73011700  0.09925700  0.90833200  1
  N  N4  1  0.27014200  0.90083900  0.09168700  1
  N  N5  1  0.77177200  0.19271400  0.09552300  1
  N  N6  1  0.22848900  0.80726200  0.90449700  1
  N  N7  1  0.66931300  0.29474500  0.07654300  1
  N  N8  1  0.33069700  0.70502400  0.92348100  1
  N  N9  1  0.38451600  0.12865700  0.36446800  1
  N  N10  1  0.61549400  0.87137600  0.63554700  1
  N  N11  1  0.51033100  0.37295500  0.64464100  1
  N  N12  1  0.48967300  0.62707900  0.35537400  1
  N  N13  1  0.53828400  0.14409700  0.39215800  1
  N  N14  1  0.46172600  0.85593900  0.60786000  1
  N  N15  1  0.61022400  0.25681300  0.65730900  1
  N  N16  1  0.38978000  0.74322300  0.34270900  1
  N  N17  1  0.62748200  0.37498000  0.65923500  1
  N  N18  1  0.37252300  0.62505600  0.34078300  1
  N  N19  1  0.74482600  0.64475500  0.60588800  1
  N  N20  1  0.25518000  0.35527900  0.39412600  1
  N  N21  1  0.89100400  0.52201000  0.64205000  1
  N  N22  1  0.10900100  0.47802600  0.35797100  1
  N  N23  1  0.72810700  0.44802600  0.58789200  1
  N  N24  1  0.27189800  0.55201100  0.41212900  1
  N  N25  1  0.65412500  0.36706300  0.40533700  1
  N  N26  1  0.34587800  0.63296900  0.59468100  1
  N  N27  1  0.77569600  0.29717200  0.91031000  1
  N  N28  1  0.22411700  0.70302900  0.08971300  1
  O  O1  1  0.45275300  0.09375800  0.50129100  1
  O  O2  1  0.54725600  0.90627800  0.49872900  1
  O  O3  1  0.55689100  0.08889400  0.49735500  1
  O  O4  1  0.44311900  0.91114200  0.50266500  1
  O  O5  1  0.50760300  0.06324700  0.62494800  1
  O  O6  1  0.49240700  0.93679000  0.37507200  1
  O  O7  1  0.61386400  0.06285300  0.62468800  1
  O  O8  1  0.38614500  0.93718400  0.37533200  1
  O  O9  1  0.91249900  0.55862100  0.50734300  1
  O  O10  1  0.08750900  0.44140900  0.49267700  1
  O  O11  1  0.90635600  0.44741100  0.49685900  1
  O  O12  1  0.09365100  0.55262000  0.50316200  1
  O  O13  1  0.93682900  0.49443500  0.37843000  1
  O  O14  1  0.06317800  0.50559600  0.62159000  1
  O  O15  1  0.93587100  0.38493800  0.37200700  1
  O  O16  1  0.06413600  0.61509200  0.62801300  1
  O  O17  1  0.36966800  0.45851700  0.42227300  1
  O  O18  1  0.63033700  0.54151800  0.57774300  1
  O  O19  1  0.44076400  0.53226200  0.56579900  1
  O  O20  1  0.55924200  0.46777200  0.43421700  1
  O  O21  1  0.46972400  0.37560400  0.43915600  1
  O  O22  1  0.53028200  0.62443000  0.56086100  1
  O  O23  1  0.54373000  0.45215500  0.58254400  1
  O  O24  1  0.45627500  0.54787900  0.41747200  1
  O  O25  1  0.70458700  0.65779600  0.47287000  1
  O  O26  1  0.61217400  0.55550000  0.40465100  1
  O  O27  1  0.38783100  0.44453000  0.59536300  1
  O  O28  1  0.29541900  0.34223300  0.52714200  1
  O  O29  1  0.68202300  0.03527100  0.86816800  1
  O  O30  1  0.79125600  0.10100700  0.91086900  1
  O  O31  1  0.31833800  0.96476100  0.13185500  1
  O  O32  1  0.20900200  0.89922500  0.08914900  1
  O  O33  1  0.70765600  0.17534900  0.08351300  1
  O  O34  1  0.82691700  0.17840500  0.14179000  1
  O  O35  1  0.29263000  0.82449600  0.91650800  1
  O  O36  1  0.17342800  0.82164300  0.85822800  1
  O  O37  1  0.60455200  0.24390300  0.02527200  1
  O  O38  1  0.69180100  0.34138000  0.15417400  1
  O  O39  1  0.30819200  0.65835300  0.84585000  1
  O  O40  1  0.39551500  0.75577800  0.97475300  1
  O  O41  1  0.33451100  0.07455600  0.34151500  1
  O  O42  1  0.38281400  0.13263800  0.30694200  1
  O  O43  1  0.66550000  0.92547500  0.65849900  1
  O  O44  1  0.61719600  0.86739500  0.69307400  1
  O  O45  1  0.45396500  0.33847100  0.63509700  1
  O  O46  1  0.53203100  0.44539500  0.68998300  1
  O  O47  1  0.54603900  0.66156300  0.36491800  1
  O  O48  1  0.46797400  0.55463900  0.31003400  1
  O  O49  1  0.57450500  0.15485300  0.36387400  1
  O  O50  1  0.49700300  0.07687400  0.35357400  1
  O  O51  1  0.50301000  0.92316100  0.64644600  1
  O  O52  1  0.42550400  0.84518400  0.63614400  1
  O  O53  1  0.62507000  0.28831400  0.73226700  1
  O  O54  1  0.65356700  0.22132300  0.64001100  1
  O  O55  1  0.37492900  0.71171700  0.26774800  1
  O  O56  1  0.34644100  0.77871700  0.36001000  1
  O  O57  1  0.65690100  0.42616300  0.73794200  1
  O  O58  1  0.67271400  0.35100500  0.63742100  1
  O  O59  1  0.34310300  0.57387100  0.26207600  1
  O  O60  1  0.32729200  0.64903100  0.36259700  1
  O  O61  1  0.69074500  0.66920500  0.60740000  1
  O  O62  1  0.81225300  0.68384000  0.67220600  1
  O  O63  1  0.30926100  0.33082800  0.39261400  1
  O  O64  1  0.18775300  0.31619500  0.32780600  1
  O  O65  1  0.93124000  0.48286700  0.66299000  1
  O  O66  1  0.91541100  0.59411100  0.69360700  1
  O  O67  1  0.06876600  0.51717100  0.33703400  1
  O  O68  1  0.08459500  0.40592600  0.30641100  1
  O  O69  1  0.71782100  0.47599000  0.64798300  1
  O  O70  1  0.73973600  0.38390900  0.56307900  1
  O  O71  1  0.28218800  0.52405000  0.35204100  1
  O  O72  1  0.26026800  0.61612800  0.43694200  1
  O  O73  1  0.58583700  0.34021600  0.37855700  1
  O  O74  1  0.69323100  0.32176900  0.39831900  1
  O  O75  1  0.30677300  0.67826400  0.60170500  1
  O  O76  1  0.41416300  0.65981500  0.62145200  1
  O  O77  1  0.75236300  0.35477600  0.92416100  1
  O  O78  1  0.80186400  0.27583400  0.86409000  1
  O  O79  1  0.24734300  0.64536200  0.07587200  1
  O  O80  1  0.19794000  0.72447700  0.13592800  1
