# generated using pymatgen
data_Zn6H45C76ClO24
_symmetry_space_group_name_H-M   'P 1'
_cell_length_a   19.17713500
_cell_length_b   18.90026700
_cell_length_c   18.87695100
_cell_angle_alpha   109.20046700
_cell_angle_beta   109.79464900
_cell_angle_gamma   109.76205600
_symmetry_Int_Tables_number   1
_chemical_formula_structural   Zn6H45C76ClO24
_chemical_formula_sum   'Zn6 H45 C76 Cl1 O24'
_cell_volume   5244.39861491
_cell_formula_units_Z   1
loop_
 _symmetry_equiv_pos_site_id
 _symmetry_equiv_pos_as_xyz
  1  'x, y, z'
loop_
 _atom_site_type_symbol
 _atom_site_label
 _atom_site_symmetry_multiplicity
 _atom_site_fract_x
 _atom_site_fract_y
 _atom_site_fract_z
 _atom_site_occupancy
  Zn  Zn1  1  0.00818000  0.93516000  0.43460400  1
  Zn  Zn2  1  0.01628300  0.07687400  0.57738400  1
  Zn  Zn3  1  0.44732000  0.50352300  0.43619700  1
  Zn  Zn4  1  0.58279900  0.50534800  0.57904100  1
  Zn  Zn5  1  0.58072800  0.07832100  0.01134900  1
  Zn  Zn6  1  0.44169000  0.92825700  0.99770700  1
  H  H1  1  0.92895300  0.93915500  0.10972600  1
  H  H2  1  0.07533900  0.96626700  0.15000200  1
  H  H3  1  0.19610700  0.08089200  0.29618000  1
  H  H4  1  0.02409000  0.14261100  0.36199700  1
  H  H5  1  0.90370900  0.02780300  0.21551700  1
  H  H6  1  0.25236900  0.25043500  0.37070900  1
  H  H7  1  0.26645600  0.26656200  0.64027900  1
  H  H8  1  0.43387800  0.32254700  0.71720000  1
  H  H9  1  0.54600400  0.44486700  0.86364800  1
  H  H10  1  0.57263500  0.59268700  0.90175600  1
  H  H11  1  0.48615900  0.61780600  0.79337300  1
  H  H12  1  0.37429100  0.49592100  0.64648700  1
  H  H13  1  0.28662700  0.14510500  0.75963900  1
  H  H14  1  0.39888700  0.14356600  0.87039700  1
  H  H15  1  0.23144100  0.80253100  0.69225300  1
  H  H16  1  0.17975400  0.82156600  0.76016300  1
  H  H17  1  0.12356300  0.80363300  0.57897200  1
  H  H18  1  0.07229900  0.82337800  0.64732200  1
  H  H19  1  0.86053400  0.90036000  0.64022600  1
  H  H20  1  0.75034200  0.78425500  0.63850500  1
  H  H21  1  0.61963600  0.58606100  0.30227900  1
  H  H22  1  0.80955400  0.67044900  0.35202100  1
  H  H23  1  0.72932700  0.70213700  0.30547200  1
  H  H24  1  0.87815300  0.14361500  0.38962300  1
  H  H25  1  0.76738000  0.14287400  0.27506600  1
  H  H26  1  0.58255000  0.80267500  0.12479500  1
  H  H27  1  0.64649800  0.81563200  0.06821200  1
  H  H28  1  0.69572600  0.80419400  0.23559400  1
  H  H29  1  0.75910900  0.81632900  0.17837800  1
  H  H30  1  0.65742800  0.76480600  0.78276200  1
  H  H31  1  0.65688000  0.87952900  0.89240900  1
  H  H32  1  0.32118000  0.70363100  0.71888600  1
  H  H33  1  0.34118700  0.77438400  0.66871500  1
  H  H34  1  0.32254800  0.59334700  0.60851600  1
  H  H35  1  0.34144200  0.66352700  0.55768700  1
  H  H36  1  0.58760300  0.28417200  0.41132700  1
  H  H37  1  0.58287800  0.16898700  0.29706400  1
  H  H38  1  0.44399800  0.25269300  0.07391200  1
  H  H39  1  0.34240500  0.16874700  0.05673500  1
  H  H40  1  0.44619700  0.36553200  0.18526400  1
  H  H41  1  0.34496100  0.28185300  0.16876900  1
  H  H42  1  0.60295000  0.44702800  0.21768600  1
  H  H43  1  0.63583400  0.33097100  0.20809700  1
  H  H44  1  0.84624900  0.49675200  0.46800500  1
  H  H45  1  0.81684700  0.61384700  0.47819700  1
  C  C1  1  0.13361500  0.00728100  0.62462100  1
  C  C2  1  0.12804200  0.12568100  0.50224000  1
  C  C3  1  0.89064300  0.00461700  0.38742200  1
  C  C4  1  0.89614400  0.88650400  0.50935400  1
  C  C5  1  0.06409900  0.00471800  0.19682600  1
  C  C6  1  0.13190400  0.06922400  0.27896100  1
  C  C7  1  0.11777800  0.11792100  0.33933000  1
  C  C8  1  0.03556100  0.10321000  0.31612500  1
  C  C9  1  0.96789300  0.03901700  0.23374200  1
  C  C10  1  0.98206300  0.98948600  0.17425500  1
  C  C11  1  0.25581900  0.25377000  0.43016000  1
  C  C12  1  0.32506600  0.32334800  0.50930900  1
  C  C13  1  0.32891700  0.32763600  0.58547100  1
  C  C14  1  0.26354000  0.26249000  0.58078200  1
  C  C15  1  0.19464900  0.19255700  0.50171500  1
  C  C16  1  0.19076400  0.18815800  0.42548600  1
  C  C17  1  0.44552100  0.38741600  0.73339400  1
  C  C18  1  0.50858600  0.45608500  0.81569700  1
  C  C19  1  0.52355500  0.53892300  0.83705200  1
  C  C20  1  0.47529800  0.55304400  0.77612300  1
  C  C21  1  0.41271700  0.48454900  0.69353400  1
  C  C22  1  0.39812400  0.40152200  0.67163300  1
  C  C23  1  0.19285400  0.93265300  0.69020600  1
  C  C24  1  0.20146900  0.00743100  0.68991000  1
  C  C25  1  0.27661900  0.08416500  0.75675800  1
  C  C26  1  0.34040900  0.08314900  0.81936900  1
  C  C27  1  0.32765300  0.00590300  0.81835000  1
  C  C28  1  0.25139700  0.93214300  0.75229000  1
  C  C29  1  0.20098900  0.83721500  0.71673200  1
  C  C30  1  0.13184700  0.83804400  0.64404700  1
  C  C31  1  0.77633400  0.73774300  0.44058500  1
  C  C32  1  0.83029700  0.82028600  0.51075100  1
  C  C33  1  0.81968600  0.83675100  0.58260300  1
  C  C34  1  0.75754000  0.77072000  0.58194200  1
  C  C35  1  0.70372200  0.68845500  0.50873700  1
  C  C36  1  0.71597700  0.67558500  0.43924500  1
  C  C37  1  0.68613100  0.60852100  0.35058100  1
  C  C38  1  0.75643900  0.68183000  0.35178100  1
  C  C39  1  0.75573300  0.93052200  0.24794900  1
  C  C40  1  0.82329100  0.00541700  0.32253600  1
  C  C41  1  0.82580700  0.08246500  0.33253800  1
  C  C42  1  0.76328300  0.08208200  0.26726000  1
  C  C43  1  0.69524700  0.00436600  0.19352600  1
  C  C44  1  0.69386200  0.92981600  0.18805700  1
  C  C45  1  0.64586100  0.83433800  0.13007700  1
  C  C46  1  0.71837900  0.83506500  0.20092300  1
  C  C47  1  0.52027800  0.62987000  0.62629900  1
  C  C48  1  0.39303700  0.38958800  0.50955300  1
  C  C49  1  0.51000300  0.37912200  0.38870700  1
  C  C50  1  0.63689900  0.61972700  0.50631600  1
  C  C51  1  0.50491300  0.11484400  0.12500200  1
  C  C52  1  0.39249500  0.00377800  0.88470400  1
  C  C53  1  0.51764800  0.89167800  0.88424200  1
  C  C54  1  0.62991600  0.00319100  0.12456100  1
  C  C55  1  0.45020900  0.70523500  0.67891200  1
  C  C56  1  0.52273800  0.70055700  0.69124500  1
  C  C57  1  0.59803700  0.76487100  0.76953300  1
  C  C58  1  0.59797500  0.83040200  0.83153100  1
  C  C59  1  0.52190500  0.82989800  0.81740000  1
  C  C60  1  0.44948700  0.76498500  0.73948900  1
  C  C61  1  0.35580700  0.72978400  0.68869700  1
  C  C62  1  0.35646400  0.65893600  0.61758100  1
  C  C63  1  0.46086600  0.28094600  0.23605700  1
  C  C64  1  0.50686200  0.30833000  0.32281500  1
  C  C65  1  0.55027600  0.26592900  0.34421900  1
  C  C66  1  0.54718700  0.19998600  0.27937100  1
  C  C67  1  0.50140000  0.17630300  0.19276500  1
  C  C68  1  0.45907800  0.21918600  0.17491800  1
  C  C69  1  0.40713800  0.22735900  0.10279200  1
  C  C70  1  0.40880600  0.29990400  0.17457100  1
  C  C71  1  0.70598400  0.53805700  0.34863700  1
  C  C72  1  0.65603500  0.45821200  0.27329400  1
  C  C73  1  0.67447900  0.39282200  0.26771900  1
  C  C74  1  0.74236500  0.40639800  0.33782200  1
  C  C75  1  0.79244800  0.48580700  0.41325300  1
  C  C76  1  0.77496900  0.55181500  0.41874400  1
  Cl  Cl1  1  0.76590000  0.32337100  0.33067900  1
  O  O1  1  0.09941900  0.95131700  0.54228500  1
  O  O2  1  0.11031700  0.06370000  0.65162300  1
  O  O3  1  0.09552000  0.04324200  0.44775500  1
  O  O4  1  0.10585000  0.15181500  0.56004500  1
  O  O5  1  0.91422100  0.94843200  0.36032300  1
  O  O6  1  0.92487600  0.06052300  0.46974000  1
  O  O7  1  0.91848500  0.86019400  0.45177900  1
  O  O8  1  0.92913100  0.96883000  0.56444000  1
  O  O9  1  0.46558400  0.59683400  0.54388500  1
  O  O10  1  0.57302700  0.60277300  0.65335700  1
  O  O11  1  0.36991100  0.41360100  0.45190000  1
  O  O12  1  0.47373200  0.41998900  0.56497700  1
  O  O13  1  0.45787200  0.40682400  0.36193100  1
  O  O14  1  0.56388300  0.41144200  0.47127300  1
  O  O15  1  0.55635300  0.58952400  0.45076800  1
  O  O16  1  0.66035500  0.59486400  0.56308000  1
  O  O17  1  0.56099800  0.14638900  0.10299900  1
  O  O18  1  0.45259300  0.03137500  0.08967500  1
  O  O19  1  0.47344500  0.06167000  0.92009500  1
  O  O20  1  0.36697800  0.94447100  0.90611400  1
  O  O21  1  0.57094000  0.97512300  0.92061800  1
  O  O22  1  0.46033900  0.86030000  0.90494600  1
  O  O23  1  0.65528900  0.06318400  0.10402300  1
  O  O24  1  0.54907300  0.94403000  0.08802800  1
