# generated using pymatgen
data_CuH8C17N3Cl3O4
_symmetry_space_group_name_H-M   'P 1'
_cell_length_a   10.68731300
_cell_length_b   15.59922900
_cell_length_c   17.00162400
_cell_angle_alpha   96.37939500
_cell_angle_beta   90.00597800
_cell_angle_gamma   92.83160600
_symmetry_Int_Tables_number   1
_chemical_formula_structural   CuH8C17N3Cl3O4
_chemical_formula_sum   'Cu2 H16 C34 N6 Cl6 O8'
_cell_volume   2813.37132447
_cell_formula_units_Z   2
loop_
 _symmetry_equiv_pos_site_id
 _symmetry_equiv_pos_as_xyz
  1  'x, y, z'
loop_
 _atom_site_type_symbol
 _atom_site_label
 _atom_site_symmetry_multiplicity
 _atom_site_fract_x
 _atom_site_fract_y
 _atom_site_fract_z
 _atom_site_occupancy
  Cu  Cu1  1  0.49544800  0.41386700  0.49764000  1
  Cu  Cu2  1  0.50455400  0.58613200  0.50236000  1
  H  H1  1  0.05927000  0.35011200  0.48852000  1
  H  H2  1  0.94073100  0.64988800  0.51147900  1
  H  H3  1  0.91682500  0.43369900  0.61343700  1
  H  H4  1  0.08317800  0.56630100  0.38656400  1
  H  H5  1  0.47786700  0.38233600  0.74210000  1
  H  H6  1  0.52213600  0.61766300  0.25790000  1
  H  H7  1  0.48009400  0.38857800  0.88282700  1
  H  H8  1  0.51990800  0.61142100  0.11717400  1
  H  H9  1  0.47863900  0.34204000  0.24300100  1
  H  H10  1  0.52136300  0.65795900  0.75699900  1
  H  H11  1  0.61974900  0.12495800  0.57400000  1
  H  H12  1  0.38025600  0.87504000  0.42599800  1
  H  H13  1  0.66172700  0.88570300  0.60640400  1
  H  H14  1  0.33827600  0.11429900  0.39359500  1
  H  H15  1  0.64764500  0.72799300  0.59605100  1
  H  H16  1  0.35235700  0.27200800  0.40394900  1
  C  C1  1  0.50050100  0.48630000  0.34785300  1
  C  C2  1  0.49949900  0.51369900  0.65214700  1
  C  C3  1  0.25968600  0.49721500  0.49935600  1
  C  C4  1  0.74031500  0.50278400  0.50064400  1
  C  C5  1  0.03189600  0.41817700  0.49446800  1
  C  C6  1  0.96810500  0.58182300  0.50553200  1
  C  C7  1  0.95454100  0.45875500  0.43510700  1
  C  C8  1  0.04546000  0.54124500  0.56489300  1
  C  C9  1  0.87944300  0.50279700  0.50103000  1
  C  C10  1  0.12055900  0.49720300  0.49897000  1
  C  C11  1  0.95527900  0.46287500  0.56141000  1
  C  C12  1  0.04472200  0.53712400  0.43859000  1
  C  C13  1  0.50026700  0.48034600  0.26107700  1
  C  C14  1  0.49973400  0.51965300  0.73892300  1
  C  C15  1  0.51185900  0.55490100  0.22399500  1
  C  C16  1  0.48814300  0.44509800  0.77600500  1
  C  C17  1  0.51058100  0.55095500  0.14263400  1
  C  C18  1  0.48942100  0.44904400  0.85736600  1
  C  C19  1  0.49761800  0.47159200  0.09702200  1
  C  C20  1  0.50238300  0.52840800  0.90297800  1
  C  C21  1  0.48660300  0.39720300  0.13409000  1
  C  C22  1  0.51339900  0.60279700  0.86591000  1
  C  C23  1  0.48788300  0.40129300  0.21560500  1
  C  C24  1  0.51211900  0.59870600  0.78439400  1
  C  C25  1  0.43534900  0.75672200  0.46004600  1
  C  C26  1  0.56465300  0.24327800  0.53995400  1
  C  C27  1  0.44153300  0.84558800  0.46464200  1
  C  C28  1  0.55847000  0.15441100  0.53535600  1
  C  C29  1  0.52387400  0.89318200  0.51710000  1
  C  C30  1  0.47612700  0.10681700  0.48289800  1
  C  C31  1  0.59719400  0.84987500  0.56451800  1
  C  C32  1  0.40280800  0.15012500  0.43548100  1
  C  C33  1  0.58902700  0.76084200  0.55850000  1
  C  C34  1  0.41097500  0.23915800  0.44150000  1
  N  N1  1  0.49519900  0.46439300  0.01328000  1
  N  N2  1  0.50480200  0.53560700  0.98672000  1
  N  N3  1  0.51048700  0.71495100  0.50577300  1
  N  N4  1  0.48951300  0.28504800  0.49422700  1
  N  N5  1  0.53481000  0.98448900  0.52352600  1
  N  N6  1  0.46519100  0.01551100  0.47647200  1
  Cl  Cl1  1  0.88899700  0.40310300  0.34651100  1
  Cl  Cl2  1  0.11100500  0.59689700  0.65348800  1
  Cl  Cl3  1  0.47031900  0.29663200  0.07708800  1
  Cl  Cl4  1  0.52968300  0.70336800  0.92291200  1
  Cl  Cl5  1  0.67084500  0.29878600  0.60847200  1
  Cl  Cl6  1  0.32915700  0.70121200  0.39152800  1
  O  O1  1  0.49187200  0.41540300  0.38287900  1
  O  O2  1  0.50813000  0.58459700  0.61712200  1
  O  O3  1  0.50875700  0.56332800  0.38718700  1
  O  O4  1  0.49124600  0.43667100  0.61281400  1
  O  O5  1  0.31396000  0.42334000  0.49456200  1
  O  O6  1  0.68604300  0.57666000  0.50543900  1
  O  O7  1  0.32210300  0.57182100  0.50430600  1
  O  O8  1  0.67790100  0.42817700  0.49569500  1
