# generated using pymatgen
data_CuH22C37N2(ClO2)2
_symmetry_space_group_name_H-M   'P 1'
_cell_length_a   16.99973700
_cell_length_b   17.84964800
_cell_length_c   19.39442800
_cell_angle_alpha   89.98486000
_cell_angle_beta   89.63018100
_cell_angle_gamma   93.68272800
_symmetry_Int_Tables_number   1
_chemical_formula_structural   CuH22C37N2(ClO2)2
_chemical_formula_sum   'Cu2 H44 C74 N4 Cl4 O8'
_cell_volume   5872.75594385
_cell_formula_units_Z   2
loop_
 _symmetry_equiv_pos_site_id
 _symmetry_equiv_pos_as_xyz
  1  'x, y, z'
loop_
 _atom_site_type_symbol
 _atom_site_label
 _atom_site_symmetry_multiplicity
 _atom_site_fract_x
 _atom_site_fract_y
 _atom_site_fract_z
 _atom_site_occupancy
  Cu  Cu1  1  0.50082500  0.57461200  0.49743600  1
  Cu  Cu2  1  0.50012400  0.42507900  0.50438100  1
  H  H1  1  0.25261500  0.60566400  0.49884000  1
  H  H2  1  0.74832600  0.39398500  0.50244100  1
  H  H3  1  0.11157300  0.59848200  0.49705500  1
  H  H4  1  0.88936200  0.40112300  0.50401100  1
  H  H5  1  0.89285500  0.64065900  0.48564800  1
  H  H6  1  0.10811900  0.35896000  0.51561600  1
  H  H7  1  0.74938800  0.63302500  0.48410900  1
  H  H8  1  0.25158900  0.36665100  0.51739000  1
  H  H9  1  0.49619800  0.38875600  0.71721500  1
  H  H10  1  0.50441000  0.61110900  0.28481300  1
  H  H11  1  0.49212300  0.38485700  0.84089600  1
  H  H12  1  0.50913200  0.61528000  0.16119900  1
  H  H13  1  0.51724100  0.62382400  0.84823700  1
  H  H14  1  0.48522800  0.37627900  0.15342400  1
  H  H15  1  0.42873200  0.59469300  0.94015900  1
  H  H16  1  0.57352700  0.40564100  0.06168300  1
  H  H17  1  0.42691800  0.59152700  0.06491500  1
  H  H18  1  0.57526600  0.40877100  0.93690700  1
  H  H19  1  0.61948800  0.70244600  0.52528200  1
  H  H20  1  0.38198200  0.29770400  0.47548500  1
  H  H21  1  0.62230800  0.83843400  0.51981200  1
  H  H22  1  0.38007800  0.16172900  0.47667400  1
  H  H23  1  0.38361200  0.82308000  0.45281200  1
  H  H24  1  0.62048100  0.17610600  0.53894200  1
  H  H25  1  0.38465200  0.68677500  0.45561300  1
  H  H26  1  0.61870900  0.31214700  0.54025500  1
  H  H27  1  0.40292600  0.91630000  0.55687300  1
  H  H28  1  0.59975300  0.08316600  0.43736200  1
  H  H29  1  0.47369800  0.11831600  0.64971500  1
  H  H30  1  0.37667900  0.16462200  0.73047900  1
  H  H31  1  0.19169900  0.04735200  0.61969900  1
  H  H32  1  0.28813300  0.00188200  0.53777400  1
  H  H33  1  0.71448700  0.99800200  0.45738100  1
  H  H34  1  0.81171800  0.95192500  0.37653300  1
  H  H35  1  0.62790200  0.83331100  0.26542500  1
  H  H36  1  0.53010200  0.88015900  0.34513100  1
  H  H37  1  0.64590100  0.63501900  0.68844300  1
  H  H38  1  0.67407500  0.76726400  0.65618500  1
  H  H39  1  0.44069000  0.81528000  0.71452700  1
  H  H40  1  0.41293800  0.68352600  0.74811800  1
  H  H41  1  0.58972000  0.31705600  0.25449100  1
  H  H42  1  0.56174300  0.18467900  0.28589700  1
  H  H43  1  0.32711200  0.23108000  0.34162700  1
  H  H44  1  0.35548800  0.36391700  0.31158700  1
  C  C1  1  0.49366900  0.49231600  0.36830400  1
  C  C2  1  0.50740300  0.50737900  0.63352100  1
  C  C3  1  0.65193400  0.50793000  0.49452200  1
  C  C4  1  0.34901800  0.49176700  0.50720200  1
  C  C5  1  0.73835800  0.51287100  0.49323300  1
  C  C6  1  0.26259600  0.48680400  0.50827300  1
  C  C7  1  0.77923600  0.44863600  0.49855700  1
  C  C8  1  0.22171000  0.55101400  0.50276200  1
  C  C9  1  0.86052800  0.45312900  0.49956200  1
  C  C10  1  0.14041900  0.54649400  0.50162200  1
  C  C11  1  0.90191900  0.52257900  0.49517500  1
  C  C12  1  0.09904100  0.47703700  0.50603500  1
  C  C13  1  0.86094300  0.58642500  0.48917500  1
  C  C14  1  0.14002500  0.41320500  0.51211300  1
  C  C15  1  0.77973100  0.58186900  0.48826000  1
  C  C16  1  0.22123500  0.41779300  0.51316900  1
  C  C17  1  0.50133400  0.44144200  0.74468500  1
  C  C18  1  0.49974400  0.55844700  0.25727400  1
  C  C19  1  0.49922600  0.43884600  0.81564200  1
  C  C20  1  0.50219800  0.56120800  0.18633000  1
  C  C21  1  0.50359000  0.50421700  0.85355400  1
  C  C22  1  0.49837400  0.49592200  0.14829900  1
  C  C23  1  0.51061400  0.57206300  0.81937300  1
  C  C24  1  0.49151800  0.42800500  0.18236700  1
  C  C25  1  0.51397200  0.57551500  0.74829000  1
  C  C26  1  0.48790400  0.42437600  0.25343400  1
  C  C27  1  0.50862100  0.50936500  0.70972200  1
  C  C28  1  0.49270900  0.49043700  0.29211700  1
  C  C29  1  0.46167100  0.55352600  0.96633100  1
  C  C30  1  0.54058700  0.44681000  0.03552400  1
  C  C31  1  0.46071300  0.55177700  0.03738600  1
  C  C32  1  0.54152000  0.44854100  0.96446700  1
  C  C33  1  0.50013900  0.49838000  0.07254700  1
  C  C34  1  0.50204800  0.50190500  0.92931000  1
  C  C35  1  0.56763300  0.72860900  0.50808100  1
  C  C36  1  0.43420600  0.27128500  0.49139100  1
  C  C37  1  0.56947600  0.80576600  0.50481000  1
  C  C38  1  0.43296200  0.19409400  0.49202800  1
  C  C39  1  0.50305500  0.84071800  0.48570100  1
  C  C40  1  0.49982100  0.15882200  0.50930700  1
  C  C41  1  0.43634900  0.79711000  0.46853500  1
  C  C42  1  0.56698900  0.20220600  0.52559700  1
  C  C43  1  0.43700200  0.71996600  0.47061900  1
  C  C44  1  0.56582800  0.27934900  0.52604500  1
  C  C45  1  0.44488300  0.95319000  0.52904500  1
  C  C46  1  0.55769700  0.04631700  0.46512200  1
  C  C47  1  0.44473900  0.02971000  0.53896800  1
  C  C48  1  0.55795500  0.96975100  0.45536800  1
  C  C49  1  0.50128300  0.07684300  0.50608800  1
  C  C50  1  0.50132900  0.92267100  0.48816400  1
  C  C51  1  0.38720400  0.05822900  0.58744600  1
  C  C52  1  0.41173100  0.10343900  0.64211600  1
  C  C53  1  0.35729800  0.12911600  0.68792400  1
  C  C54  1  0.27825700  0.10919700  0.67975900  1
  C  C55  1  0.25367300  0.06321800  0.62596800  1
  C  C56  1  0.30802500  0.03746900  0.58010800  1
  C  C57  1  0.61595100  0.94100500  0.40747300  1
  C  C58  1  0.69502700  0.96199500  0.41519400  1
  C  C59  1  0.74982500  0.93590500  0.36994600  1
  C  C60  1  0.72578900  0.88938600  0.31636800  1
  C  C61  1  0.64685500  0.86924500  0.30781200  1
  C  C62  1  0.59198000  0.89522600  0.35303100  1
  C  C63  1  0.52684900  0.65049100  0.71837200  1
  C  C64  1  0.60014200  0.67414600  0.69258200  1
  C  C65  1  0.61620700  0.74851800  0.67517100  1
  C  C66  1  0.55897600  0.79925900  0.68318700  1
  C  C67  1  0.48538400  0.77543900  0.70778300  1
  C  C68  1  0.46967300  0.70137900  0.72615600  1
  C  C69  1  0.47514300  0.34927400  0.28309600  1
  C  C70  1  0.53267300  0.29870600  0.27553500  1
  C  C71  1  0.51683200  0.22430100  0.29263800  1
  C  C72  1  0.44279000  0.19984700  0.31571700  1
  C  C73  1  0.38530900  0.25032100  0.32379800  1
  C  C74  1  0.40148700  0.32502000  0.30767100  1
  N  N1  1  0.98523700  0.53028800  0.49694400  1
  N  N2  1  0.01572300  0.46931500  0.50424500  1
  N  N3  1  0.50146100  0.68664400  0.49223400  1
  N  N4  1  0.49960100  0.31305300  0.50974200  1
  Cl  Cl1  1  0.20918500  0.14173600  0.73805700  1
  Cl  Cl2  1  0.79543600  0.85641300  0.25886000  1
  Cl  Cl3  1  0.58040500  0.89441700  0.66447300  1
  Cl  Cl4  1  0.42111100  0.10425200  0.33230700  1
  O  O1  1  0.49300700  0.55818000  0.39813200  1
  O  O2  1  0.50798000  0.44153900  0.60368100  1
  O  O3  1  0.49800500  0.43010900  0.40376600  1
  O  O4  1  0.50304300  0.56952800  0.59803900  1
  O  O5  1  0.61506200  0.56987700  0.49050700  1
  O  O6  1  0.38588500  0.42979500  0.51127700  1
  O  O7  1  0.61473900  0.44188300  0.50131000  1
  O  O8  1  0.38620700  0.55785600  0.50054000  1
