# generated using pymatgen
data_Zn6H38C77SO24
_symmetry_space_group_name_H-M   'P 1'
_cell_length_a   21.85158900
_cell_length_b   21.85648000
_cell_length_c   22.20958800
_cell_angle_alpha   60.55385000
_cell_angle_beta   119.44758500
_cell_angle_gamma   89.95930200
_symmetry_Int_Tables_number   1
_chemical_formula_structural   Zn6H38C77SO24
_chemical_formula_sum   'Zn6 H38 C77 S1 O24'
_cell_volume   7621.62718400
_cell_formula_units_Z   1
loop_
 _symmetry_equiv_pos_site_id
 _symmetry_equiv_pos_as_xyz
  1  'x, y, z'
loop_
 _atom_site_type_symbol
 _atom_site_label
 _atom_site_symmetry_multiplicity
 _atom_site_fract_x
 _atom_site_fract_y
 _atom_site_fract_z
 _atom_site_occupancy
  Zn  Zn1  1  0.50494700  0.42340300  0.50787600  1
  Zn  Zn2  1  0.49940300  0.56676800  0.49792700  1
  Zn  Zn3  1  0.06779700  0.99719700  0.49653300  1
  Zn  Zn4  1  0.93600000  0.99298300  0.50946000  1
  Zn  Zn5  1  0.94940400  0.53473600  0.40943500  1
  Zn  Zn6  1  0.05548400  0.45513200  0.59692100  1
  H  H1  1  0.38016500  0.76421500  0.05369900  1
  H  H2  1  0.33367500  0.71070900  0.95049600  1
  H  H3  1  0.23437400  0.86302600  0.94913400  1
  H  H4  1  0.20034200  0.75403500  0.05516500  1
  H  H5  1  0.15387400  0.70050600  0.95213100  1
  H  H6  1  0.29965500  0.60159000  0.05673300  1
  H  H7  1  0.65205600  0.59663900  0.41288700  1
  H  H8  1  0.71697500  0.36694900  0.66026600  1
  H  H9  1  0.82356300  0.25687300  0.76574700  1
  H  H10  1  0.93127600  0.24852200  0.75833800  1
  H  H11  1  0.93297800  0.35061000  0.64729900  1
  H  H12  1  0.76284400  0.59412900  0.41224200  1
  H  H13  1  0.62428700  0.34265400  0.95018800  1
  H  H14  1  0.66977900  0.18625500  0.05642700  1
  H  H15  1  0.77049500  0.33682400  0.05376900  1
  H  H16  1  0.80435900  0.32906900  0.94963200  1
  H  H17  1  0.84970400  0.17282300  0.05568900  1
  H  H18  1  0.70369700  0.17856200  0.95231200  1
  H  H19  1  0.34936300  0.39057600  0.58682900  1
  H  H20  1  0.28786800  0.62771500  0.34874100  1
  H  H21  1  0.18497300  0.74057800  0.25166200  1
  H  H22  1  0.08023500  0.74808600  0.26381800  1
  H  H23  1  0.07665900  0.64206500  0.37065700  1
  H  H24  1  0.23875400  0.39267300  0.58802000  1
  H  H25  1  0.00823200  0.74914500  0.60394500  1
  H  H26  1  0.94950200  0.94381100  0.33864600  1
  H  H27  1  0.92735200  0.95284600  0.21685700  1
  H  H28  1  0.97196600  0.72241800  0.33631300  1
  H  H29  1  0.00998400  0.63939400  0.60228200  1
  H  H30  1  0.01220800  0.23629400  0.41134400  1
  H  H31  1  0.03826000  0.05009800  0.66248500  1
  H  H32  1  0.03947600  0.04799500  0.77233400  1
  H  H33  1  0.02610700  0.16153600  0.76831100  1
  H  H34  1  0.01367500  0.27572100  0.65650800  1
  H  H35  1  0.01049300  0.34663500  0.41253300  1
  H  H36  1  0.80515700  0.86275000  0.07658500  1
  H  H37  1  0.80650800  0.91656600  0.11798600  1
  H  H38  1  0.82288400  0.81727100  0.17945300  1
  C  C1  1  0.62862600  0.49076600  0.51721400  1
  C  C2  1  0.43011700  0.57179300  0.33974200  1
  C  C3  1  0.37557500  0.49951900  0.48835300  1
  C  C4  1  0.57425600  0.41836900  0.66607600  1
  C  C5  1  0.30410400  0.71989100  0.97552500  1
  C  C6  1  0.32821900  0.75039700  0.02937300  1
  C  C7  1  0.38850500  0.61316400  0.25009300  1
  C  C8  1  0.13906500  0.85685800  0.75569300  1
  C  C9  1  0.28421200  0.66150200  0.03103700  1
  C  C10  1  0.30745300  0.69288300  0.08311700  1
  C  C11  1  0.20583700  0.71429900  0.97645600  1
  C  C12  1  0.22655900  0.77182700  0.92267100  1
  C  C13  1  0.22990600  0.74484900  0.03013000  1
  C  C14  1  0.24985500  0.80311300  0.97484300  1
  C  C15  1  0.35249400  0.64871000  0.17470400  1
  C  C16  1  0.17920800  0.81790500  0.83107800  1
  C  C17  1  0.76264000  0.36575500  0.65375900  1
  C  C18  1  0.82353500  0.30293800  0.71497400  1
  C  C19  1  0.88389900  0.29844500  0.71106100  1
  C  C20  1  0.88463000  0.35767600  0.64761400  1
  C  C21  1  0.82468700  0.42271200  0.58661800  1
  C  C22  1  0.76162400  0.42524100  0.58777300  1
  C  C23  1  0.69884200  0.48766900  0.52397600  1
  C  C24  1  0.70070700  0.54804400  0.46249800  1
  C  C25  1  0.76306300  0.54609800  0.46163600  1
  C  C26  1  0.82542200  0.48421700  0.52297700  1
  C  C27  1  0.69963900  0.21927500  0.03092500  1
  C  C28  1  0.67604700  0.30351800  0.97539900  1
  C  C29  1  0.61584700  0.37697200  0.75574600  1
  C  C30  1  0.86473200  0.13324500  0.25026000  1
  C  C31  1  0.71946500  0.21381500  0.97659500  1
  C  C32  1  0.69674100  0.29717900  0.92275800  1
  C  C33  1  0.79794900  0.21197800  0.03046500  1
  C  C34  1  0.77738400  0.21821100  0.08323900  1
  C  C35  1  0.77448600  0.29607600  0.97513200  1
  C  C36  1  0.75469600  0.30158000  0.02947700  1
  C  C37  1  0.65180400  0.34139300  0.83114800  1
  C  C38  1  0.82463900  0.17215100  0.17485700  1
  C  C39  1  0.24342900  0.62839200  0.35725800  1
  C  C40  1  0.18449000  0.69281600  0.30065400  1
  C  C41  1  0.12558400  0.69683600  0.30710100  1
  C  C42  1  0.12376200  0.63553700  0.36779700  1
  C  C43  1  0.18152900  0.56903000  0.42356400  1
  C  C44  1  0.24388300  0.56680700  0.42110400  1
  C  C45  1  0.30520600  0.50268400  0.48140300  1
  C  C46  1  0.30195700  0.44048600  0.53983000  1
  C  C47  1  0.23984000  0.44206600  0.54118400  1
  C  C48  1  0.17933600  0.50557200  0.48363200  1
  C  C49  1  0.99086600  0.88257800  0.48966200  1
  C  C50  1  0.08995900  0.90441500  0.66608800  1
  C  C51  1  0.01318700  0.10741600  0.51677800  1
  C  C52  1  0.91383100  0.08575200  0.33989100  1
  C  C53  1  0.99431800  0.62242700  0.48748900  1
  C  C54  1  0.88921000  0.48707800  0.51611200  1
  C  C55  1  0.01059500  0.36757700  0.51870500  1
  C  C56  1  0.11566600  0.50262700  0.49040500  1
  C  C57  1  0.95520600  0.89320500  0.34160400  1
  C  C58  1  0.94196900  0.89921000  0.27148900  1
  C  C59  1  0.94776200  0.83706300  0.27104600  1
  C  C60  1  0.96583800  0.76874100  0.34026000  1
  C  C61  1  0.97547000  0.76168900  0.41049600  1
  C  C62  1  0.97277600  0.82478900  0.41175400  1
  C  C63  1  0.98625700  0.81954600  0.48238900  1
  C  C64  1  0.99824900  0.75304800  0.54924100  1
  C  C65  1  0.00021100  0.69079000  0.54835900  1
  C  C66  1  0.98943000  0.69348000  0.48020900  1
  C  C67  1  0.03139700  0.10167800  0.65733900  1
  C  C68  1  0.03309700  0.09951600  0.72100900  1
  C  C69  1  0.02598900  0.16291900  0.71893700  1
  C  C70  1  0.01961000  0.22811900  0.65471500  1
  C  C71  1  0.02013300  0.23119100  0.59093000  1
  C  C72  1  0.02280800  0.16763400  0.59066700  1
  C  C73  1  0.01828900  0.17018000  0.52471200  1
  C  C74  1  0.01547000  0.23424400  0.46250200  1
  C  C75  1  0.01352300  0.29685400  0.46281500  1
  C  C76  1  0.01556000  0.29665700  0.52602800  1
  C  C77  1  0.83171100  0.86214400  0.13424800  1
  S  S1  1  0.93032100  0.84517800  0.17956200  1
  O  O1  1  0.60084700  0.43709700  0.51890500  1
  O  O2  1  0.59530700  0.54841900  0.50686300  1
  O  O3  1  0.44787300  0.49926300  0.38241400  1
  O  O4  1  0.44670900  0.60874000  0.37452700  1
  O  O5  1  0.40897600  0.44183400  0.49879800  1
  O  O6  1  0.40358100  0.55297500  0.48705400  1
  O  O7  1  0.55754300  0.38144700  0.63126200  1
  O  O8  1  0.55658300  0.49089200  0.62339800  1
  O  O9  1  0.04223500  0.91228900  0.48613600  1
  O  O10  1  0.94438700  0.90567000  0.50087500  1
  O  O11  1  0.11882100  0.92916000  0.62228700  1
  O  O12  1  0.01843100  0.92253100  0.63248600  1
  O  O13  1  0.05949600  0.08441100  0.50530700  1
  O  O14  1  0.96148100  0.07799800  0.51964800  1
  O  O15  1  0.98535900  0.06775700  0.37352800  1
  O  O16  1  0.88498700  0.06088600  0.38369600  1
  O  O17  1  0.95364200  0.62137800  0.42082200  1
  O  O18  1  0.03799600  0.56143700  0.56289200  1
  O  O19  1  0.87548300  0.51859300  0.44111800  1
  O  O20  1  0.95649100  0.46148600  0.58337900  1
  O  O21  1  0.96722200  0.42850600  0.44324500  1
  O  O22  1  0.05100600  0.36832300  0.58570900  1
  O  O23  1  0.04835300  0.52885400  0.42284300  1
  O  O24  1  0.12951000  0.47081600  0.56542900  1
