data_DB0-m3_o11_o29_f0_pcu.sym.58_repeat
_audit_creation_date              2024-02-23
_audit_creation_method            'Materials Studio'
_symmetry_space_group_name_H-M    'P1'
_symmetry_Int_Tables_number       1
_symmetry_cell_setting            triclinic
loop_
_symmetry_equiv_pos_as_xyz
  x,y,z
_cell_length_a                    27.6364
_cell_length_b                    11.1445
_cell_length_c                    9.8932
_cell_angle_alpha                 89.9974
_cell_angle_beta                  89.9930
_cell_angle_gamma                 89.9936
loop_
_atom_site_label
_atom_site_type_symbol
_atom_site_fract_x
_atom_site_fract_y
_atom_site_fract_z
_atom_site_U_iso_or_equiv
_atom_site_adp_type
_atom_site_occupancy
O1     O     0.50023   0.30689   0.62493   0.00000  Uiso   1.00
O2     O     0.50347   0.30132   0.39228   0.00000  Uiso   1.00
C1     C     0.50150   0.24791   0.50997   0.00000  Uiso   1.00
O3     O     0.42970   0.48975   0.61136   0.00000  Uiso   1.00
O4     O     0.43219   0.48263   0.37882   0.00000  Uiso   1.00
C2     C     0.40828   0.48517   0.49337   0.00000  Uiso   1.00
Zn1    Zn    0.50131   0.48688   0.65491   0.00000  Uiso   1.00
Zn2    Zn    0.50466   0.47858   0.34793   0.00000  Uiso   1.00
O5     O     0.50310   0.66441   0.61063   0.00000  Uiso   1.00
O6     O     0.50560   0.65835   0.37800   0.00000  Uiso   1.00
O7     O     0.57379   0.48324   0.62427   0.00000  Uiso   1.00
O8     O     0.57631   0.47784   0.39111   0.00000  Uiso   1.00
C3     C     0.50448   0.71805   0.49236   0.00000  Uiso   1.00
C4     C     0.59770   0.47952   0.50960   0.00000  Uiso   1.00
C5     C     0.17977   0.40923   0.55608   0.00000  Uiso   1.00
O9     O     0.20504   0.31426   0.60110   0.00000  Uiso   1.00
N1     N     0.20346   0.50569   0.50748   0.00000  Uiso   1.00
C6     C     0.17871   0.60310   0.46599   0.00000  Uiso   1.00
C7     C     0.28266   0.58315   0.57096   0.00000  Uiso   1.00
C8     C     0.33241   0.57558   0.56692   0.00000  Uiso   1.00
C9     C     0.32729   0.40532   0.41942   0.00000  Uiso   1.00
C10    C     0.27745   0.41604   0.42166   0.00000  Uiso   1.00
C11    C     0.25500   0.50309   0.49835   0.00000  Uiso   1.00
C12    C     0.10371   0.50605   0.51855   0.00000  Uiso   1.00
C13    C     0.12978   0.40829   0.56215   0.00000  Uiso   1.00
C14    C     0.10583   0.30907   0.61004   0.00000  Uiso   1.00
C15    C     0.12861   0.60426   0.47071   0.00000  Uiso   1.00
C16    C     0.35522   0.48830   0.49072   0.00000  Uiso   1.00
H1     H     0.25545   0.35401   0.36446   0.00000  Uiso   1.00
H2     H     0.12525   0.23004   0.64257   0.00000  Uiso   1.00
C17    C     0.65078   0.48100   0.51370   0.00000  Uiso   1.00
C18    C     0.97852   0.40832   0.58396   0.00000  Uiso   1.00
C19    C     0.97704   0.59837   0.46746   0.00000  Uiso   1.00
C20    C     0.95283   0.50227   0.52605   0.00000  Uiso   1.00
C21    C     0.95273   0.31814   0.64989   0.00000  Uiso   1.00
C22    C     0.90309   0.31783   0.65118   0.00000  Uiso   1.00
C23    C     0.87772   0.40754   0.58771   0.00000  Uiso   1.00
C24    C     0.90246   0.49981   0.52628   0.00000  Uiso   1.00
C25    C     0.87621   0.58929   0.46457   0.00000  Uiso   1.00
C26    C     0.82615   0.58495   0.46396   0.00000  Uiso   1.00
N2     N     0.80266   0.49339   0.52402   0.00000  Uiso   1.00
C27    C     0.82765   0.40539   0.58598   0.00000  Uiso   1.00
C28    C     0.72700   0.48463   0.39851   0.00000  Uiso   1.00
C29    C     0.67716   0.48056   0.39486   0.00000  Uiso   1.00
C30    C     0.67491   0.48486   0.63613   0.00000  Uiso   1.00
C31    C     0.72479   0.48863   0.63948   0.00000  Uiso   1.00
C32    C     0.75104   0.48893   0.52071   0.00000  Uiso   1.00
O10    O     0.80374   0.31337   0.64295   0.00000  Uiso   1.00
C33    C     0.02910   0.40677   0.57521   0.00000  Uiso   1.00
C34    C     0.05335   0.50533   0.52224   0.00000  Uiso   1.00
C35    C     0.02770   0.60291   0.47232   0.00000  Uiso   1.00
C36    C     0.05626   0.30790   0.61634   0.00000  Uiso   1.00
H3     H     0.65933   0.47741   0.29775   0.00000  Uiso   1.00
H4     H     0.74717   0.48339   0.30487   0.00000  Uiso   1.00
H5     H     0.88475   0.24570   0.70310   0.00000  Uiso   1.00
H6     H     0.96949   0.24665   0.70571   0.00000  Uiso   1.00
H7     H     0.04065   0.22496   0.65037   0.00000  Uiso   1.00
O11    O     0.20286   0.69800   0.41629   0.00000  Uiso   1.00
C37    C     0.10331   0.70330   0.42784   0.00000  Uiso   1.00
H8     H     0.35372   0.63912   0.62410   0.00000  Uiso   1.00
H9     H     0.26553   0.65073   0.63306   0.00000  Uiso   1.00
H10    H     0.12178   0.78280   0.39257   0.00000  Uiso   1.00
C38    C     0.94973   0.68692   0.40350   0.00000  Uiso   1.00
C39    C     0.90010   0.68224   0.40241   0.00000  Uiso   1.00
O12    O     0.80068   0.67361   0.40552   0.00000  Uiso   1.00
C40    C     0.05363   0.70303   0.42875   0.00000  Uiso   1.00
H11    H     0.96527   0.76053   0.34847   0.00000  Uiso   1.00
H12    H     0.65525   0.48565   0.73054   0.00000  Uiso   1.00
H13    H     0.88056   0.75274   0.35103   0.00000  Uiso   1.00
H14    H     0.74318   0.49304   0.73579   0.00000  Uiso   1.00
H15    H     0.03695   0.78548   0.39723   0.00000  Uiso   1.00
C41    C     0.50096   0.92269   0.38442   0.00000  Uiso   1.00
C42    C     0.50769   0.85053   0.49238   0.00000  Uiso   1.00
H16    H     0.51747   0.88999   0.58842   0.00000  Uiso   1.00
C43    C     0.50778   0.05429   0.39836   0.00000  Uiso   1.00
C44    C     0.49868   0.11625   0.51178   0.00000  Uiso   1.00
H17    H     0.52000   0.10380   0.31094   0.00000  Uiso   1.00
H18    H     0.48647   0.07268   0.60343   0.00000  Uiso   1.00
C45    C     0.53421   0.53945   0.92649   0.00000  Uiso   1.00
N3     N     0.49935   0.49465   0.85684   0.00000  Uiso   1.00
H19    H     0.56551   0.57601   0.87505   0.00000  Uiso   1.00
H20    H     0.46800   0.47465   0.90782   0.00000  Uiso   1.00
C46    C     0.53162   0.54839   0.07547   0.00000  Uiso   1.00
N4     N     0.50725   0.47282   0.14599   0.00000  Uiso   1.00
H21    H     0.55250   0.61723   0.12621   0.00000  Uiso   1.00
H22    H     0.49300   0.40045   0.09552   0.00000  Uiso   1.00
C47    C     0.34825   0.29864   0.34751   0.00000  Uiso   1.00
C48    C     0.33183   0.18387   0.41706   0.00000  Uiso   1.00
C49    C     0.35892   0.07719   0.35993   0.00000  Uiso   1.00
H23    H     0.35393   0.07349   0.24879   0.00000  Uiso   1.00
H24    H     0.39792   0.08512   0.38426   0.00000  Uiso   1.00
H25    H     0.34458   0.99364   0.40580   0.00000  Uiso   1.00
H26    H     0.33926   0.19053   0.52697   0.00000  Uiso   1.00
H27    H     0.29260   0.16920   0.40107   0.00000  Uiso   1.00
H28    H     0.33541   0.29846   0.24129   0.00000  Uiso   1.00
H29    H     0.38813   0.29861   0.34644   0.00000  Uiso   1.00
C50    C     0.48752   0.87123   0.24805   0.00000  Uiso   1.00
C51    C     0.47508   0.96499   0.14160   0.00000  Uiso   1.00
C52    C     0.45411   0.90360   0.01800   0.00000  Uiso   1.00
H30    H     0.48016   0.83635   0.97885   0.00000  Uiso   1.00
H31    H     0.41959   0.85866   0.04453   0.00000  Uiso   1.00
H32    H     0.44709   0.97167   0.93861   0.00000  Uiso   1.00
H33    H     0.44781   0.02896   0.18097   0.00000  Uiso   1.00
H34    H     0.50827   0.01323   0.10980   0.00000  Uiso   1.00
H35    H     0.51820   0.81751   0.20875   0.00000  Uiso   1.00
H36    H     0.45514   0.81357   0.26071   0.00000  Uiso   1.00
