# Generated by REPEAT Assigner based on pymatgen
data_DB0-m3_o11_o20_f0_pcu.sym.27
_audit_creation_date              2022-05-24
_audit_creation_method            REPEAT_Assigner
_cell_length_a                    14.534137
_cell_length_b                    11.176196
_cell_length_c                    9.929493
_cell_angle_alpha                 89.997363
_cell_angle_beta                  89.983031
_cell_angle_gamma                 90.000000
_cell_volume                      1612.910719
_symmetry_space_group_name_H-M    P1
_symmetry_Int_Tables_number       1
loop_
    _symmetry_equiv_pos_site_id
    _symmetry_equiv_pos_as_xyz
    1  x,y,z
loop_
    _atom_site_type_symbol
    _atom_site_label
    _atom_site_fract_x
    _atom_site_fract_y
    _atom_site_fract_z
    _atom_type_partial_charge
    O   O1   0.501877  0.321592  0.608928  -0.694604
    O   O2   0.499669  0.325973  0.377362  -0.587481
    C   C1   0.500529  0.267383  0.491809  0.790420
    O   O3   0.364487  0.499620  0.619038  -0.725055
    O   O4   0.362622  0.504066  0.386698  -0.721419
    C   C2   0.320802  0.501935  0.503552  0.964073
    Zn  Zn1  0.502022  0.498693  0.652333  1.097576
    Zn  Zn2  0.499173  0.505111  0.345887  0.941500
    O   O5   0.502082  0.677965  0.621460  -0.566363
    O   O6   0.500047  0.682310  0.388706  -0.499058
    O   O7   0.638621  0.499518  0.611811  -0.691562
    O   O8   0.636735  0.503536  0.379080  -0.651226
    C   C3   0.500883  0.735972  0.506301  0.596211
    C   C4   0.680380  0.501522  0.494758  0.897103
    C   C5   0.222071  0.501809  0.504472  -0.289895
    C   C6   0.139167  0.501702  0.503285  0.103347
    C   C7   0.042035  0.501586  0.500498  -0.031952
    C   C8   0.959148  0.501509  0.497767  -0.028347
    C   C9   0.862015  0.501456  0.494989  0.091220
    C   C10  0.779111  0.501456  0.493817  -0.277898
    C   C11  0.499795  0.930973  0.395569  0.095755
    C   C12  0.501193  0.867271  0.510091  -0.276656
    H   H1   0.498484  0.883830  0.300320  0.014118
    H   H2   0.502720  0.908641  0.608291  0.145403
    C   C13  0.500083  0.063216  0.385528  0.083383
    C   C14  0.500405  0.135441  0.494258  -0.324426
    H   H3   0.500464  0.097638  0.594146  0.171825
    C   C15  0.537362  0.582389  0.921795  0.235380
    N   N1   0.505541  0.493826  0.853666  -0.314021
    H   H4   0.561685  0.661156  0.869180  0.042766
    H   H5   0.494517  0.415060  0.904418  0.306102
    C   C16  0.548266  0.578170  0.069880  -0.088463
    N   N2   0.497167  0.511141  0.144450  -0.094264
    H   H6   0.444048  0.467721  0.096984  0.227883
    Br  Br1  0.499791  0.122727  0.204398  -0.086004
    Br  Br2  0.636370  0.684154  0.148323  0.144630
