# generated using pymatgen
data_Zn3H32(C4O)12
_symmetry_space_group_name_H-M   'P 1'
_cell_length_a   43.91737400
_cell_length_b   30.32351300
_cell_length_c   30.14061800
_cell_angle_alpha   90.00000000
_cell_angle_beta   133.01541000
_cell_angle_gamma   90.00000000
_symmetry_Int_Tables_number   1
_chemical_formula_structural   Zn3H32(C4O)12
_chemical_formula_sum   'Zn12 H128 C192 O48'
_cell_volume   29348.54270157
_cell_formula_units_Z   4
loop_
 _symmetry_equiv_pos_site_id
 _symmetry_equiv_pos_as_xyz
  1  'x, y, z'
loop_
 _atom_site_type_symbol
 _atom_site_label
 _atom_site_symmetry_multiplicity
 _atom_site_fract_x
 _atom_site_fract_y
 _atom_site_fract_z
 _atom_site_occupancy
  Zn  Zn1  1  0.49996000  0.94937700  0.49979700  1
  Zn  Zn2  1  0.99996000  0.44937700  0.49979700  1
  Zn  Zn3  1  0.50000400  0.04930600  0.50023900  1
  Zn  Zn4  1  0.00000400  0.54930600  0.50023900  1
  Zn  Zn5  1  0.99995600  0.99846800  0.05019700  1
  Zn  Zn6  1  0.00001000  0.99874300  0.94979700  1
  Zn  Zn7  1  0.49995600  0.49846800  0.05019700  1
  Zn  Zn8  1  0.50001000  0.49874300  0.94979700  1
  Zn  Zn9  1  0.45290200  0.99856300  0.95321000  1
  Zn  Zn10  1  0.54728400  0.99876800  0.04693100  1
  Zn  Zn11  1  0.95290200  0.49856300  0.95321000  1
  Zn  Zn12  1  0.04728400  0.49876800  0.04693100  1
  H  H1  1  0.21932300  0.98615300  0.28704700  1
  H  H2  1  0.78067500  0.98545700  0.71301400  1
  H  H3  1  0.71932300  0.48615300  0.28704700  1
  H  H4  1  0.28067500  0.48545700  0.71301400  1
  H  H5  1  0.28881100  0.97094900  0.35160000  1
  H  H6  1  0.71126100  0.96990400  0.64859500  1
  H  H7  1  0.78881100  0.47094900  0.35160000  1
  H  H8  1  0.21126100  0.46990400  0.64859500  1
  H  H9  1  0.27661900  0.04683900  0.32642400  1
  H  H10  1  0.72309700  0.04589400  0.67321800  1
  H  H11  1  0.77661900  0.54683900  0.32642400  1
  H  H12  1  0.22309700  0.54589400  0.67321800  1
  H  H13  1  0.20934100  0.06193300  0.24257500  1
  H  H14  1  0.79031400  0.06137400  0.75694200  1
  H  H15  1  0.70934100  0.56193300  0.24257500  1
  H  H16  1  0.29031400  0.56137400  0.75694200  1
  H  H17  1  0.21922500  0.06619200  0.19354700  1
  H  H18  1  0.78042800  0.06573500  0.80596100  1
  H  H19  1  0.71922500  0.56619200  0.19354700  1
  H  H20  1  0.28042800  0.56573500  0.80596100  1
  H  H21  1  0.28825500  0.95844000  0.22866000  1
  H  H22  1  0.71190300  0.95771200  0.77165300  1
  H  H23  1  0.78825500  0.45844000  0.22866000  1
  H  H24  1  0.21190300  0.45771200  0.77165300  1
  H  H25  1  0.27951400  0.01533500  0.20669900  1
  H  H26  1  0.72038300  0.01468500  0.79320300  1
  H  H27  1  0.77951400  0.51533500  0.20669900  1
  H  H28  1  0.22038300  0.51468500  0.79320300  1
  H  H29  1  0.21928400  0.94679000  0.17086300  1
  H  H30  1  0.78092200  0.94639200  0.82950700  1
  H  H31  1  0.71928400  0.44679000  0.17086300  1
  H  H32  1  0.28092200  0.44639200  0.82950700  1
  H  H33  1  0.28157400  0.93348700  0.29869900  1
  H  H34  1  0.71868300  0.93259700  0.70177400  1
  H  H35  1  0.78157400  0.43348700  0.29869900  1
  H  H36  1  0.21868300  0.43259700  0.70177400  1
  H  H37  1  0.21248600  0.93783600  0.24598000  1
  H  H38  1  0.78774500  0.93726500  0.75443500  1
  H  H39  1  0.71248600  0.43783600  0.24598000  1
  H  H40  1  0.28774500  0.43726500  0.75443500  1
  H  H41  1  0.21142700  0.00026200  0.13805200  1
  H  H42  1  0.78853800  0.99996900  0.86193700  1
  H  H43  1  0.71142700  0.50026200  0.13805200  1
  H  H44  1  0.28853800  0.49996900  0.86193700  1
  H  H45  1  0.52190600  0.06441100  0.74260200  1
  H  H46  1  0.47747100  0.06622500  0.25660200  1
  H  H47  1  0.02190600  0.56441100  0.74260200  1
  H  H48  1  0.97747100  0.56622500  0.25660200  1
  H  H49  1  0.52128800  0.06476000  0.66131300  1
  H  H50  1  0.47786700  0.06679600  0.33761600  1
  H  H51  1  0.02128800  0.56476000  0.66131300  1
  H  H52  1  0.97786700  0.56679600  0.33761600  1
  H  H53  1  0.47741900  0.93146400  0.61781500  1
  H  H54  1  0.52358500  0.93416300  0.38341600  1
  H  H55  1  0.97741900  0.43146400  0.61781500  1
  H  H56  1  0.02358500  0.43416300  0.38341600  1
  H  H57  1  0.47748200  0.93171300  0.69858600  1
  H  H58  1  0.52349200  0.93410600  0.30271300  1
  H  H59  1  0.97748200  0.43171300  0.69858600  1
  H  H60  1  0.02349200  0.43410600  0.30271300  1
  H  H61  1  0.43758300  0.97403200  0.71755200  1
  H  H62  1  0.56245200  0.97528000  0.28259300  1
  H  H63  1  0.93758300  0.47403200  0.71755200  1
  H  H64  1  0.06245200  0.47528000  0.28259300  1
  H  H65  1  0.43778100  0.97442500  0.79843500  1
  H  H66  1  0.56219400  0.97490700  0.20173200  1
  H  H67  1  0.93778100  0.47442500  0.79843500  1
  H  H68  1  0.06219400  0.47490700  0.20173200  1
  H  H69  1  0.56335300  0.02179000  0.92235200  1
  H  H70  1  0.43707500  0.02370300  0.07790800  1
  H  H71  1  0.06335300  0.52179000  0.92235200  1
  H  H72  1  0.93707500  0.52370300  0.07790800  1
  H  H73  1  0.56258300  0.02198100  0.84089900  1
  H  H74  1  0.43782200  0.02439500  0.15926600  1
  H  H75  1  0.06258300  0.52198100  0.84089900  1
  H  H76  1  0.93782200  0.52439500  0.15926600  1
  H  H77  1  0.97688000  0.77808200  0.90956500  1
  H  H78  1  0.02224800  0.77816400  0.08776100  1
  H  H79  1  0.47688000  0.27808200  0.90956500  1
  H  H80  1  0.52224800  0.27816400  0.08776100  1
  H  H81  1  0.97749500  0.85836300  0.90974400  1
  H  H82  1  0.02204100  0.85844400  0.08773500  1
  H  H83  1  0.47749500  0.35836300  0.90974400  1
  H  H84  1  0.52204100  0.35844400  0.08773500  1
  H  H85  1  0.56169100  0.21903200  0.08528100  1
  H  H86  1  0.43717300  0.21923000  0.91197400  1
  H  H87  1  0.06169100  0.71903200  0.08528100  1
  H  H88  1  0.93717300  0.71923000  0.91197400  1
  H  H89  1  0.56180200  0.13875600  0.08515000  1
  H  H90  1  0.43670400  0.13894300  0.91213500  1
  H  H91  1  0.06180200  0.63875600  0.08515000  1
  H  H92  1  0.93670400  0.63894300  0.91213500  1
  H  H93  1  0.02402600  0.21889900  0.95859400  1
  H  H94  1  0.97701100  0.21925400  0.04435000  1
  H  H95  1  0.52402600  0.71889900  0.95859400  1
  H  H96  1  0.47701100  0.71925400  0.04435000  1
  H  H97  1  0.02348000  0.13869900  0.95790200  1
  H  H98  1  0.97701300  0.13904700  0.04471500  1
  H  H99  1  0.52348000  0.63869900  0.95790200  1
  H  H100  1  0.47701300  0.63904700  0.04471500  1
  H  H101  1  0.43870900  0.77848400  0.96547000  1
  H  H102  1  0.56272000  0.77796000  0.03768100  1
  H  H103  1  0.93870900  0.27848400  0.96547000  1
  H  H104  1  0.06272000  0.27796000  0.03768100  1
  H  H105  1  0.43869000  0.85868700  0.96494100  1
  H  H106  1  0.56318500  0.85816500  0.03821000  1
  H  H107  1  0.93869000  0.35868700  0.96494100  1
  H  H108  1  0.06318500  0.35816500  0.03821000  1
  H  H109  1  0.32805800  0.06311600  0.26853800  1
  H  H110  1  0.35486200  0.13361800  0.27328800  1
  H  H111  1  0.33559600  0.20086900  0.29459200  1
  H  H112  1  0.28821300  0.19617800  0.31134200  1
  H  H113  1  0.26039900  0.12501900  0.30707100  1
  H  H114  1  0.67159900  0.06216400  0.73100500  1
  H  H115  1  0.64447900  0.13258000  0.72578300  1
  H  H116  1  0.66344300  0.19983600  0.70402600  1
  H  H117  1  0.71084400  0.19524000  0.68730300  1
  H  H118  1  0.73897500  0.12417000  0.69204900  1
  H  H119  1  0.82805800  0.56311600  0.26853800  1
  H  H120  1  0.85486200  0.63361800  0.27328800  1
  H  H121  1  0.83559600  0.70086900  0.29459200  1
  H  H122  1  0.78821300  0.69617800  0.31134200  1
  H  H123  1  0.76039900  0.62501900  0.30707100  1
  H  H124  1  0.17159900  0.56216400  0.73100500  1
  H  H125  1  0.14447900  0.63258000  0.72578300  1
  H  H126  1  0.16344300  0.69983600  0.70402600  1
  H  H127  1  0.21084400  0.69524000  0.68730300  1
  H  H128  1  0.23897500  0.62417000  0.69204900  1
  C  C1  1  0.49934800  0.99809800  0.58598800  1
  C  C2  1  0.50063300  0.00057200  0.41406600  1
  C  C3  1  0.99934800  0.49809800  0.58598800  1
  C  C4  1  0.00063300  0.50057200  0.41406600  1
  C  C5  1  0.41835200  0.00019500  0.41825400  1
  C  C6  1  0.58160100  0.99849100  0.58176800  1
  C  C7  1  0.91835200  0.50019500  0.41825400  1
  C  C8  1  0.08160100  0.49849100  0.58176800  1
  C  C9  1  0.27382900  0.96677000  0.30382400  1
  C  C10  1  0.72627000  0.96588600  0.69640400  1
  C  C11  1  0.77382900  0.46677000  0.30382400  1
  C  C12  1  0.22627000  0.46588600  0.69640400  1
  C  C13  1  0.27227400  0.04598100  0.28561700  1
  C  C14  1  0.72745900  0.04514800  0.71404200  1
  C  C15  1  0.77227400  0.54598100  0.28561700  1
  C  C16  1  0.22745900  0.54514800  0.71404200  1
  C  C17  1  0.22570600  0.04665800  0.23032600  1
  C  C18  1  0.77402700  0.04609000  0.76931500  1
  C  C19  1  0.72570600  0.54665800  0.23032600  1
  C  C20  1  0.27402700  0.54609000  0.76931500  1
  C  C21  1  0.12662600  0.99884500  0.12534000  1
  C  C22  1  0.87332800  0.99874500  0.87462800  1
  C  C23  1  0.62662600  0.49884500  0.12534000  1
  C  C24  1  0.37332800  0.49874500  0.87462800  1
  C  C25  1  0.28977500  0.00150300  0.28752500  1
  C  C26  1  0.71016900  0.00061800  0.71246400  1
  C  C27  1  0.78977500  0.50150300  0.28752500  1
  C  C28  1  0.21016900  0.50061800  0.71246400  1
  C  C29  1  0.22689800  0.97101900  0.26206300  1
  C  C30  1  0.77317900  0.97036800  0.73811800  1
  C  C31  1  0.72689800  0.47101900  0.26206300  1
  C  C32  1  0.27317900  0.47036800  0.73811800  1
  C  C33  1  0.21018500  0.99984400  0.20843200  1
  C  C34  1  0.78976600  0.99937300  0.79154500  1
  C  C35  1  0.71018500  0.49984400  0.20843200  1
  C  C36  1  0.28976600  0.49937300  0.79154500  1
  C  C37  1  0.22646900  0.98245000  0.18085000  1
  C  C38  1  0.77357200  0.98200700  0.81926500  1
  C  C39  1  0.72646900  0.48245000  0.18085000  1
  C  C40  1  0.27357200  0.48200700  0.81926500  1
  C  C41  1  0.27323400  0.98933500  0.22517600  1
  C  C42  1  0.72677700  0.98865400  0.77490500  1
  C  C43  1  0.77323400  0.48933500  0.22517600  1
  C  C44  1  0.22677700  0.48865400  0.77490500  1
  C  C45  1  0.16432500  0.99920200  0.16289700  1
  C  C46  1  0.83562800  0.99895400  0.83707300  1
  C  C47  1  0.66432500  0.49920200  0.16289700  1
  C  C48  1  0.33562800  0.49895400  0.83707300  1
  C  C49  1  0.33569300  0.00054000  0.33446400  1
  C  C50  1  0.66425600  0.99939700  0.66554400  1
  C  C51  1  0.83569300  0.50054000  0.33446400  1
  C  C52  1  0.16425600  0.49939700  0.66554400  1
  C  C53  1  0.37338500  0.00012800  0.37282300  1
  C  C54  1  0.62656700  0.99874500  0.62719700  1
  C  C55  1  0.87338500  0.50012800  0.37282300  1
  C  C56  1  0.12656700  0.49874500  0.62719700  1
  C  C57  1  0.51227300  0.03512600  0.71534700  1
  C  C58  1  0.48742400  0.03710800  0.28425200  1
  C  C59  1  0.01227300  0.53512600  0.71534700  1
  C  C60  1  0.98742400  0.53710800  0.28425200  1
  C  C61  1  0.51150400  0.03540500  0.66903500  1
  C  C62  1  0.48806900  0.03752100  0.33044800  1
  C  C63  1  0.01150400  0.53540500  0.66903500  1
  C  C64  1  0.98806900  0.53752100  0.33044800  1
  C  C65  1  0.49930700  0.99812000  0.63413500  1
  C  C66  1  0.50076000  0.00050500  0.36598700  1
  C  C67  1  0.99930700  0.49812000  0.63413500  1
  C  C68  1  0.00076000  0.50050500  0.36598700  1
  C  C69  1  0.48727400  0.96081700  0.64501600  1
  C  C70  1  0.51336100  0.96333600  0.35578700  1
  C  C71  1  0.98727400  0.46081700  0.64501600  1
  C  C72  1  0.01336100  0.46333600  0.35578700  1
  C  C73  1  0.48691700  0.96103400  0.69022300  1
  C  C74  1  0.51371300  0.96338900  0.31058000  1
  C  C75  1  0.98691700  0.46103400  0.69022300  1
  C  C76  1  0.01371300  0.46338900  0.31058000  1
  C  C77  1  0.49972800  0.99805500  0.72567100  1
  C  C78  1  0.50046400  0.00014600  0.27453800  1
  C  C79  1  0.99972800  0.49805500  0.72567100  1
  C  C80  1  0.00046400  0.50014600  0.27453800  1
  C  C81  1  0.46529800  0.98433500  0.76261100  1
  C  C82  1  0.53479700  0.98569900  0.23755700  1
  C  C83  1  0.96529800  0.48433500  0.76261100  1
  C  C84  1  0.03479700  0.48569900  0.23755700  1
  C  C85  1  0.46533600  0.98498600  0.80820400  1
  C  C86  1  0.53472900  0.98591600  0.19193200  1
  C  C87  1  0.96533600  0.48498600  0.80820400  1
  C  C88  1  0.03472900  0.48591600  0.19193200  1
  C  C89  1  0.50059900  0.99812100  0.86581200  1
  C  C90  1  0.49959700  0.99926400  0.13434100  1
  C  C91  1  0.00059900  0.49812100  0.86581200  1
  C  C92  1  0.99959700  0.49926400  0.13434100  1
  C  C93  1  0.53560200  0.01115700  0.87754300  1
  C  C94  1  0.46474900  0.01291600  0.12268100  1
  C  C95  1  0.03560200  0.51115700  0.87754300  1
  C  C96  1  0.96474900  0.51291600  0.12268100  1
  C  C97  1  0.53508900  0.01169300  0.83147900  1
  C  C98  1  0.46525900  0.01375100  0.16874000  1
  C  C99  1  0.03508900  0.51169300  0.83147900  1
  C  C100  1  0.96525900  0.51375100  0.16874000  1
  C  C101  1  0.50004800  0.99800800  0.77414700  1
  C  C102  1  0.50017600  0.99988500  0.22606900  1
  C  C103  1  0.00004800  0.49800800  0.77414700  1
  C  C104  1  0.00017600  0.49988500  0.22606900  1
  C  C105  1  0.99989200  0.91228000  0.99878600  1
  C  C106  1  0.49989200  0.41228000  0.99878600  1
  C  C107  1  0.08163800  0.99858600  0.08042000  1
  C  C108  1  0.91831600  0.99861400  0.91955500  1
  C  C109  1  0.58163800  0.49858600  0.08042000  1
  C  C110  1  0.41831600  0.49861400  0.91955500  1
  C  C111  1  0.00008500  0.08492800  0.00122000  1
  C  C112  1  0.50008500  0.58492800  0.00122000  1
  C  C113  1  0.49913700  0.08497800  0.99870100  1
  C  C114  1  0.99913700  0.58497800  0.99870100  1
  C  C115  1  0.50083500  0.99829500  0.91423300  1
  C  C116  1  0.49934900  0.99902200  0.08589100  1
  C  C117  1  0.00083500  0.49829500  0.91423300  1
  C  C118  1  0.99934900  0.49902200  0.08589100  1
  C  C119  1  0.50105200  0.91236600  0.00145900  1
  C  C120  1  0.00105200  0.41236600  0.00145900  1
  C  C121  1  0.98669000  0.79562400  0.94872900  1
  C  C122  1  0.01252700  0.79566900  0.04862900  1
  C  C123  1  0.48669000  0.29562400  0.94872900  1
  C  C124  1  0.51252700  0.29566900  0.04862900  1
  C  C125  1  0.98741800  0.84107100  0.94911800  1
  C  C126  1  0.01203500  0.84111800  0.04833100  1
  C  C127  1  0.48741800  0.34107100  0.94911800  1
  C  C128  1  0.51203500  0.34111800  0.04833100  1
  C  C129  1  0.99978700  0.86402000  0.99874800  1
  C  C130  1  0.49978700  0.36402000  0.99874800  1
  C  C131  1  0.99955100  0.77275300  0.99865800  1
  C  C132  1  0.49955100  0.27275300  0.99865800  1
  C  C133  1  0.53410800  0.20155300  0.04723000  1
  C  C134  1  0.46468000  0.20166100  0.95002300  1
  C  C135  1  0.03410800  0.70155300  0.04723000  1
  C  C136  1  0.96468000  0.70166100  0.95002300  1
  C  C137  1  0.53425900  0.15610500  0.04683900  1
  C  C138  1  0.46432600  0.15621300  0.95042600  1
  C  C139  1  0.03425900  0.65610500  0.04683900  1
  C  C140  1  0.96432600  0.65621300  0.95042600  1
  C  C141  1  0.49924100  0.13323500  0.99864000  1
  C  C142  1  0.99924100  0.63323500  0.99864000  1
  C  C143  1  0.49944400  0.22450100  0.99863000  1
  C  C144  1  0.99944400  0.72450100  0.99863000  1
  C  C145  1  0.01385900  0.20149400  0.97784600  1
  C  C146  1  0.98706000  0.20169400  0.02502900  1
  C  C147  1  0.51385900  0.70149400  0.97784600  1
  C  C148  1  0.48706000  0.70169400  0.02502900  1
  C  C149  1  0.01316100  0.15604800  0.97696500  1
  C  C150  1  0.98744400  0.15624200  0.02571600  1
  C  C151  1  0.51316100  0.65604800  0.97696500  1
  C  C152  1  0.48744400  0.65624200  0.02571600  1
  C  C153  1  0.00022400  0.13320400  0.00129100  1
  C  C154  1  0.50022400  0.63320400  0.00129100  1
  C  C155  1  0.00054200  0.22451000  0.00149000  1
  C  C156  1  0.50054200  0.72451000  0.00149000  1
  C  C157  1  0.46622000  0.79585100  0.98179400  1
  C  C158  1  0.53531400  0.79555800  0.02138500  1
  C  C159  1  0.96622000  0.29585100  0.98179400  1
  C  C160  1  0.03531400  0.29555800  0.02138500  1
  C  C161  1  0.46611100  0.84129900  0.98098800  1
  C  C162  1  0.53567600  0.84100800  0.02219500  1
  C  C163  1  0.96611100  0.34129900  0.98098800  1
  C  C164  1  0.03567600  0.34100800  0.02219500  1
  C  C165  1  0.50095300  0.86409400  0.00157600  1
  C  C166  1  0.00095300  0.36409400  0.00157600  1
  C  C167  1  0.50069900  0.77278900  0.00157300  1
  C  C168  1  0.00069900  0.27278900  0.00157300  1
  C  C169  1  0.29159800  0.08807400  0.28754000  1
  C  C170  1  0.31837500  0.09124000  0.27797600  1
  C  C171  1  0.33401100  0.13160700  0.28064000  1
  C  C172  1  0.32326000  0.16930600  0.29257400  1
  C  C173  1  0.29675700  0.16664800  0.30193300  1
  C  C174  1  0.28110000  0.12638900  0.29940500  1
  C  C175  1  0.70794600  0.08718200  0.71183500  1
  C  C176  1  0.68115400  0.09029400  0.72137800  1
  C  C177  1  0.66533800  0.13061100  0.71844300  1
  C  C178  1  0.67592000  0.16831300  0.70625500  1
  C  C179  1  0.70243300  0.16570800  0.69691100  1
  C  C180  1  0.71827000  0.12549900  0.69970900  1
  C  C181  1  0.79159800  0.58807400  0.28754000  1
  C  C182  1  0.81837500  0.59124000  0.27797600  1
  C  C183  1  0.83401100  0.63160700  0.28064000  1
  C  C184  1  0.82326000  0.66930600  0.29257400  1
  C  C185  1  0.79675700  0.66666667  0.30193300  1
  C  C186  1  0.78110000  0.62638900  0.29940500  1
  C  C187  1  0.20794600  0.58718200  0.71183500  1
  C  C188  1  0.18115400  0.59029400  0.72137800  1
  C  C189  1  0.16533800  0.63061100  0.71844300  1
  C  C190  1  0.17592000  0.66831300  0.70625500  1
  C  C191  1  0.20243300  0.66570800  0.69691100  1
  C  C192  1  0.21827000  0.62549900  0.69970900  1
  O  O1  1  0.50018200  0.96003300  0.56631200  1
  O  O2  1  0.50165300  0.96252400  0.43564600  1
  O  O3  1  0.00018200  0.46003300  0.56631200  1
  O  O4  1  0.00165300  0.46252400  0.43564600  1
  O  O5  1  0.49880700  0.03618100  0.56493200  1
  O  O6  1  0.49927300  0.03862900  0.43319200  1
  O  O7  1  0.99880700  0.53618100  0.56493200  1
  O  O8  1  0.99927300  0.53862900  0.43319200  1
  O  O9  1  0.43798400  0.96217400  0.43855800  1
  O  O10  1  0.56220500  0.96036300  0.56351800  1
  O  O11  1  0.93798400  0.46217400  0.43855800  1
  O  O12  1  0.06220500  0.46036300  0.56351800  1
  O  O13  1  0.43775300  0.03832200  0.43702100  1
  O  O14  1  0.56196800  0.03649400  0.56097800  1
  O  O15  1  0.93775300  0.53832200  0.43702100  1
  O  O16  1  0.06196800  0.53649400  0.56097800  1
  O  O17  1  0.99921100  0.93293500  0.03636300  1
  O  O18  1  0.00065300  0.93281800  0.96125200  1
  O  O19  1  0.49921100  0.43293500  0.03636300  1
  O  O20  1  0.50065300  0.43281800  0.96125200  1
  O  O21  1  0.06193300  0.99976800  0.09901400  1
  O  O22  1  0.93802200  0.99793000  0.90095200  1
  O  O23  1  0.56193300  0.49976800  0.09901400  1
  O  O24  1  0.43802200  0.49793000  0.90095200  1
  O  O25  1  0.06228200  0.99733300  0.02282200  1
  O  O26  1  0.93767500  0.99930800  0.97716500  1
  O  O27  1  0.56228200  0.49733300  0.02282200  1
  O  O28  1  0.43767500  0.49930800  0.97716500  1
  O  O29  1  0.99875100  0.06438000  0.03816000  1
  O  O30  1  0.00130600  0.06426200  0.96420300  1
  O  O31  1  0.49875100  0.56438000  0.03816000  1
  O  O32  1  0.50130600  0.56426200  0.96420300  1
  O  O33  1  0.46316000  0.06447400  0.96352600  1
  O  O34  1  0.53505300  0.06431300  0.03402200  1
  O  O35  1  0.96316000  0.56447400  0.96352600  1
  O  O36  1  0.03505300  0.56431300  0.03402200  1
  O  O37  1  0.46495600  0.99873800  0.89925900  1
  O  O38  1  0.53519900  0.99748000  0.10083100  1
  O  O39  1  0.96495600  0.49873800  0.89925900  1
  O  O40  1  0.03519900  0.49748000  0.10083100  1
  O  O41  1  0.53688000  0.99802600  0.97039100  1
  O  O42  1  0.46333400  0.00045400  0.02975000  1
  O  O43  1  0.03688000  0.49802600  0.97039100  1
  O  O44  1  0.96333400  0.50045400  0.02975000  1
  O  O45  1  0.46516500  0.93304500  0.96724300  1
  O  O46  1  0.53699400  0.93287400  0.03546000  1
  O  O47  1  0.96516500  0.43304500  0.96724300  1
  O  O48  1  0.03699400  0.43287400  0.03546000  1
