# generated using pymatgen
data_ZnH23C22(N3O2)2
_symmetry_space_group_name_H-M   'P 1'
_cell_length_a   14.53293700
_cell_length_b   15.90244200
_cell_length_c   17.13171700
_cell_angle_alpha   89.12145600
_cell_angle_beta   89.99593100
_cell_angle_gamma   92.53893300
_symmetry_Int_Tables_number   1
_chemical_formula_structural   ZnH23C22(N3O2)2
_chemical_formula_sum   'Zn2 H46 C44 N12 O8'
_cell_volume   3954.94446478
_cell_formula_units_Z   2
loop_
 _symmetry_equiv_pos_site_id
 _symmetry_equiv_pos_as_xyz
  1  'x, y, z'
loop_
 _atom_site_type_symbol
 _atom_site_label
 _atom_site_symmetry_multiplicity
 _atom_site_fract_x
 _atom_site_fract_y
 _atom_site_fract_z
 _atom_site_occupancy
  Zn  Zn1  1  0.49372000  0.40440600  0.49424600  1
  Zn  Zn2  1  0.50524000  0.59529100  0.50638500  1
  H  H1  1  0.55834500  0.39962000  0.25133000  1
  H  H2  1  0.44402500  0.60179800  0.74973800  1
  H  H3  1  0.54008300  0.35035900  0.89140900  1
  H  H4  1  0.45577200  0.64841400  0.10939000  1
  H  H5  1  0.59013700  0.26806700  0.56974500  1
  H  H6  1  0.40817100  0.73149100  0.43143000  1
  H  H7  1  0.58687100  0.11642500  0.56848500  1
  H  H8  1  0.41126900  0.88315000  0.43266200  1
  H  H9  1  0.62704600  0.88125500  0.60192600  1
  H  H10  1  0.37240400  0.11862100  0.39800800  1
  H  H11  1  0.45547900  0.31235100  0.11916400  1
  H  H12  1  0.55664900  0.28255400  0.17327300  1
  H  H13  1  0.54810700  0.26242700  0.07038800  1
  H  H14  1  0.70258500  0.45175800  0.08716100  1
  H  H15  1  0.70012000  0.34069400  0.06625100  1
  H  H16  1  0.69353000  0.37506300  0.16612300  1
  H  H17  1  0.29292000  0.55624400  0.89970500  1
  H  H18  1  0.31536500  0.63692900  0.82587400  1
  H  H19  1  0.30044500  0.66559100  0.92665400  1
  H  H20  1  0.54022600  0.68165100  0.85618800  1
  H  H21  1  0.49565700  0.71761100  0.94708300  1
  H  H22  1  0.43351300  0.73636600  0.85763600  1
  H  H23  1  0.67999500  0.37557300  0.78710000  1
  H  H24  1  0.68507900  0.33245600  0.69069100  1
  H  H25  1  0.66150100  0.26342800  0.77367100  1
  H  H26  1  0.42439200  0.27393700  0.74186200  1
  H  H27  1  0.50745600  0.23739400  0.81180600  1
  H  H28  1  0.51853800  0.21275900  0.70991300  1
  H  H29  1  0.57019100  0.72706200  0.25778100  1
  H  H30  1  0.47498800  0.78637300  0.29061700  1
  H  H31  1  0.48531300  0.76191000  0.18864200  1
  H  H32  1  0.31635100  0.62052400  0.21474700  1
  H  H33  1  0.33229100  0.73289700  0.22814300  1
  H  H34  1  0.31122900  0.66345000  0.31125300  1
  H  H35  1  0.54380700  0.72013200  0.70292600  1
  H  H36  1  0.64703600  0.78712700  0.70975100  1
  H  H37  1  0.65295800  0.67487400  0.72461600  1
  H  H38  1  0.73826500  0.72104300  0.52438000  1
  H  H39  1  0.77157200  0.68109400  0.61901300  1
  H  H40  1  0.75490800  0.79208800  0.60497600  1
  H  H41  1  0.26052100  0.27839700  0.47467000  1
  H  H42  1  0.24481400  0.20781700  0.39359700  1
  H  H43  1  0.22827900  0.31887600  0.37995500  1
  H  H44  1  0.45702500  0.28074700  0.29772700  1
  H  H45  1  0.34776700  0.32529100  0.27520600  1
  H  H46  1  0.35444600  0.21306000  0.28989400  1
  C  C1  1  0.49840100  0.48594800  0.65301900  1
  C  C2  1  0.50056100  0.51373900  0.34763100  1
  C  C3  1  0.67914500  0.49708000  0.50064900  1
  C  C4  1  0.31981500  0.50261500  0.49997600  1
  C  C5  1  0.77784300  0.49682700  0.50066700  1
  C  C6  1  0.22111700  0.50287200  0.49994500  1
  C  C7  1  0.86078300  0.49758900  0.50058500  1
  C  C8  1  0.13817700  0.50211300  0.50001700  1
  C  C9  1  0.95799500  0.49912100  0.50039300  1
  C  C10  1  0.04096500  0.50058400  0.50020300  1
  C  C11  1  0.49609100  0.47932900  0.73883100  1
  C  C12  1  0.50259000  0.52030700  0.26184400  1
  C  C13  1  0.46693900  0.54688500  0.78062600  1
  C  C14  1  0.53297200  0.45321600  0.22006600  1
  C  C15  1  0.46377900  0.54467600  0.86139800  1
  C  C16  1  0.53564700  0.45536100  0.13927600  1
  C  C17  1  0.49137700  0.47306900  0.90122300  1
  C  C18  1  0.50662500  0.52652000  0.09955900  1
  C  C19  1  0.51826100  0.40502900  0.85938800  1
  C  C20  1  0.47868100  0.59415300  0.14139800  1
  C  C21  1  0.52125400  0.40728900  0.77866200  1
  C  C22  1  0.47592600  0.59186100  0.22210300  1
  C  C23  1  0.45652700  0.76456800  0.46921300  1
  C  C24  1  0.54203100  0.23505600  0.53170000  1
  C  C25  1  0.45876700  0.85128900  0.47022900  1
  C  C26  1  0.53970500  0.14834100  0.53064700  1
  C  C27  1  0.52083200  0.89377000  0.51848300  1
  C  C28  1  0.47795300  0.10594400  0.48205000  1
  C  C29  1  0.57873100  0.84793700  0.56430100  1
  C  C30  1  0.42044200  0.15186400  0.43592900  1
  C  C31  1  0.57496700  0.76094200  0.56176800  1
  C  C32  1  0.42429900  0.23886200  0.43849600  1
  C  C33  1  0.53127900  0.30716100  0.11675800  1
  C  C34  1  0.67300600  0.38894300  0.10510700  1
  C  C35  1  0.32842500  0.61817700  0.88733800  1
  C  C36  1  0.47628800  0.69118200  0.88954900  1
  C  C37  1  0.65001000  0.32657100  0.74812600  1
  C  C38  1  0.49803600  0.26141100  0.75139300  1
  C  C39  1  0.49608700  0.73813400  0.24895300  1
  C  C40  1  0.34556700  0.67005400  0.25354400  1
  C  C41  1  0.61880200  0.72479100  0.69096400  1
  C  C42  1  0.72988500  0.72802500  0.58825300  1
  C  C43  1  0.26962600  0.27177200  0.41083100  1
  C  C44  1  0.38193200  0.27551400  0.30903800  1
  N  N1  1  0.49178100  0.46563900  0.98375000  1
  N  N2  1  0.50602100  0.53393500  0.01703900  1
  N  N3  1  0.51391000  0.72076000  0.51432500  1
  N  N4  1  0.48503700  0.27894200  0.48629400  1
  N  N5  1  0.52697500  0.98263200  0.52239700  1
  N  N6  1  0.47177400  0.01708300  0.47809800  1
  N  N7  1  0.57427200  0.38846700  0.09869500  1
  N  N8  1  0.42558300  0.61210700  0.90149600  1
  N  N9  1  0.55299800  0.33780900  0.73748000  1
  N  N10  1  0.44302100  0.66077300  0.26340700  1
  N  N11  1  0.63431100  0.71377300  0.60884200  1
  N  N12  1  0.36542400  0.28615400  0.39107200  1
  O  O1  1  0.49462800  0.41698000  0.61175000  1
  O  O2  1  0.50430700  0.58272000  0.38887900  1
  O  O3  1  0.50228700  0.56156100  0.62092000  1
  O  O4  1  0.49669900  0.43813500  0.37971700  1
  O  O5  1  0.63228900  0.42494600  0.49611100  1
  O  O6  1  0.36667200  0.57474500  0.50453400  1
  O  O7  1  0.64054400  0.56976800  0.50493800  1
  O  O8  1  0.35841600  0.42992900  0.49566800  1
