# Generated by REPEAT Assigner based on pymatgen
data_DB0-m9_o18_o27_f0_sra.sym.55
_audit_creation_date              2022-05-24
_audit_creation_method            REPEAT_Assigner
_cell_length_a                    26.581400
_cell_length_b                    6.818000
_cell_length_c                    23.123298
_cell_angle_alpha                 90.000000
_cell_angle_beta                  102.095305
_cell_angle_gamma                 90.000000
_cell_volume                      4097.649744
_symmetry_space_group_name_H-M    P1
_symmetry_Int_Tables_number       1
loop_
    _symmetry_equiv_pos_site_id
    _symmetry_equiv_pos_as_xyz
    1  x,y,z
loop_
    _atom_site_type_symbol
    _atom_site_label
    _atom_site_fract_x
    _atom_site_fract_y
    _atom_site_fract_z
    _atom_type_partial_charge
    O   O1   0.210342  0.692252  0.679992  -0.460412
    O   O2   0.788599  0.279331  0.320777  -0.456448
    O   O3   0.289658  0.192251  0.820008  -0.460400
    O   O4   0.711401  0.779331  0.179223  -0.456441
    O   O5   0.192491  0.345293  0.792171  -0.518378
    O   O6   0.808472  0.626445  0.209350  -0.518641
    O   O7   0.307509  0.845293  0.707829  -0.518339
    O   O8   0.691529  0.126445  0.290651  -0.518661
    C   C1   0.187393  0.520618  0.816429  0.507401
    C   C2   0.814053  0.451130  0.185359  0.511173
    C   C3   0.312607  0.020619  0.683571  0.507233
    C   C4   0.685947  0.951130  0.314641  0.511195
    O   O9   0.192637  0.346265  0.674491  -0.518312
    O   O10  0.806085  0.625449  0.326490  -0.531036
    O   O11  0.307363  0.846266  0.825509  -0.518310
    O   O12  0.693915  0.125448  0.173510  -0.531022
    O   O13  0.290563  0.191154  0.694576  -0.528937
    O   O14  0.708158  0.780534  0.304070  -0.529448
    O   O15  0.209437  0.691153  0.805424  -0.528999
    O   O16  0.791842  0.280533  0.195930  -0.529434
    C   C5   0.188611  0.530138  0.653989  0.515624
    C   C6   0.809796  0.441757  0.347138  0.515231
    C   C7   0.311389  0.030139  0.846012  0.515625
    C   C8   0.690204  0.941757  0.152862  0.515295
    O   O17  0.282562  0.512712  0.760488  -0.535734
    O   O18  0.717583  0.458966  0.238868  -0.547648
    O   O19  0.217438  0.012711  0.739513  -0.535731
    O   O20  0.782418  0.958967  0.261132  -0.547649
    V   V1   0.240474  0.241368  0.744986  1.453581
    V   V2   0.759390  0.730303  0.255121  1.470606
    V   V3   0.259526  0.741367  0.755014  1.453428
    V   V4   0.740610  0.230304  0.244879  1.470669
    C   C9   0.653836  0.904265  0.097098  0.021094
    C   C10  0.349041  0.069227  0.900646  -0.022335
    C   C11  0.846164  0.404264  0.402902  0.021410
    C   C12  0.150958  0.569227  0.599354  -0.022324
    C   C13  0.627150  0.691407  0.014719  -0.106828
    C   C14  0.375832  0.281190  0.983129  -0.261414
    C   C15  0.872850  0.191407  0.485280  -0.106867
    C   C16  0.124169  0.781190  0.516871  -0.261459
    C   C17  0.662634  0.744489  0.064333  -0.161966
    C   C18  0.338896  0.220237  0.935878  -0.085325
    C   C19  0.837366  0.244490  0.435667  -0.161999
    C   C20  0.161103  0.720236  0.564122  -0.085314
    C   C21  0.608146  0.006823  0.081465  -0.224146
    C   C22  0.396481  0.977415  0.913094  -0.239705
    C   C23  0.891854  0.506821  0.418535  -0.224500
    C   C24  0.103519  0.477416  0.586907  -0.239723
    C   C25  0.570587  0.947413  0.032895  0.129362
    C   C26  0.435166  0.044519  0.959439  -0.013627
    C   C27  0.929414  0.447413  0.467105  0.129568
    C   C28  0.064834  0.544519  0.540561  -0.013637
    C   C29  0.581604  0.793370  0.998620  0.092692
    C   C30  0.424339  0.199932  0.993367  0.587981
    C   C31  0.918396  0.293370  0.501380  0.092586
    C   C32  0.075662  0.699932  0.506633  0.588079
    C   C33  0.521747  0.033462  0.019137  -0.183634
    C   C34  0.484535  0.962485  0.971991  0.074453
    C   C35  0.978254  0.533462  0.480863  -0.183724
    C   C36  0.015464  0.462485  0.528009  0.074465
    C   C37  0.497460  0.811942  0.937615  -0.167636
    C   C38  0.509461  0.188834  0.052161  0.171268
    C   C39  0.002540  0.311942  0.562385  -0.167653
    C   C40  0.990539  0.688833  0.447840  0.171391
    C   C41  0.545962  0.732282  0.949939  -0.049190
    C   C42  0.461713  0.274189  0.038316  -0.401274
    C   C43  0.954039  0.232282  0.550061  -0.049133
    C   C44  0.038287  0.774189  0.461685  -0.401421
    H   H1   0.402643  0.861608  0.883844  0.164715
    H   H2   0.602024  0.123580  0.110406  0.180363
    H   H3   0.097357  0.361607  0.616156  0.164728
    H   H4   0.897977  0.623580  0.389594  0.180447
    H   H5   0.301794  0.291798  0.926157  0.090041
    H   H6   0.697306  0.658867  0.078117  0.099887
    H   H7   0.198207  0.791799  0.573844  0.090035
    H   H8   0.802694  0.158867  0.421883  0.099875
    H   H9   0.633778  0.561258  0.990740  0.104293
    H   H10  0.366542  0.393756  0.012044  0.087798
    H   H11  0.866222  0.061258  0.509260  0.104313
    H   H12  0.133458  0.893757  0.487956  0.087812
    H   H13  0.471087  0.755956  0.899569  0.123161
    H   H14  0.536884  0.253468  0.087789  -0.005082
    H   H15  0.028913  0.255956  0.600431  0.123153
    H   H16  0.963116  0.753468  0.412211  -0.005099
    C   C45  0.633897  0.780684  0.380723  -0.264217
    C   C46  0.363823  0.191230  0.616541  -0.234858
    C   C47  0.866103  0.280682  0.119278  -0.264193
    C   C48  0.136177  0.691230  0.883459  -0.234509
    H   H17  0.652167  0.642772  0.374624  0.139541
    H   H18  0.345414  0.328929  0.622543  0.129638
    H   H19  0.847834  0.142772  0.125376  0.139550
    H   H20  0.154586  0.828929  0.877457  0.129604
    C   C49  0.597465  0.788092  0.416567  0.208290
    C   C50  0.400099  0.183990  0.580483  0.190608
    C   C51  0.902536  0.288092  0.083433  0.208333
    C   C52  0.099901  0.683990  0.919518  0.190059
    H   H21  0.588066  0.655448  0.437630  0.009207
    H   H22  0.409215  0.316500  0.559143  0.016386
    H   H23  0.911934  0.155448  0.062370  0.009153
    H   H24  0.090785  0.816500  0.940857  0.016482
    C   C53  0.573199  0.962891  0.425673  -0.513308
    C   C54  0.424595  0.009530  0.571551  -0.534094
    C   C55  0.926801  0.462891  0.074327  -0.513363
    C   C56  0.075405  0.509530  0.928449  -0.533313
    C   C57  0.586348  0.129379  0.397899  0.137113
    C   C58  0.411775  0.843176  0.599635  0.173604
    C   C59  0.913652  0.629379  0.102101  0.136955
    C   C60  0.088225  0.343177  0.900366  0.173097
    H   H25  0.568243  0.267596  0.404043  0.032682
    H   H26  0.430058  0.705217  0.593630  0.020859
    H   H27  0.931757  0.767595  0.095957  0.032806
    H   H28  0.069943  0.205217  0.906370  0.020961
    C   C61  0.622555  0.121993  0.362280  -0.200504
    C   C62  0.375752  0.850413  0.635481  -0.235374
    C   C63  0.877445  0.621993  0.137721  -0.200395
    C   C64  0.124248  0.350413  0.864519  -0.235061
    H   H29  0.631977  0.254970  0.341394  0.118361
    H   H30  0.366689  0.717634  0.656728  0.140727
    H   H31  0.868024  0.754970  0.158607  0.118324
    H   H32  0.133311  0.217634  0.843272  0.140692
    C   C65  0.646949  0.948335  0.353058  0.147672
    C   C66  0.351167  0.023715  0.644594  0.141217
    C   C67  0.853051  0.448335  0.146943  0.147636
    C   C68  0.148833  0.523716  0.855406  0.140851
    N   N1   0.511463  0.147129  0.471748  -0.321060
    N   N2   0.486297  0.825421  0.525427  -0.318403
    N   N3   0.988537  0.647130  0.028253  -0.321149
    N   N4   0.013703  0.325421  0.974573  -0.318405
    N   N5   0.476828  0.158864  0.505665  -0.350781
    N   N6   0.520924  0.813680  0.491503  -0.348630
    N   N7   0.023172  0.658864  0.994335  -0.350733
    N   N8   0.979076  0.313680  0.008497  -0.348626
    C   C69  0.463567  0.998088  0.533173  0.906736
    C   C70  0.534177  0.974435  0.463984  0.892272
    C   C71  0.036433  0.498088  0.966827  0.906450
    C   C72  0.965822  0.474435  0.036016  0.892409
    C   C73  0.559209  0.581776  0.910759  0.069588
    C   C74  0.522363  0.449157  0.884142  0.027038
    Cl  Cl1  0.460545  0.456441  0.899286  -0.105357
    C   C75  0.534410  0.308466  0.846403  -0.054348
    C   C76  0.583053  0.302271  0.834429  0.022451
    Cl  Cl2  0.598173  0.124702  0.786071  -0.078074
    C   C77  0.619520  0.437971  0.859767  -0.083068
    C   C78  0.607602  0.578170  0.897745  -0.127345
    H   H33  0.505668  0.203247  0.826094  0.088306
    H   H34  0.657300  0.435868  0.849327  0.106731
    H   H35  0.635586  0.690086  0.915005  0.112050
    C   C79  0.451708  0.448424  0.070828  0.095266
    C   C80  0.472158  0.461812  0.130647  0.102286
    Cl  Cl3  0.508285  0.267259  0.167532  -0.030824
    C   C81  0.463521  0.626903  0.161613  -0.167141
    C   C82  0.435187  0.780343  0.132579  0.127171
    Cl  Cl4  0.424556  0.990639  0.171807  -0.101705
    C   C83  0.416079  0.769752  0.072440  -0.122323
    C   C84  0.424527  0.604403  0.041460  -0.125086
    H   H36  0.479076  0.636201  0.208631  0.107047
    H   H37  0.395014  0.892186  0.049432  0.032896
    H   H38  0.411877  0.602007  0.993840  0.187263
    C   C85  0.940791  0.081776  0.589241  0.069604
    C   C86  0.977637  0.949158  0.615858  0.027013
    Cl  Cl5  0.039456  0.956441  0.600714  -0.105355
    C   C87  0.965590  0.808467  0.653597  -0.054327
    C   C88  0.916948  0.802271  0.665571  0.022450
    Cl  Cl6  0.901827  0.624702  0.713929  -0.078082
    C   C89  0.880480  0.937970  0.640233  -0.083069
    C   C90  0.892398  0.078171  0.602255  -0.127362
    H   H39  0.994332  0.703248  0.673906  0.088301
    H   H40  0.842701  0.935868  0.650673  0.106736
    H   H41  0.864414  0.190085  0.584995  0.112058
    C   C91  0.048292  0.948423  0.429172  0.095366
    C   C92  0.027842  0.961813  0.369353  0.102220
    Cl  Cl7  0.991715  0.767259  0.332468  -0.030831
    C   C93  0.036480  0.126901  0.338388  -0.167064
    C   C94  0.064813  0.280342  0.367421  0.127135
    Cl  Cl8  0.075444  0.490639  0.328193  -0.101698
    C   C95  0.083921  0.269753  0.427560  -0.122288
    C   C96  0.075473  0.104403  0.458540  -0.125157
    H   H42  0.020924  0.136200  0.291369  0.107017
    H   H43  0.104986  0.392185  0.450568  0.032888
    H   H44  0.088123  0.102007  0.506160  0.187285
