# Generated by REPEAT Assigner based on pymatgen
data_DB0-m3_o8_o12_f0_pcu.sym.18_sqe
_audit_creation_date              2022-05-24
_audit_creation_method            REPEAT_Assigner
_cell_length_a                    11.211659
_cell_length_b                    16.002951
_cell_length_c                    17.110595
_cell_angle_alpha                 89.111883
_cell_angle_beta                  90.745439
_cell_angle_gamma                 104.786419
_cell_volume                      2967.824158
_symmetry_space_group_name_H-M    P1
_symmetry_Int_Tables_number       1
loop_
    _symmetry_equiv_pos_site_id
    _symmetry_equiv_pos_as_xyz
    1  x,y,z
loop_
    _atom_site_type_symbol
    _atom_site_label
    _atom_site_fract_x
    _atom_site_fract_y
    _atom_site_fract_z
    _atom_type_partial_charge
    O   O1   0.486371  0.416737  0.611990  -0.714131
    O   O2   0.499922  0.578268  0.385464  -0.703140
    O   O3   0.499847  0.562746  0.618120  -0.687099
    O   O4   0.486699  0.432219  0.379334  -0.674849
    C   C1   0.493015  0.487366  0.651647  0.822202
    C   C2   0.493299  0.507602  0.345819  0.807597
    O   O5   0.670425  0.452464  0.496892  -0.728874
    O   O6   0.315898  0.542517  0.500907  -0.708513
    O   O7   0.683191  0.598399  0.502674  -0.719126
    O   O8   0.303121  0.396440  0.494952  -0.727774
    C   C3   0.734250  0.533253  0.499991  0.902480
    C   C4   0.252109  0.461670  0.497599  0.887802
    Zn  Zn1  0.485550  0.401349  0.494654  1.093811
    Zn  Zn2  0.500795  0.593611  0.502807  1.062394
    H   H1   0.113284  0.574125  0.501774  0.127661
    H   H2   0.873036  0.420796  0.495929  0.112495
    C   C5   0.869164  0.551608  0.500751  -0.437599
    C   C6   0.117193  0.443308  0.496926  -0.401859
    C   C7   0.925660  0.487670  0.498437  0.028948
    C   C8   0.060690  0.507242  0.499277  -0.017897
    H   H3   0.063098  0.376759  0.494386  0.163958
    H   H4   0.923250  0.618159  0.503280  0.174207
    C   C9   0.492645  0.481824  0.737340  -0.211097
    C   C10  0.493668  0.513136  0.260124  -0.212319
    C   C11  0.499083  0.554695  0.781249  -0.081362
    C   C12  0.487138  0.440248  0.216220  -0.076889
    C   C13  0.498448  0.549823  0.861828  -0.142136
    C   C14  0.487761  0.445112  0.135639  -0.139717
    C   C15  0.491311  0.471260  0.899482  0.464945
    C   C16  0.494974  0.523682  0.097981  0.465719
    C   C17  0.485016  0.398773  0.855487  -0.357808
    C   C18  0.501357  0.596183  0.141971  -0.369223
    C   C19  0.485642  0.403725  0.775001  0.056414
    C   C20  0.500747  0.591241  0.222457  0.078796
    N   N1   0.490221  0.462798  0.981955  -0.239556
    N   N2   0.496062  0.532139  0.015508  -0.245456
    H   H5   0.481509  0.378358  0.244148  0.113411
    H   H6   0.504630  0.616573  0.753323  0.124541
    H   H7   0.482499  0.386090  0.104364  0.054761
    H   H8   0.503628  0.608832  0.893106  0.058949
    H   H9   0.479462  0.337393  0.884434  0.128564
    H   H10  0.506974  0.657570  0.113019  0.135580
    H   H11  0.480528  0.345668  0.742306  0.098055
    H   H12  0.505948  0.649313  0.255145  0.086080
    N   N3   0.507833  0.719500  0.508388  0.005778
    N   N4   0.478919  0.275521  0.489255  -0.058704
    C   C21  0.419245  0.748815  0.472356  -0.101556
    C   C22  0.555397  0.245856  0.536670  -0.081316
    C   C23  0.414496  0.833905  0.479196  -0.075785
    C   C24  0.566649  0.162278  0.531614  0.046333
    C   C25  0.507008  0.891159  0.521932  0.110566
    C   C26  0.493814  0.106301  0.477160  0.291302
    C   C27  0.594990  0.858050  0.561367  -0.023411
    C   C28  0.419234  0.140048  0.426161  -0.212663
    C   C29  0.593911  0.771617  0.552971  -0.134780
    C   C30  0.412096  0.225011  0.434169  -0.067613
    N   N5   0.509252  0.980039  0.531414  -0.062294
    N   N6   0.495301  0.017780  0.468876  -0.219289
    H   H13  0.613438  0.289800  0.577164  0.173647
    H   H14  0.348902  0.703765  0.439606  0.145353
    H   H15  0.660734  0.743546  0.581696  0.163227
    H   H16  0.354433  0.253138  0.396676  0.157683
    C   C31  0.670402  0.143324  0.578402  -0.222663
    C   C32  0.633949  0.127113  0.663528  -0.114876
    H   H17  0.619448  0.186878  0.689258  0.062185
    H   H18  0.547414  0.075090  0.668187  0.010697
    H   H19  0.708852  0.108002  0.696462  0.049040
    H   H20  0.701892  0.089550  0.554020  0.101500
    H   H21  0.750839  0.200403  0.575149  0.088010
    C   C33  0.303489  0.856837  0.444184  0.320889
    C   C34  0.222497  0.879005  0.507040  -0.213701
    H   H22  0.204068  0.827278  0.552503  0.051447
    H   H23  0.266956  0.941666  0.534303  0.048922
    H   H24  0.133695  0.883433  0.480225  0.050601
    H   H25  0.330541  0.908958  0.400198  -0.120424
    H   H26  0.246455  0.800568  0.412456  -0.025115
    C   C35  0.690091  0.917556  0.611508  0.251191
    C   C36  0.767722  0.873054  0.662733  -0.390918
    H   H27  0.707674  0.822401  0.699889  0.108584
    H   H28  0.829162  0.845541  0.626334  0.084939
    H   H29  0.826662  0.921853  0.701591  0.095549
    H   H30  0.753536  0.964575  0.573230  0.012958
    H   H31  0.642239  0.951813  0.651312  -0.001278
    C   C37  0.346702  0.082555  0.363970  0.360700
    C   C38  0.294577  0.129851  0.299619  -0.464099
    H   H32  0.218432  0.155031  0.322270  0.097552
    H   H33  0.368541  0.182734  0.274313  0.141365
    H   H34  0.256222  0.083417  0.252634  0.105568
    H   H35  0.407930  0.048167  0.335029  -0.016536
    H   H36  0.268817  0.035097  0.391754  0.018488
