data_DB0-m3_o11_o13_f0_pcu.sym.82_repeat
_audit_creation_date              2024-02-23
_audit_creation_method            'Materials Studio'
_symmetry_space_group_name_H-M    'P1'
_symmetry_Int_Tables_number       1
_symmetry_cell_setting            triclinic
loop_
_symmetry_equiv_pos_as_xyz
  x,y,z
_cell_length_a                    13.1210
_cell_length_b                    11.1381
_cell_length_c                    9.9080
_cell_angle_alpha                 89.9974
_cell_angle_beta                  95.3808
_cell_angle_gamma                 90.0060
loop_
_atom_site_label
_atom_site_type_symbol
_atom_site_fract_x
_atom_site_fract_y
_atom_site_fract_z
_atom_site_U_iso_or_equiv
_atom_site_adp_type
_atom_site_occupancy
O1     O     0.50556   0.30443   0.61638   0.00000  Uiso   1.00
O2     O     0.50122   0.30499   0.38359   0.00000  Uiso   1.00
C1     C     0.50331   0.24863   0.50018   0.00000  Uiso   1.00
O3     O     0.35168   0.48169   0.60659   0.00000  Uiso   1.00
O4     O     0.34820   0.48427   0.37401   0.00000  Uiso   1.00
C2     C     0.30174   0.48504   0.48558   0.00000  Uiso   1.00
Zn1    Zn    0.50488   0.48244   0.65722   0.00000  Uiso   1.00
Zn2    Zn    0.49981   0.48454   0.34960   0.00000  Uiso   1.00
O5     O     0.50360   0.66188   0.62377   0.00000  Uiso   1.00
O6     O     0.50132   0.66295   0.38990   0.00000  Uiso   1.00
O7     O     0.65646   0.48434   0.63339   0.00000  Uiso   1.00
O8     O     0.65324   0.48413   0.39962   0.00000  Uiso   1.00
C3     C     0.50203   0.71831   0.50713   0.00000  Uiso   1.00
C4     C     0.70262   0.48482   0.52152   0.00000  Uiso   1.00
C5     C     0.81453   0.49357   0.53512   0.00000  Uiso   1.00
C6     C     0.18896   0.48729   0.47322   0.00000  Uiso   1.00
C7     C     0.03316   0.42544   0.34669   0.00000  Uiso   1.00
C8     C     0.13824   0.43189   0.36154   0.00000  Uiso   1.00
C9     C     0.13209   0.54060   0.56980   0.00000  Uiso   1.00
C10    C     0.02633   0.52152   0.56134   0.00000  Uiso   1.00
C11    C     0.97714   0.46780   0.44727   0.00000  Uiso   1.00
C12    C     0.87157   0.45688   0.43255   0.00000  Uiso   1.00
C13    C     0.86385   0.53987   0.65267   0.00000  Uiso   1.00
C14    C     0.96835   0.55506   0.66540   0.00000  Uiso   1.00
H1     H     0.83399   0.41743   0.34141   0.00000  Uiso   1.00
H2     H     0.82111   0.56818   0.73514   0.00000  Uiso   1.00
H3     H     0.99520   0.38262   0.25782   0.00000  Uiso   1.00
H4     H     0.00243   0.59105   0.76015   0.00000  Uiso   1.00
H5     H     0.18062   0.39180   0.28469   0.00000  Uiso   1.00
C15    C     0.50132   0.91572   0.39692   0.00000  Uiso   1.00
C16    C     0.50166   0.84988   0.51036   0.00000  Uiso   1.00
H6     H     0.50097   0.87054   0.30006   0.00000  Uiso   1.00
H7     H     0.50124   0.89016   0.60929   0.00000  Uiso   1.00
C17    C     0.50072   0.04882   0.39409   0.00000  Uiso   1.00
C18    C     0.50431   0.11721   0.50541   0.00000  Uiso   1.00
H8     H     0.49746   0.09168   0.29560   0.00000  Uiso   1.00
H9     H     0.50827   0.07879   0.60564   0.00000  Uiso   1.00
C19    C     0.54894   0.56415   0.93613   0.00000  Uiso   1.00
N1     N     0.51019   0.47947   0.85961   0.00000  Uiso   1.00
H10    H     0.58012   0.64288   0.89063   0.00000  Uiso   1.00
H11    H     0.49397   0.40031   0.90622   0.00000  Uiso   1.00
C20    C     0.55742   0.55405   0.08576   0.00000  Uiso   1.00
N2     N     0.49581   0.48842   0.14735   0.00000  Uiso   1.00
H12    H     0.61465   0.60733   0.14471   0.00000  Uiso   1.00
H13    H     0.43420   0.45233   0.08971   0.00000  Uiso   1.00
C21    C     0.18032   0.62833   0.67279   0.00000  Uiso   1.00
O9     O     0.12453   0.73519   0.66602   0.00000  Uiso   1.00
H14    H     0.25910   0.65303   0.65395   0.00000  Uiso   1.00
H15    H     0.18144   0.58952   0.77603   0.00000  Uiso   1.00
H16    H     0.15229   0.78114   0.74677   0.00000  Uiso   1.00
