# Generated by REPEAT Assigner based on pymatgen
data_DB0-m2_o14_o23_f0_nbo.sym.52_sqe
_audit_creation_date              2022-05-24
_audit_creation_method            REPEAT_Assigner
_cell_length_a                    21.648357
_cell_length_b                    21.655538
_cell_length_c                    22.015239
_cell_angle_alpha                 119.447047
_cell_angle_beta                  119.439936
_cell_angle_gamma                 90.011999
_cell_volume                      7418.322480
_symmetry_space_group_name_H-M    P1
_symmetry_Int_Tables_number       1
loop_
    _symmetry_equiv_pos_site_id
    _symmetry_equiv_pos_as_xyz
    1  x,y,z
loop_
    _atom_site_type_symbol
    _atom_site_label
    _atom_site_fract_x
    _atom_site_fract_y
    _atom_site_fract_z
    _atom_type_partial_charge
    O   O1   0.439388  0.079413  0.480561  -0.588543
    O   O2   0.559657  0.918485  0.517565  -0.590812
    O   O3   0.553206  0.086680  0.496334  -0.573456
    O   O4   0.445787  0.911159  0.501683  -0.572870
    C   C1   0.494319  0.109058  0.483222  0.683602
    C   C2   0.504664  0.888772  0.514771  0.684996
    O   O5   0.500447  0.063738  0.617079  -0.615124
    O   O6   0.498584  0.934099  0.381005  -0.614455
    O   O7   0.610983  0.071854  0.625409  -0.599215
    O   O8   0.388039  0.926053  0.372666  -0.599007
    C   C3   0.573583  0.089633  0.660373  0.803449
    C   C4   0.425447  0.908239  0.337710  0.802690
    Cu  Cu1  0.435533  0.997059  0.493918  0.984204
    Cu  Cu2  0.563493  0.000813  0.504161  0.985963
    C   C5   0.767614  0.638104  0.653581  -0.266080
    C   C6   0.230507  0.360493  0.343135  -0.264799
    C   C7   0.699070  0.449202  0.462216  -0.058028
    C   C8   0.300158  0.548316  0.536492  -0.052268
    C   C9   0.698822  0.511416  0.525175  -0.205627
    C   C10  0.300114  0.486443  0.472944  -0.209178
    H   H1   0.834393  0.746875  0.767010  0.107578
    H   H2   0.163090  0.252443  0.228695  0.107285
    C   C11  0.828803  0.569793  0.589533  0.180427
    C   C12  0.169901  0.428469  0.408227  0.176372
    H   H3   0.719623  0.645973  0.655361  0.161639
    H   H4   0.278258  0.352539  0.340862  0.161288
    C   C13  0.658005  0.276984  0.950703  -0.154711
    C   C14  0.339564  0.718871  0.047359  -0.152431
    C   C15  0.772860  0.266254  0.952352  -0.157676
    C   C16  0.225252  0.733815  0.045800  -0.160879
    C   C17  0.819505  0.316098  0.048100  -0.089391
    C   C18  0.178503  0.683900  0.950059  -0.091163
    H   H5   0.723714  0.384733  0.068117  0.019200
    H   H6   0.272042  0.611422  0.929933  0.018042
    H   H7   0.650371  0.312891  0.926698  0.030967
    H   H8   0.345445  0.683146  0.071353  0.029991
    H   H9   0.801444  0.226580  0.931095  0.030934
    H   H10  0.197775  0.774922  0.067063  0.032100
    H   H11  0.766602  0.301258  0.927441  0.034131
    H   H12  0.229790  0.699093  0.070742  0.035232
    H   H13  0.832995  0.375518  0.069662  0.020817
    H   H14  0.163271  0.624619  0.928529  0.020930
    H   H15  0.872630  0.303445  0.073640  0.013548
    H   H16  0.126318  0.697988  0.924529  0.014400
    C   C19  0.860776  0.383885  0.247387  -0.096096
    C   C20  0.138165  0.613917  0.750736  -0.099321
    C   C21  0.696132  0.222865  0.919228  0.707828
    C   C22  0.302911  0.774955  0.078871  0.709387
    C   C23  0.706182  0.325697  0.046509  -0.075492
    C   C24  0.291327  0.670185  0.951553  -0.071872
    C   C25  0.775372  0.302446  0.078928  0.644591
    C   C26  0.223611  0.695355  0.919185  0.640356
    C   C27  0.756528  0.219619  0.045599  -0.161033
    C   C28  0.244859  0.778056  0.952503  -0.157918
    C   C29  0.704215  0.172331  0.949939  -0.248602
    C   C30  0.297229  0.825178  0.048156  -0.239008
    C   C31  0.821567  0.347852  0.171332  -0.408310
    C   C32  0.177387  0.649944  0.826787  -0.403966
    C   C33  0.651157  0.176825  0.826852  -0.356717
    C   C34  0.347889  0.821017  0.171242  -0.359185
    C   C35  0.615178  0.137691  0.750796  -0.162604
    C   C36  0.383861  0.860167  0.247294  -0.161667
    H   H17  0.648419  0.141436  0.926670  0.037124
    H   H18  0.353690  0.854389  0.071350  0.035016
    H   H19  0.729121  0.130712  0.923797  0.065271
    H   H20  0.273456  0.868208  0.074357  0.060879
    H   H21  0.602429  0.245461  0.927594  0.027085
    H   H22  0.395839  0.748750  0.070442  0.025720
    H   H23  0.674065  0.322579  0.071943  0.013260
    H   H24  0.323965  0.671667  0.926096  0.011822
    H   H25  0.809467  0.206337  0.060669  0.050479
    H   H26  0.192722  0.792994  0.937505  0.050157
    H   H27  0.600829  0.238100  0.587139  0.128930
    H   H28  0.398774  0.759213  0.409877  0.129231
    C   C37  0.369369  0.103817  0.342681  -0.246574
    C   C38  0.628780  0.894627  0.656206  -0.244969
    H   H29  0.371187  0.051618  0.337095  0.155500
    H   H30  0.626895  0.946682  0.661444  0.155674
    C   C39  0.306086  0.102135  0.279637  -0.086140
    C   C40  0.691686  0.896779  0.720019  -0.089030
    H   H31  0.260252  0.050408  0.228466  0.103972
    H   H32  0.737175  0.948723  0.771471  0.104526
    C   C41  0.300876  0.166309  0.282216  -0.069978
    C   C42  0.696947  0.832807  0.717888  -0.069168
    H   H33  0.250578  0.165378  0.233456  0.103017
    H   H34  0.746945  0.834126  0.767316  0.103313
    C   C43  0.359891  0.231698  0.346116  -0.272389
    C   C44  0.638373  0.767115  0.653578  -0.273754
    H   H35  0.352025  0.279911  0.344850  0.160555
    H   H36  0.646340  0.719160  0.655378  0.161158
    C   C45  0.425540  0.234268  0.409095  0.197696
    C   C46  0.573078  0.764008  0.589696  0.201179
    C   C47  0.428610  0.170038  0.409191  0.201477
    C   C48  0.569976  0.828130  0.589356  0.199036
    C   C49  0.491311  0.172164  0.474744  -0.142921
    C   C50  0.507650  0.825656  0.523212  -0.140312
    C   C51  0.551895  0.236312  0.536297  -0.109335
    C   C52  0.447428  0.761234  0.461159  -0.113737
    H   H37  0.597973  0.349201  0.585711  0.128442
    H   H38  0.401655  0.648205  0.411431  0.127292
    C   C53  0.549632  0.299469  0.535916  -0.078601
    C   C54  0.449730  0.698138  0.461649  -0.072769
    C   C55  0.487123  0.299890  0.473408  -0.193287
    C   C56  0.511892  0.698042  0.524796  -0.196151
    C   C57  0.762165  0.447036  0.461668  -0.131499
    C   C58  0.237106  0.550514  0.537117  -0.140233
    C   C59  0.826444  0.507445  0.523498  -0.133226
    C   C60  0.172571  0.490450  0.474802  -0.125952
    H   H39  0.649235  0.401002  0.412143  0.122406
    H   H40  0.350179  0.596261  0.586973  0.122067
    O   O9   0.919084  0.559758  0.517822  -0.571847
    O   O10  0.079833  0.438042  0.480277  -0.573518
    O   O11  0.912056  0.445851  0.501732  -0.609887
    O   O12  0.086915  0.551996  0.496465  -0.610898
    C   C61  0.889501  0.504645  0.514911  0.710593
    C   C62  0.109488  0.493218  0.483324  0.711859
    O   O13  0.930040  0.498453  0.381765  -0.608307
    O   O14  0.068930  0.499358  0.616367  -0.608029
    O   O15  0.931404  0.387390  0.371971  -0.548893
    O   O16  0.067503  0.610425  0.626169  -0.551112
    C   C63  0.908870  0.425132  0.337758  0.741366
    C   C64  0.090067  0.572677  0.660373  0.743474
    Cu  Cu3  0.001460  0.562944  0.504351  0.975254
    Cu  Cu4  0.997479  0.434871  0.493786  0.974424
    O   O17  0.626016  0.538200  0.585248  -0.575778
    O   O18  0.372989  0.459821  0.412940  -0.574303
    O   O19  0.565457  0.472475  0.441025  -0.601272
    O   O20  0.433521  0.525259  0.557114  -0.601379
    C   C65  0.627018  0.508684  0.517547  0.720864
    C   C66  0.371948  0.489173  0.480593  0.719640
    O   O21  0.525891  0.433198  0.557379  -0.604353
    O   O22  0.473248  0.564696  0.440817  -0.605859
    O   O23  0.460336  0.372445  0.413129  -0.571906
    O   O24  0.538516  0.625422  0.585017  -0.570343
    C   C67  0.489782  0.371597  0.480919  0.719562
    C   C68  0.509238  0.626309  0.517276  0.718465
    Cu  Cu5  0.534283  0.533831  0.582124  0.949549
    Cu  Cu6  0.464713  0.464045  0.416043  0.950562
    C   C69  0.764662  0.572770  0.589889  0.207007
    C   C70  0.233953  0.425472  0.407667  0.208855
    H   H41  0.760222  0.398348  0.410479  0.138041
    H   H42  0.239258  0.598929  0.588710  0.140407
    C   C71  0.895203  0.628761  0.656263  -0.245639
    C   C72  0.103247  0.369917  0.341169  -0.245651
    H   H43  0.947305  0.626973  0.661566  0.137265
    H   H44  0.051273  0.371758  0.336175  0.137242
    C   C73  0.897213  0.691712  0.719898  -0.066139
    C   C74  0.100808  0.307338  0.276827  -0.065663
    H   H45  0.949084  0.737330  0.771239  0.099753
    H   H46  0.048736  0.262049  0.225218  0.099086
    C   C75  0.833194  0.696849  0.717728  -0.087197
    C   C76  0.164645  0.302169  0.278595  -0.086888
    C   C77  0.729295  0.201124  0.087721  0.244348
    C   C78  0.777753  0.187402  0.146788  -0.255585
    C   C79  0.755469  0.170622  0.187262  -0.047834
    C   C80  0.684349  0.166712  0.168766  0.057503
    Cl  Cl1  0.656130  0.145377  0.220231  -0.106098
    C   C81  0.635360  0.179300  0.109433  -0.078654
    C   C82  0.657456  0.196273  0.068931  -0.249701
    H   H47  0.834081  0.190647  0.162884  0.136693
    H   H48  0.793989  0.160604  0.233718  0.098158
    H   H49  0.579295  0.175701  0.094383  0.097710
    H   H50  0.617250  0.204752  0.021959  0.157202
    C   C83  0.273396  0.794731  0.910283  0.237354
    C   C84  0.226453  0.809081  0.851214  -0.251160
    C   C85  0.249933  0.824185  0.810591  -0.045866
    C   C86  0.320768  0.825777  0.828944  0.055012
    Cl  Cl2  0.350493  0.844945  0.777256  -0.105752
    C   C87  0.368287  0.812567  0.888297  -0.078105
    C   C88  0.344986  0.797263  0.928947  -0.247845
    H   H51  0.170363  0.807627  0.835216  0.134814
    H   H52  0.212572  0.834697  0.764122  0.097825
    H   H53  0.424140  0.814350  0.903235  0.097919
    H   H54  0.384073  0.788220  0.975916  0.156953
