# Generated by REPEAT Assigner based on pymatgen
data_DB0-m3_o19_o28_f0_nbo.sym.48_sqe
_audit_creation_date              2022-05-24
_audit_creation_method            REPEAT_Assigner
_cell_length_a                    23.777331
_cell_length_b                    23.777198
_cell_length_c                    46.926130
_cell_angle_alpha                 90.000000
_cell_angle_beta                  90.000000
_cell_angle_gamma                 90.000000
_cell_volume                      26530.077524
_symmetry_space_group_name_H-M    P1
_symmetry_Int_Tables_number       1
loop_
    _symmetry_equiv_pos_site_id
    _symmetry_equiv_pos_as_xyz
    1  x,y,z
loop_
    _atom_site_type_symbol
    _atom_site_label
    _atom_site_fract_x
    _atom_site_fract_y
    _atom_site_fract_z
    _atom_type_partial_charge
    O   O1    0.952462  0.416244  0.499398  -0.667418
    O   O2    0.584034  0.950328  0.500896  -0.656455
    O   O3    0.047390  0.583533  0.500886  -0.669981
    O   O4    0.415768  0.049517  0.499391  -0.654427
    O   O5    0.950264  0.583978  0.499315  -0.656403
    O   O6    0.583503  0.047451  0.499293  -0.669450
    O   O7    0.049612  0.415802  0.500401  -0.654487
    O   O8    0.416302  0.952370  0.500427  -0.667734
    O   O9    0.449965  0.916146  0.000716  -0.656183
    O   O10   0.083872  0.450259  0.000877  -0.656332
    O   O11   0.549914  0.084016  0.999571  -0.654594
    O   O12   0.915932  0.550002  0.999385  -0.654680
    O   O13   0.452768  0.083871  0.000632  -0.667672
    O   O14   0.083660  0.547384  0.999273  -0.669362
    O   O15   0.547086  0.916293  0.999087  -0.669990
    O   O16   0.916147  0.452853  0.000421  -0.667590
    C   C1    0.000934  0.389916  0.499851  0.812770
    C   C2    0.609875  0.999018  0.500104  0.817594
    C   C3    0.998929  0.609861  0.500154  0.817344
    C   C4    0.389927  0.000814  0.499895  0.813516
    C   C5    0.498546  0.890113  0.999847  0.817662
    C   C6    0.109872  0.498864  0.000082  0.816406
    C   C7    0.501319  0.110052  0.000150  0.813749
    C   C8    0.889932  0.501383  0.999891  0.812656
    O   O17   0.950032  0.500963  0.457383  -0.673156
    O   O18   0.501895  0.952722  0.457529  -0.691197
    O   O19   0.047100  0.499176  0.457506  -0.690612
    O   O20   0.498308  0.049732  0.457369  -0.674724
    O   O21   0.952794  0.501448  0.542492  -0.691834
    O   O22   0.498752  0.047139  0.542478  -0.690493
    O   O23   0.049804  0.497978  0.542613  -0.673412
    O   O24   0.500658  0.950076  0.542637  -0.671757
    O   O25   0.452694  0.998652  0.957538  -0.691945
    O   O26   0.001719  0.452922  0.957517  -0.691699
    O   O27   0.549719  0.001855  0.957360  -0.674803
    O   O28   0.998468  0.549941  0.957355  -0.674308
    O   O29   0.450126  0.999144  0.042648  -0.672911
    O   O30   0.998931  0.547354  0.042465  -0.691362
    O   O31   0.547196  0.000668  0.042468  -0.690076
    O   O32   0.000500  0.450283  0.042625  -0.673374
    C   C9    0.998616  0.500099  0.444136  0.545775
    C   C10   0.500210  0.001162  0.444138  0.542347
    C   C11   0.001251  0.499711  0.555865  0.543070
    C   C12   0.499624  0.998674  0.555867  0.540976
    C   C13   0.501128  0.000255  0.944138  0.544139
    C   C14   0.000196  0.501366  0.944123  0.543508
    C   C15   0.498741  0.999876  0.055868  0.543487
    C   C16   0.999640  0.498888  0.055853  0.545639
    Zn  Zn1   0.936208  0.499925  0.500059  1.329213
    Zn  Zn2   0.500003  0.936193  0.499964  1.328956
    Zn  Zn3   0.063657  0.499865  0.499946  1.329434
    Zn  Zn4   0.499812  0.063641  0.500035  1.329827
    Zn  Zn5   0.436212  0.000249  0.999980  1.329246
    Zn  Zn6   0.999794  0.436400  0.999951  1.329657
    Zn  Zn7   0.563655  0.999903  0.000019  1.329909
    Zn  Zn8   0.000024  0.563849  0.000021  1.329712
    Zn  Zn9   0.999942  0.999883  0.468575  1.293168
    Zn  Zn10  0.999861  0.999896  0.531424  1.293419
    Zn  Zn11  0.499953  0.500079  0.968561  1.293690
    Zn  Zn12  0.499853  0.500088  0.031409  1.293234
    C   C17   0.034102  0.464772  0.190443  0.339424
    C   C18   0.534201  0.034933  0.190326  0.330635
    C   C19   0.964909  0.534660  0.190340  0.337213
    C   C20   0.465307  0.964750  0.190480  0.337094
    C   C21   0.034916  0.535802  0.809564  0.344377
    C   C22   0.536032  0.966088  0.809597  0.347432
    C   C23   0.966252  0.465407  0.809615  0.340891
    C   C24   0.464661  0.033736  0.809605  0.349070
    C   C25   0.534885  0.964927  0.690401  0.336862
    C   C26   0.036038  0.534347  0.690377  0.344589
    C   C27   0.464656  0.033777  0.690404  0.336651
    C   C28   0.965551  0.465777  0.690422  0.342158
    C   C29   0.534122  0.035964  0.309524  0.348015
    C   C30   0.034200  0.465501  0.309649  0.336320
    C   C31   0.466520  0.964551  0.309677  0.340046
    C   C32   0.964407  0.534790  0.309546  0.340987
    N   N1    0.999494  0.499624  0.176492  -0.073228
    N   N2    0.499650  0.999824  0.176507  -0.069103
    N   N3    0.000560  0.500668  0.823485  -0.077540
    N   N4    0.500418  0.999981  0.823500  -0.082770
    N   N5    0.499703  0.999285  0.676506  -0.072291
    N   N6    0.000830  0.499991  0.676504  -0.078210
    N   N7    0.500353  0.000345  0.323499  -0.078456
    N   N8    0.999234  0.500158  0.323497  -0.073928
    C   C33   0.962371  0.534399  0.220155  -0.021193
    C   C34   0.466045  0.962208  0.220288  -0.015871
    C   C35   0.036662  0.465401  0.220251  -0.024158
    C   C36   0.533883  0.037576  0.220138  -0.011520
    C   C37   0.963580  0.465877  0.779809  -0.024910
    C   C38   0.465031  0.036271  0.779795  -0.036149
    C   C39   0.037681  0.535074  0.779761  -0.023180
    C   C40   0.535370  0.963271  0.779796  -0.031726
    C   C41   0.462218  0.033399  0.720218  -0.017402
    C   C42   0.966086  0.463199  0.720230  -0.025557
    C   C43   0.537607  0.965583  0.720207  -0.017648
    C   C44   0.035373  0.537213  0.720176  -0.027036
    C   C45   0.463746  0.964905  0.279872  -0.028539
    C   C46   0.964981  0.537291  0.279737  -0.022489
    C   C47   0.536726  0.035265  0.279720  -0.031537
    C   C48   0.033887  0.462912  0.279836  -0.020769
    C   C49   0.999498  0.499954  0.235147  0.049672
    C   C50   0.500036  0.999937  0.235156  0.039261
    C   C51   0.000655  0.500408  0.764841  0.048661
    C   C52   0.500128  0.999701  0.764850  0.059773
    C   C53   0.499984  0.999561  0.735155  0.041870
    C   C54   0.000705  0.500273  0.735148  0.052822
    C   C55   0.500171  0.000032  0.264850  0.056836
    C   C56   0.999459  0.500053  0.264843  0.049087
    C   C57   0.924910  0.568927  0.235228  -0.191163
    C   C58   0.432407  0.924126  0.235474  -0.201697
    C   C59   0.074213  0.431136  0.235409  -0.187648
    C   C60   0.567787  0.075654  0.235183  -0.202034
    C   C61   0.926027  0.431476  0.764730  -0.187224
    C   C62   0.429996  0.073184  0.764691  -0.175129
    C   C63   0.075262  0.569365  0.764635  -0.193493
    C   C64   0.570258  0.926215  0.764694  -0.181858
    C   C65   0.424215  0.067244  0.735341  -0.199885
    C   C66   0.931659  0.425750  0.735361  -0.190032
    C   C67   0.575759  0.931883  0.735317  -0.198165
    C   C68   0.069722  0.574822  0.735249  -0.186311
    C   C69   0.426744  0.929833  0.264841  -0.178012
    C   C70   0.930727  0.574849  0.264576  -0.193136
    C   C71   0.573695  0.070116  0.264546  -0.179908
    C   C72   0.068343  0.425383  0.264763  -0.191608
    O   O33   0.064982  0.429128  0.174754  -0.413058
    O   O34   0.569192  0.066274  0.174496  -0.411053
    O   O35   0.933997  0.570076  0.174537  -0.412295
    O   O36   0.430061  0.933380  0.174810  -0.413723
    O   O37   0.065353  0.571787  0.825277  -0.415521
    O   O38   0.572427  0.936172  0.825323  -0.415055
    O   O39   0.935768  0.429556  0.825383  -0.413903
    O   O40   0.428414  0.063792  0.825351  -0.415879
    O   O41   0.566209  0.929774  0.674654  -0.412621
    O   O42   0.072036  0.564681  0.674621  -0.415419
    O   O43   0.433197  0.068794  0.674649  -0.412733
    O   O44   0.929621  0.435298  0.674699  -0.414906
    O   O45   0.564103  0.072423  0.325181  -0.416790
    O   O46   0.069593  0.434560  0.325452  -0.411276
    O   O47   0.436600  0.928309  0.325492  -0.413173
    O   O48   0.928837  0.565749  0.325238  -0.414494
    C   C73   0.046464  0.516403  0.368827  -0.156571
    C   C74   0.482624  0.047593  0.368667  -0.144908
    C   C75   0.951523  0.483941  0.368698  -0.153550
    C   C76   0.518143  0.953755  0.368840  -0.153081
    C   C77   0.048048  0.482514  0.631306  -0.149004
    C   C78   0.483808  0.951457  0.631310  -0.154105
    C   C79   0.953856  0.517080  0.631202  -0.153872
    C   C80   0.515303  0.046723  0.631180  -0.157240
    C   C81   0.547598  0.017854  0.868674  -0.146714
    C   C82   0.983234  0.548047  0.868652  -0.149791
    C   C83   0.453707  0.982476  0.868836  -0.151729
    C   C84   0.017651  0.453801  0.868818  -0.153399
    C   C85   0.546904  0.983979  0.131154  -0.159503
    C   C86   0.983193  0.451911  0.131297  -0.154877
    C   C87   0.451687  0.015619  0.131341  -0.153849
    C   C88   0.015805  0.546801  0.131157  -0.158092
    H   H1    0.083734  0.529761  0.357502  0.138358
    H   H2    0.468092  0.084269  0.357216  0.134532
    H   H3    0.914373  0.470580  0.357272  0.137649
    H   H4    0.532672  0.916914  0.357525  0.137319
    H   H5    0.084918  0.468407  0.642734  0.135444
    H   H6    0.470865  0.914165  0.642740  0.137689
    H   H7    0.916917  0.531265  0.642546  0.136996
    H   H8    0.528298  0.084119  0.642508  0.138692
    H   H9    0.584316  0.032294  0.857227  0.134880
    H   H10   0.969174  0.584907  0.857201  0.135989
    H   H11   0.416864  0.967960  0.857518  0.136855
    H   H12   0.031767  0.416806  0.857497  0.137066
    H   H13   0.584316  0.970958  0.142459  0.139123
    H   H14   0.969771  0.414789  0.142727  0.137848
    H   H15   0.414452  0.028645  0.142794  0.137352
    H   H16   0.029219  0.584056  0.142477  0.138793
    C   C89   0.046587  0.515689  0.398194  -0.115186
    C   C90   0.483237  0.048079  0.398032  -0.129349
    C   C91   0.951094  0.484633  0.398064  -0.117556
    C   C92   0.517474  0.953673  0.398208  -0.125169
    C   C93   0.048423  0.483069  0.601940  -0.126031
    C   C94   0.484471  0.951045  0.601943  -0.119345
    C   C95   0.953687  0.516387  0.601834  -0.121327
    C   C96   0.514595  0.046839  0.601814  -0.116244
    C   C97   0.548056  0.017275  0.898040  -0.127343
    C   C98   0.983780  0.548492  0.898018  -0.126512
    C   C99   0.453596  0.983191  0.898203  -0.122669
    C   C100  0.016946  0.453702  0.898185  -0.123504
    C   C101  0.546945  0.984669  0.101787  -0.114080
    C   C102  0.983923  0.451455  0.101930  -0.117611
    C   C103  0.451201  0.014950  0.101975  -0.117489
    C   C104  0.015133  0.546899  0.101791  -0.115023
    H   H17   0.084136  0.528519  0.409417  0.129482
    H   H18   0.469136  0.085326  0.409121  0.134331
    H   H19   0.913434  0.471782  0.409184  0.129672
    H   H20   0.531525  0.916571  0.409437  0.133686
    H   H21   0.085785  0.469348  0.590828  0.133341
    H   H22   0.472013  0.913247  0.590828  0.130169
    H   H23   0.916413  0.530079  0.590639  0.132762
    H   H24   0.527069  0.084514  0.590596  0.129689
    H   H25   0.585321  0.031308  0.909135  0.134029
    H   H26   0.970096  0.585895  0.909105  0.133854
    H   H27   0.416471  0.969188  0.909428  0.132717
    H   H28   0.030555  0.416427  0.909407  0.133123
    H   H29   0.584581  0.972154  0.090547  0.129187
    H   H30   0.971044  0.413800  0.090813  0.129793
    H   H31   0.413401  0.027487  0.090884  0.129686
    H   H32   0.028056  0.584413  0.090565  0.129738
    C   C105  0.998765  0.500151  0.412947  0.153205
    C   C106  0.500330  0.000974  0.412943  0.164077
    C   C107  0.001112  0.499706  0.587063  0.160286
    C   C108  0.499537  0.998862  0.587059  0.158090
    C   C109  0.500917  0.000256  0.912944  0.160826
    C   C110  0.000322  0.501184  0.912926  0.161657
    C   C111  0.498963  0.999821  0.087061  0.154563
    C   C112  0.999548  0.499086  0.087043  0.154231
    C   C113  0.999072  0.500172  0.353930  0.139740
    C   C114  0.500386  0.000569  0.353927  0.138998
    C   C115  0.000906  0.499846  0.646078  0.141550
    C   C116  0.499585  0.999160  0.646075  0.140609
    C   C117  0.500570  0.000118  0.853928  0.139035
    C   C118  0.000482  0.500838  0.853911  0.141436
    C   C119  0.499410  0.999801  0.146077  0.140864
    C   C120  0.999490  0.499445  0.146059  0.140859
    C   C121  0.000660  0.329594  0.499735  -0.181295
    C   C122  0.670196  0.999344  0.500194  -0.183136
    C   C123  0.999198  0.670183  0.500271  -0.182861
    C   C124  0.329606  0.000486  0.499802  -0.180890
    C   C125  0.498629  0.829790  0.999726  -0.183564
    C   C126  0.170195  0.499006  0.000171  -0.182219
    C   C127  0.501232  0.170376  0.000263  -0.182268
    C   C128  0.829609  0.501238  0.999800  -0.180387
    C   C129  0.000424  0.278926  0.499627  0.074827
    C   C130  0.720864  0.999589  0.500293  0.075423
    C   C131  0.999425  0.720851  0.500377  0.075454
    C   C132  0.278938  0.000231  0.499703  0.073870
    C   C133  0.498732  0.779121  0.999615  0.075998
    C   C134  0.220864  0.499153  0.000269  0.074592
    C   C135  0.501119  0.221045  0.000367  0.075992
    C   C136  0.778941  0.501077  0.999701  0.074477
    C   C137  0.000167  0.219557  0.499492  -0.017695
    C   C138  0.780234  0.999826  0.500431  -0.017389
    C   C139  0.999665  0.780221  0.500510  -0.017712
    C   C140  0.219569  0.999980  0.499567  -0.016694
    C   C141  0.498895  0.719751  0.999478  -0.017575
    C   C142  0.280234  0.499346  0.000407  -0.016574
    C   C143  0.500940  0.280415  0.000497  -0.019000
    C   C144  0.719571  0.500862  0.999563  -0.018398
    C   C145  0.999994  0.168889  0.499371  -0.088290
    C   C146  0.830902  0.999963  0.500563  -0.089189
    C   C147  0.999824  0.830890  0.500629  -0.088918
    C   C148  0.168901  0.999829  0.499436  -0.089006
    C   C149  0.499075  0.669082  0.999357  -0.089177
    C   C150  0.330903  0.499514  0.000539  -0.089782
    C   C151  0.500746  0.331084  0.000615  -0.087407
    C   C152  0.668903  0.500674  0.999430  -0.087475
    O   O49   0.082702  0.001668  0.474607  -0.646760
    O   O50   0.001800  0.082651  0.474575  -0.646627
    O   O51   0.917663  0.001780  0.476201  -0.666635
    O   O52   0.001746  0.917613  0.476235  -0.666303
    O   O53   0.082141  0.997999  0.523799  -0.666788
    O   O54   0.998004  0.917128  0.525425  -0.646327
    O   O55   0.917102  0.998111  0.525392  -0.646640
    O   O56   0.998058  0.082165  0.523764  -0.666432
    O   O57   0.582702  0.502262  0.974598  -0.646485
    O   O58   0.501410  0.582855  0.974560  -0.647087
    O   O59   0.417664  0.501583  0.976182  -0.666477
    O   O60   0.502153  0.417819  0.976221  -0.667007
    O   O61   0.582142  0.498585  0.023788  -0.666007
    O   O62   0.498396  0.417311  0.025410  -0.646859
    O   O63   0.417104  0.497906  0.025372  -0.646125
    O   O64   0.497653  0.582347  0.023749  -0.666907
    C   C153  0.108578  0.999753  0.499266  0.741852
    C   C154  0.999875  0.108565  0.499223  0.741345
    C   C155  0.891225  0.000027  0.500733  0.742146
    C   C156  0.999930  0.891213  0.500777  0.741694
    C   C157  0.608580  0.500464  0.999258  0.740647
    C   C158  0.499343  0.608759  0.999208  0.742508
    C   C159  0.391226  0.499706  0.000712  0.741922
    C   C160  0.500464  0.391408  0.000762  0.741510
    C   C161  0.873990  0.595064  0.221202  0.610225
    O   O65   0.887749  0.646543  0.208619  -0.593891
    H   H33   0.839427  0.601651  0.236592  -0.083584
    H   H34   0.855539  0.565964  0.205306  -0.051086
    H   H35   0.927535  0.653295  0.213823  0.343754
    C   C162  0.407157  0.872671  0.221534  0.613755
    O   O66   0.355180  0.885319  0.209180  -0.595194
    H   H36   0.401593  0.837957  0.236942  -0.084627
    H   H37   0.436379  0.854890  0.205500  -0.051008
    H   H38   0.347704  0.924979  0.214380  0.344960
    C   C163  0.125365  0.405285  0.221467  0.603810
    O   O67   0.112085  0.353517  0.209057  -0.592669
    H   H39   0.159973  0.399230  0.236891  -0.081450
    H   H40   0.143542  0.434337  0.205468  -0.050116
    H   H41   0.072301  0.346559  0.214198  0.344001
    C   C164  0.593210  0.126871  0.221097  0.619253
    O   O68   0.644911  0.113788  0.208563  -0.596341
    H   H42   0.599265  0.161618  0.236436  -0.085944
    H   H43   0.563881  0.144810  0.205160  -0.052656
    H   H44   0.652250  0.074149  0.213852  0.344479
    C   C165  0.875069  0.405481  0.778785  0.605533
    O   O69   0.888617  0.353762  0.791173  -0.592544
    H   H45   0.840347  0.399308  0.763441  -0.082603
    H   H46   0.856941  0.434483  0.794821  -0.050556
    H   H47   0.928368  0.346913  0.785931  0.343658
    C   C166  0.403322  0.123859  0.778682  0.599034
    O   O70   0.351844  0.109661  0.791140  -0.590335
    H   H48   0.396605  0.158382  0.763280  -0.081332
    H   H49   0.432117  0.142507  0.794661  -0.049653
    H   H50   0.345568  0.069766  0.785997  0.342671
    C   C167  0.126144  0.595546  0.778673  0.608158
    O   O71   0.112489  0.647350  0.790938  -0.593258
    H   H51   0.160905  0.601639  0.763343  -0.082647
    H   H52   0.144264  0.566702  0.794784  -0.051101
    H   H53   0.072750  0.654110  0.785643  0.344390
    C   C168  0.597064  0.875668  0.778739  0.605029
    O   O72   0.648663  0.889977  0.791036  -0.592543
    H   H54   0.603631  0.841003  0.763402  -0.081870
    H   H55   0.568423  0.857170  0.794834  -0.051380
    H   H56   0.654889  0.929826  0.785785  0.343798
    C   C169  0.372805  0.092510  0.721365  0.613360
    O   O73   0.385607  0.144282  0.708831  -0.594662
    H   H57   0.338158  0.098406  0.736780  -0.084737
    H   H58   0.354855  0.063149  0.705446  -0.050820
    H   H59   0.425284  0.151716  0.714012  0.344160
    C   C170  0.905515  0.374808  0.721362  0.608045
    O   O74   0.853800  0.388439  0.708994  -0.593088
    H   H60   0.899296  0.340145  0.736735  -0.083179
    H   H61   0.934440  0.356564  0.705324  -0.050668
    H   H62   0.847047  0.428216  0.714216  0.343898
    C   C171  0.627040  0.906493  0.721277  0.615831
    O   O75   0.614127  0.854605  0.708896  -0.595799
    H   H63   0.661832  0.900741  0.736621  -0.084855
    H   H64   0.644837  0.935710  0.705246  -0.052393
    H   H65   0.574500  0.847215  0.714190  0.344690
    C   C172  0.095848  0.625671  0.721155  0.607477
    O   O76   0.147638  0.612006  0.708877  -0.593238
    H   H66   0.101946  0.660486  0.736454  -0.082606
    H   H67   0.066966  0.643719  0.705040  -0.051463
    H   H68   0.154414  0.572278  0.714188  0.343971
    C   C173  0.376285  0.902979  0.278946  0.604038
    O   O77   0.390781  0.851560  0.291378  -0.592094
    H   H69   0.341650  0.896123  0.263625  -0.081972
    H   H70   0.357666  0.931717  0.294960  -0.051246
    H   H71   0.430631  0.845392  0.286114  0.343157
    C   C174  0.904948  0.626052  0.278505  0.611939
    O   O78   0.853195  0.612840  0.290950  -0.594470
    H   H72   0.898888  0.660633  0.263067  -0.083686
    H   H73   0.934049  0.644237  0.294479  -0.051734
    H   H74   0.846191  0.573053  0.285831  0.344840
    C   C175  0.624433  0.096767  0.278488  0.602086
    O   O79   0.610397  0.148439  0.290785  -0.591432
    H   H75   0.659006  0.103175  0.263079  -0.081712
    H   H76   0.642938  0.068092  0.294565  -0.050304
    H   H77   0.570509  0.154759  0.285640  0.343765
    C   C176  0.094461  0.374465  0.278801  0.607981
    O   O80   0.145970  0.388204  0.291358  -0.593612
    H   H78   0.100998  0.339870  0.263424  -0.082346
    H   H79   0.065371  0.356062  0.294715  -0.051005
    H   H80   0.152752  0.427972  0.286128  0.343709
