# generated using pymatgen
data_Cu3H28C32(N2O3)4
_symmetry_space_group_name_H-M   'P 1'
_cell_length_a   18.34717700
_cell_length_b   18.34717700
_cell_length_c   38.36520500
_cell_angle_alpha   90.00000000
_cell_angle_beta   90.00000000
_cell_angle_gamma   90.00000000
_symmetry_Int_Tables_number   1
_chemical_formula_structural   Cu3H28C32(N2O3)4
_chemical_formula_sum   'Cu12 H112 C128 N32 O48'
_cell_volume   12914.45325382
_cell_formula_units_Z   4
loop_
 _symmetry_equiv_pos_site_id
 _symmetry_equiv_pos_as_xyz
  1  'x, y, z'
loop_
 _atom_site_type_symbol
 _atom_site_label
 _atom_site_symmetry_multiplicity
 _atom_site_fract_x
 _atom_site_fract_y
 _atom_site_fract_z
 _atom_site_occupancy
  Cu  Cu1  1  0.57114100  0.00001700  0.49998400  1
  Cu  Cu2  1  0.00001700  0.57114100  0.50000500  1
  Cu  Cu3  1  0.42886600  0.99998200  0.50000500  1
  Cu  Cu4  1  0.99998100  0.42886600  0.49998400  1
  Cu  Cu5  1  0.07114100  0.50001700  0.99998400  1
  Cu  Cu6  1  0.50001700  0.07114100  0.00000500  1
  Cu  Cu7  1  0.92886500  0.49998200  0.00000500  1
  Cu  Cu8  1  0.49998100  0.92886600  0.99998400  1
  Cu  Cu9  1  0.50006100  0.49993800  0.46533100  1
  Cu  Cu10  1  0.49993800  0.50006100  0.53465800  1
  Cu  Cu11  1  0.00006000  0.99993800  0.96533100  1
  Cu  Cu12  1  0.99993700  0.00006100  0.03465800  1
  H  H1  1  0.38514400  0.01558900  0.39176900  1
  H  H2  1  0.98441100  0.38528000  0.39173900  1
  H  H3  1  0.61473300  0.98411900  0.39174400  1
  H  H4  1  0.01591900  0.61486400  0.39177500  1
  H  H5  1  0.38527900  0.98441800  0.60825000  1
  H  H6  1  0.98412400  0.61473400  0.60824500  1
  H  H7  1  0.61486400  0.01591200  0.60821400  1
  H  H8  1  0.01558300  0.38514400  0.60822000  1
  H  H9  1  0.88514300  0.51558500  0.89176900  1
  H  H10  1  0.48440600  0.88528100  0.89173900  1
  H  H11  1  0.11473300  0.48412200  0.89174400  1
  H  H12  1  0.51592300  0.11486200  0.89177500  1
  H  H13  1  0.88528000  0.48441300  0.10824900  1
  H  H14  1  0.48412800  0.11473400  0.10824500  1
  H  H15  1  0.11486300  0.51591800  0.10821400  1
  H  H16  1  0.51557800  0.88514300  0.10822000  1
  H  H17  1  0.34930800  0.91254800  0.34367300  1
  H  H18  1  0.31261900  0.93003000  0.30093800  1
  H  H19  1  0.26956100  0.96971200  0.33878000  1
  H  H20  1  0.36970000  0.13045600  0.32760800  1
  H  H21  1  0.30893900  0.08452900  0.35752800  1
  H  H22  1  0.28576100  0.09118100  0.31191600  1
  H  H23  1  0.08746500  0.34948800  0.34364000  1
  H  H24  1  0.06998900  0.31284800  0.30089500  1
  H  H25  1  0.03029600  0.26975100  0.33872400  1
  H  H26  1  0.86956200  0.36991700  0.32757100  1
  H  H27  1  0.91547800  0.30911700  0.35747600  1
  H  H28  1  0.90883300  0.28599200  0.31185700  1
  H  H29  1  0.65051600  0.08714100  0.34363100  1
  H  H30  1  0.68716200  0.06964500  0.30088900  1
  H  H31  1  0.73026000  0.02997800  0.33872400  1
  H  H32  1  0.63011400  0.86922700  0.32758700  1
  H  H33  1  0.69090300  0.91516400  0.35748900  1
  H  H34  1  0.71403700  0.90850000  0.31187300  1
  H  H35  1  0.91291600  0.65072000  0.34366700  1
  H  H36  1  0.93042700  0.68741200  0.30093500  1
  H  H37  1  0.97009600  0.73045800  0.33878300  1
  H  H38  1  0.13083000  0.63029500  0.32762600  1
  H  H39  1  0.08489900  0.69105600  0.35754300  1
  H  H40  1  0.09157500  0.71424400  0.31193300  1
  H  H41  1  0.34949600  0.08747700  0.65635000  1
  H  H42  1  0.31285600  0.07000300  0.69909500  1
  H  H43  1  0.26975400  0.03031500  0.66126700  1
  H  H44  1  0.36990600  0.86957200  0.67241800  1
  H  H45  1  0.30910800  0.91549400  0.64251300  1
  H  H46  1  0.28598400  0.90884900  0.68813200  1
  H  H47  1  0.08715000  0.65051000  0.65635900  1
  H  H48  1  0.06965600  0.68715600  0.69910100  1
  H  H49  1  0.02999200  0.73025700  0.66126600  1
  H  H50  1  0.86923400  0.63012300  0.67240200  1
  H  H51  1  0.91517600  0.69090900  0.64250000  1
  H  H52  1  0.90851200  0.71404300  0.68811600  1
  H  H53  1  0.65071100  0.91290500  0.65632300  1
  H  H54  1  0.68740400  0.93041400  0.69905500  1
  H  H55  1  0.73045400  0.97007700  0.66120700  1
  H  H56  1  0.63030600  0.13082100  0.67236300  1
  H  H57  1  0.69106400  0.08488300  0.64244600  1
  H  H58  1  0.71425100  0.09155900  0.68805600  1
  H  H59  1  0.91253800  0.34931500  0.65631700  1
  H  H60  1  0.93001800  0.31262600  0.69905200  1
  H  H61  1  0.96969600  0.26956400  0.66121000  1
  H  H62  1  0.13044800  0.36969100  0.67238000  1
  H  H63  1  0.08451600  0.30893300  0.64246100  1
  H  H64  1  0.09116700  0.28575500  0.68807400  1
  H  H65  1  0.84931200  0.41254100  0.84367300  1
  H  H66  1  0.81262300  0.43002200  0.80093800  1
  H  H67  1  0.76956300  0.46970100  0.83877900  1
  H  H68  1  0.86969400  0.63045100  0.82760900  1
  H  H69  1  0.80893500  0.58452000  0.85752800  1
  H  H70  1  0.78575700  0.59117200  0.81191500  1
  H  H71  1  0.58745800  0.84948200  0.84364100  1
  H  H72  1  0.56998100  0.81284200  0.80089600  1
  H  H73  1  0.53028400  0.76974900  0.83872500  1
  H  H74  1  0.36955600  0.86992400  0.82757000  1
  H  H75  1  0.41546700  0.80912200  0.85747600  1
  H  H76  1  0.40882300  0.78599600  0.81185700  1
  H  H77  1  0.15051100  0.58714700  0.84363100  1
  H  H78  1  0.18715800  0.56965200  0.80088900  1
  H  H79  1  0.23025800  0.52998700  0.83872300  1
  H  H80  1  0.13012000  0.36923100  0.82758700  1
  H  H81  1  0.19090700  0.41517200  0.85749000  1
  H  H82  1  0.21404100  0.40850800  0.81187300  1
  H  H83  1  0.41292300  0.15072400  0.84366700  1
  H  H84  1  0.43043700  0.18741700  0.80093600  1
  H  H85  1  0.47010800  0.23045900  0.83878400  1
  H  H86  1  0.63083600  0.13028700  0.82762500  1
  H  H87  1  0.58490900  0.19105100  0.85754300  1
  H  H88  1  0.59158500  0.21423900  0.81193300  1
  H  H89  1  0.84948900  0.58746800  0.15634900  1
  H  H90  1  0.81284900  0.56999300  0.19909400  1
  H  H91  1  0.76975100  0.53030000  0.16126600  1
  H  H92  1  0.86991400  0.36956500  0.17241900  1
  H  H93  1  0.80911400  0.41548100  0.14251400  1
  H  H94  1  0.78599000  0.40883700  0.18813200  1
  H  H95  1  0.58715600  0.15050400  0.15635900  1
  H  H96  1  0.56966400  0.18715100  0.19910100  1
  H  H97  1  0.53000400  0.23025600  0.16126700  1
  H  H98  1  0.36923900  0.13013000  0.17240100  1
  H  H99  1  0.41518600  0.19091500  0.14250000  1
  H  H100  1  0.40852200  0.21404800  0.18811600  1
  H  H101  1  0.15071700  0.41291400  0.15632300  1
  H  H102  1  0.18741000  0.43042500  0.19905400  1
  H  H103  1  0.23045600  0.47009300  0.16120600  1
  H  H104  1  0.13029600  0.63082900  0.17236300  1
  H  H105  1  0.19105700  0.58489600  0.14244600  1
  H  H106  1  0.21424400  0.59157200  0.18805600  1
  H  H107  1  0.41253000  0.84932100  0.15631700  1
  H  H108  1  0.43000900  0.81263100  0.19905200  1
  H  H109  1  0.46968300  0.76956600  0.16121100  1
  H  H110  1  0.63044200  0.86968400  0.17237900  1
  H  H111  1  0.58450500  0.80892800  0.14246200  1
  H  H112  1  0.59115700  0.78575000  0.18807400  1
  C  C1  1  0.49996800  0.13790900  0.49993900  1
  C  C2  1  0.86209100  0.50003900  0.49994000  1
  C  C3  1  0.50003800  0.86209100  0.50004900  1
  C  C4  1  0.13790800  0.49996700  0.50005000  1
  C  C5  1  0.99996700  0.63790900  0.99993900  1
  C  C6  1  0.36209000  0.00003900  0.99994000  1
  C  C7  1  0.00003700  0.36209100  0.00004900  1
  C  C8  1  0.63790800  0.99996700  0.00005000  1
  C  C9  1  0.49996200  0.99989300  0.43402100  1
  C  C10  1  0.00011000  0.50004600  0.43402200  1
  C  C11  1  0.50004600  0.00011000  0.56596700  1
  C  C12  1  0.99989200  0.49996200  0.56596800  1
  C  C13  1  0.99996100  0.49989300  0.93402100  1
  C  C14  1  0.50011000  0.00004600  0.93402200  1
  C  C15  1  0.00004500  0.50011000  0.06596700  1
  C  C16  1  0.49989200  0.99996200  0.06596800  1
  C  C17  1  0.49994600  0.21609000  0.49989800  1
  C  C18  1  0.78390800  0.50005100  0.49989800  1
  C  C19  1  0.50005000  0.78390900  0.50009100  1
  C  C20  1  0.21608900  0.49994500  0.50009100  1
  C  C21  1  0.99994500  0.71608900  0.99989800  1
  C  C22  1  0.28390800  0.00005100  0.99989800  1
  C  C23  1  0.00004900  0.28390800  0.00009100  1
  C  C24  1  0.71608900  0.99994400  0.00009200  1
  C  C25  1  0.49994000  0.28175600  0.49985800  1
  C  C26  1  0.71824200  0.50005500  0.49985800  1
  C  C27  1  0.50005400  0.71824200  0.50013200  1
  C  C28  1  0.28175600  0.49993900  0.50013200  1
  C  C29  1  0.99993900  0.78175600  0.99985800  1
  C  C30  1  0.21824100  0.00005500  0.99985700  1
  C  C31  1  0.00005300  0.21824100  0.00013200  1
  C  C32  1  0.78175500  0.99993800  0.00013200  1
  C  C33  1  0.43576900  0.00985800  0.37770000  1
  C  C34  1  0.99015200  0.43592000  0.37768400  1
  C  C35  1  0.56409300  0.98983900  0.37768600  1
  C  C36  1  0.01019300  0.56424100  0.37770400  1
  C  C37  1  0.43591900  0.99015600  0.62230500  1
  C  C38  1  0.98984200  0.56409400  0.62230300  1
  C  C39  1  0.56424100  0.01018900  0.62228500  1
  C  C40  1  0.00985500  0.43576900  0.62228900  1
  C  C41  1  0.93576900  0.50985600  0.87770000  1
  C  C42  1  0.49015000  0.93592000  0.87768400  1
  C  C43  1  0.06409300  0.48984100  0.87768600  1
  C  C44  1  0.51019500  0.06424000  0.87770400  1
  C  C45  1  0.93591900  0.49015300  0.12230500  1
  C  C46  1  0.48984400  0.06409400  0.12230300  1
  C  C47  1  0.06424000  0.51019300  0.12228500  1
  C  C48  1  0.50985200  0.93576900  0.12228900  1
  C  C49  1  0.43534400  0.01001600  0.34163500  1
  C  C50  1  0.99000600  0.43553500  0.34161800  1
  C  C51  1  0.56448100  0.98967000  0.34162000  1
  C  C52  1  0.01037200  0.56466900  0.34163800  1
  C  C53  1  0.43553400  0.99001000  0.65837100  1
  C  C54  1  0.98967300  0.56448200  0.65836900  1
  C  C55  1  0.56466900  0.01036800  0.65835100  1
  C  C56  1  0.01001200  0.43534400  0.65835400  1
  C  C57  1  0.93534300  0.51001300  0.84163500  1
  C  C58  1  0.49000400  0.93553500  0.84161800  1
  C  C59  1  0.06448100  0.48967200  0.84162000  1
  C  C60  1  0.51037400  0.06466800  0.84163800  1
  C  C61  1  0.93553400  0.49000700  0.15837100  1
  C  C62  1  0.48967500  0.06448300  0.15836900  1
  C  C63  1  0.06466800  0.51037100  0.15835100  1
  C  C64  1  0.51000900  0.93534300  0.15835400  1
  C  C65  1  0.49990400  0.99984400  0.32337900  1
  C  C66  1  0.00019000  0.50011300  0.32337900  1
  C  C67  1  0.50011300  0.00019100  0.67661000  1
  C  C68  1  0.99984400  0.49990400  0.67661000  1
  C  C69  1  0.99990400  0.49984400  0.82337900  1
  C  C70  1  0.50019100  0.00011300  0.82337900  1
  C  C71  1  0.00011300  0.50019100  0.17661000  1
  C  C72  1  0.49984400  0.99990400  0.17661000  1
  C  C73  1  0.35994000  0.49994800  0.50018400  1
  C  C74  1  0.49994900  0.35994100  0.49980500  1
  C  C75  1  0.64005800  0.50004800  0.49980500  1
  C  C76  1  0.50004600  0.64005800  0.50018400  1
  C  C77  1  0.85994000  0.99994800  0.00018400  1
  C  C78  1  0.99994900  0.85994000  0.99980500  1
  C  C79  1  0.14005700  0.00004700  0.99980500  1
  C  C80  1  0.00004600  0.14005800  0.00018400  1
  C  C81  1  0.49994100  0.99985600  0.39579400  1
  C  C82  1  0.00015700  0.50007000  0.39579400  1
  C  C83  1  0.50007000  0.00015800  0.60419500  1
  C  C84  1  0.99985600  0.49994200  0.60419500  1
  C  C85  1  0.99994100  0.49985600  0.89579400  1
  C  C86  1  0.50015700  0.00007000  0.89579400  1
  C  C87  1  0.00006900  0.50015800  0.10419500  1
  C  C88  1  0.49985600  0.99994100  0.10419500  1
  C  C89  1  0.49985500  0.99988500  0.21503800  1
  C  C90  1  0.00013600  0.50017600  0.21503800  1
  C  C91  1  0.50017600  0.00013600  0.78495100  1
  C  C92  1  0.99988500  0.49985600  0.78495100  1
  C  C93  1  0.99985500  0.49988500  0.71503800  1
  C  C94  1  0.50013700  0.00017600  0.71503800  1
  C  C95  1  0.00017600  0.50013700  0.28495100  1
  C  C96  1  0.49988500  0.99985600  0.28495100  1
  C  C97  1  0.32250000  0.95404300  0.32703600  1
  C  C98  1  0.33123100  0.08428000  0.33067800  1
  C  C99  1  0.04597200  0.32270100  0.32699400  1
  C  C100  1  0.91573500  0.33144000  0.33063200  1
  C  C101  1  0.67730900  0.04564100  0.32699100  1
  C  C102  1  0.66858500  0.91540500  0.33064500  1
  C  C103  1  0.95442400  0.67752400  0.32703500  1
  C  C104  1  0.08465800  0.66877100  0.33069200  1
  C  C105  1  0.32270600  0.04598500  0.67299600  1
  C  C106  1  0.33143200  0.91574800  0.66935700  1
  C  C107  1  0.04565100  0.67730500  0.67299900  1
  C  C108  1  0.91541500  0.66859100  0.66934400  1
  C  C109  1  0.67751900  0.95441100  0.67295500  1
  C  C110  1  0.66877800  0.08464500  0.66929700  1
  C  C111  1  0.95403100  0.32250400  0.67295400  1
  C  C112  1  0.08426900  0.33122500  0.66931100  1
  C  C113  1  0.82250200  0.45403500  0.82703500  1
  C  C114  1  0.83122700  0.58427200  0.83067800  1
  C  C115  1  0.54596300  0.82269800  0.82699500  1
  C  C116  1  0.41572700  0.83144400  0.83063200  1
  C  C117  1  0.17730600  0.54564800  0.82699000  1
  C  C118  1  0.16858900  0.41541200  0.83064500  1
  C  C119  1  0.45443300  0.17752600  0.82703600  1
  C  C120  1  0.58466600  0.16876600  0.83069200  1
  C  C121  1  0.82270100  0.54597500  0.17299500  1
  C  C122  1  0.83143700  0.41573800  0.16935700  1
  C  C123  1  0.54566000  0.17730200  0.17299900  1
  C  C124  1  0.41542300  0.16859600  0.16934400  1
  C  C125  1  0.17752200  0.45442200  0.17295400  1
  C  C126  1  0.16877100  0.58465600  0.16929700  1
  C  C127  1  0.45402200  0.82250700  0.17295500  1
  C  C128  1  0.58426000  0.83122100  0.16931100  1
  N  N1  1  0.54455200  0.95505400  0.26720800  1
  N  N2  1  0.04497500  0.54482200  0.26721700  1
  N  N3  1  0.45520300  0.04467300  0.26722500  1
  N  N4  1  0.95535700  0.45547300  0.26721700  1
  N  N5  1  0.54482200  0.04497500  0.73277200  1
  N  N6  1  0.04467200  0.45520300  0.73276400  1
  N  N7  1  0.45547300  0.95535700  0.73277200  1
  N  N8  1  0.95505400  0.54455300  0.73278100  1
  N  N9  1  0.04455200  0.45505400  0.76720800  1
  N  N10  1  0.54497500  0.04482100  0.76721700  1
  N  N11  1  0.95520300  0.54467200  0.76722500  1
  N  N12  1  0.45535700  0.95547300  0.76721700  1
  N  N13  1  0.04482100  0.54497500  0.23277200  1
  N  N14  1  0.54467100  0.95520300  0.23276400  1
  N  N15  1  0.95547200  0.45535800  0.23277200  1
  N  N16  1  0.45505400  0.04455300  0.23278100  1
  N  N17  1  0.36874400  0.01700100  0.32339000  1
  N  N18  1  0.98301800  0.36895500  0.32335700  1
  N  N19  1  0.63106300  0.98268000  0.32336100  1
  N  N20  1  0.01737700  0.63127000  0.32339600  1
  N  N21  1  0.36895400  0.98302700  0.67663200  1
  N  N22  1  0.98268700  0.63106400  0.67662800  1
  N  N23  1  0.63127000  0.01736800  0.67659400  1
  N  N24  1  0.01699300  0.36874300  0.67659900  1
  N  N25  1  0.86874300  0.51699600  0.82339000  1
  N  N26  1  0.48301200  0.86895500  0.82335700  1
  N  N27  1  0.13106300  0.48268500  0.82336100  1
  N  N28  1  0.51738300  0.13126900  0.82339600  1
  N  N29  1  0.86895400  0.48302000  0.17663200  1
  N  N30  1  0.48269300  0.13106500  0.17662900  1
  N  N31  1  0.13126900  0.51737600  0.17659300  1
  N  N32  1  0.51698700  0.86874300  0.17659900  1
  O  O1  1  0.56012200  0.10388800  0.49039500  1
  O  O2  1  0.89614000  0.56018700  0.49041300  1
  O  O3  1  0.43987300  0.89607800  0.49049300  1
  O  O4  1  0.10389100  0.43983200  0.49047600  1
  O  O5  1  0.56018600  0.89614000  0.50957600  1
  O  O6  1  0.89607700  0.43987400  0.50949600  1
  O  O7  1  0.43983300  0.10389200  0.50951300  1
  O  O8  1  0.10388800  0.56012100  0.50959400  1
  O  O9  1  0.06012100  0.60388800  0.99039500  1
  O  O10  1  0.39614000  0.06018700  0.99041300  1
  O  O11  1  0.93987300  0.39607800  0.99049300  1
  O  O12  1  0.60389100  0.93983200  0.99047600  1
  O  O13  1  0.06018600  0.39614000  0.00957600  1
  O  O14  1  0.39607700  0.93987400  0.00949600  1
  O  O15  1  0.93983200  0.60389100  0.00951300  1
  O  O16  1  0.60388800  0.06012100  0.00959400  1
  O  O17  1  0.56001200  0.97971700  0.45042000  1
  O  O18  1  0.02031300  0.56006600  0.45043800  1
  O  O19  1  0.43993100  0.02011600  0.45042200  1
  O  O20  1  0.97985400  0.44000500  0.45040500  1
  O  O21  1  0.56006600  0.02031200  0.54955200  1
  O  O22  1  0.02011500  0.43993100  0.54956700  1
  O  O23  1  0.44000500  0.97985400  0.54958400  1
  O  O24  1  0.97971700  0.56001300  0.54957000  1
  O  O25  1  0.06001200  0.47971600  0.95042000  1
  O  O26  1  0.52031200  0.06006600  0.95043800  1
  O  O27  1  0.93993100  0.52011600  0.95042200  1
  O  O28  1  0.47985300  0.94000500  0.95040500  1
  O  O29  1  0.06006600  0.52031300  0.04955100  1
  O  O30  1  0.52011500  0.93993100  0.04956700  1
  O  O31  1  0.94000400  0.47985400  0.04958400  1
  O  O32  1  0.47971600  0.06001200  0.04957000  1
  O  O33  1  0.39397300  0.49694700  0.47018900  1
  O  O34  1  0.50304800  0.39378400  0.46977300  1
  O  O35  1  0.60621400  0.49690100  0.46977400  1
  O  O36  1  0.50310100  0.60602400  0.47019100  1
  O  O37  1  0.39378300  0.50304700  0.53021600  1
  O  O38  1  0.49690000  0.60621400  0.53021500  1
  O  O39  1  0.60602300  0.50310200  0.52979800  1
  O  O40  1  0.49694700  0.39397400  0.52980000  1
  O  O41  1  0.89397300  0.99694700  0.97018900  1
  O  O42  1  0.00304800  0.89378300  0.96977300  1
  O  O43  1  0.10621300  0.99690100  0.96977400  1
  O  O44  1  0.00310100  0.10602300  0.97019100  1
  O  O45  1  0.89378300  0.00304700  0.03021600  1
  O  O46  1  0.99689900  0.10621400  0.03021500  1
  O  O47  1  0.10602300  0.00310200  0.02979800  1
  O  O48  1  0.99694700  0.89397300  0.02980000  1
