# Generated by REPEAT Assigner based on pymatgen
data_DB0-m2_o6_o20_f0_nbo.sym.79_sqe
_audit_creation_date              2022-05-24
_audit_creation_method            REPEAT_Assigner
_cell_length_a                    27.138843
_cell_length_b                    27.520664
_cell_length_c                    27.152951
_cell_angle_alpha                 109.764377
_cell_angle_beta                  110.633004
_cell_angle_gamma                 108.291231
_cell_volume                      15553.364265
_symmetry_space_group_name_H-M    P1
_symmetry_Int_Tables_number       1
loop_
    _symmetry_equiv_pos_site_id
    _symmetry_equiv_pos_as_xyz
    1  x,y,z
loop_
    _atom_site_type_symbol
    _atom_site_label
    _atom_site_fract_x
    _atom_site_fract_y
    _atom_site_fract_z
    _atom_type_partial_charge
    O   O1   0.063288  0.097218  0.536063  -0.572987
    O   O2   0.061171  0.021479  0.463310  -0.590468
    C   C1   0.083831  0.077857  0.501029  0.733535
    O   O3   0.068705  0.041718  0.603545  -0.603738
    O   O4   0.063050  0.962857  0.531019  -0.599880
    C   C2   0.086586  0.002656  0.588236  0.770462
    Cu  Cu1  0.003914  0.044923  0.545436  1.018806
    Cu  Cu2  0.001444  0.957437  0.461262  1.016136
    O   O5   0.941033  0.980821  0.540202  -0.578096
    O   O6   0.938793  0.905084  0.467305  -0.553685
    O   O7   0.942238  0.039533  0.475755  -0.589830
    O   O8   0.936697  0.960623  0.403058  -0.592102
    C   C3   0.922476  0.924512  0.506595  0.689318
    C   C4   0.918786  0.999729  0.418480  0.830460
    C   C5   0.134011  0.003501  0.636269  -0.178976
    C   C6   0.173606  0.004197  0.676407  0.068800
    C   C7   0.220215  0.004941  0.723609  -0.008514
    C   C8   0.259792  0.005463  0.763600  -0.003228
    C   C9   0.306373  0.005866  0.810507  0.060605
    C   C10  0.345889  0.005898  0.850069  -0.170054
    H   H1   0.163732  0.158630  0.401444  0.179324
    C   C11  0.248912  0.236443  0.441758  -0.140359
    C   C12  0.301124  0.282102  0.496232  0.259704
    C   C13  0.309180  0.285758  0.550659  -0.160055
    H   H2   0.349844  0.321609  0.593001  0.151437
    C   C14  0.265386  0.244303  0.551346  -0.183458
    H   H3   0.271683  0.247473  0.594125  0.153931
    C   C15  0.213356  0.198996  0.497491  0.296074
    C   C16  0.205087  0.194781  0.442821  -0.221071
    C   C17  0.346904  0.327211  0.497457  -0.151488
    C   C18  0.167477  0.156254  0.498380  -0.129127
    C   C19  0.129127  0.120477  0.499434  -0.139917
    C   C20  0.384964  0.365821  0.498934  -0.086647
    H   H4   0.732430  0.903746  0.231247  0.177832
    C   C21  0.688872  0.942881  0.186876  -0.130395
    C   C22  0.692715  0.995674  0.190185  0.221111
    C   C23  0.742445  0.048699  0.239775  -0.155598
    H   H5   0.746102  0.090068  0.243054  0.150083
    C   C24  0.787643  0.049599  0.285393  -0.181924
    H   H6   0.825965  0.091580  0.323669  0.153521
    C   C25  0.784144  0.997379  0.282427  0.276359
    C   C26  0.734595  0.944184  0.232976  -0.220887
    C   C27  0.645716  0.996275  0.143041  -0.075778
    C   C28  0.831672  0.998260  0.330430  -0.080063
    C   C29  0.871328  0.998929  0.370494  -0.223631
    C   C30  0.606427  0.996845  0.103863  -0.198487
    C   C31  0.761902  0.712907  0.517127  -0.209880
    H   H7   0.765754  0.675433  0.518461  0.173771
    C   C32  0.712976  0.717859  0.516918  0.292728
    C   C33  0.705725  0.764564  0.514924  -0.215827
    H   H8   0.666560  0.766717  0.514573  0.178208
    C   C34  0.747742  0.807028  0.513003  -0.125164
    C   C35  0.797066  0.801987  0.513065  0.231238
    C   C36  0.804339  0.754899  0.515216  -0.127781
    C   C37  0.668621  0.673107  0.517324  -0.093870
    C   C38  0.840816  0.845563  0.510657  -0.152774
    C   C39  0.877847  0.881779  0.508699  -0.040856
    C   C40  0.631389  0.634605  0.516750  -0.195109
    O   O9   0.429533  0.901414  0.919524  -0.565047
    O   O10  0.501340  0.961817  0.909032  -0.599159
    C   C41  0.459688  0.909744  0.891983  0.744409
    O   O11  0.377430  0.972486  0.920179  -0.594470
    O   O12  0.449844  0.036689  0.913608  -0.603915
    C   C42  0.393091  0.005323  0.896904  0.757078
    Cu  Cu3  0.434648  0.966734  0.983142  1.000455
    Cu  Cu4  0.517756  0.036369  0.971103  1.027438
    O   O13  0.454245  0.041134  0.048276  -0.560199
    O   O14  0.526379  0.101505  0.038093  -0.575515
    O   O15  0.502496  0.966494  0.040831  -0.577056
    O   O16  0.575064  0.030522  0.033904  -0.607209
    C   C43  0.492762  0.093421  0.062336  0.698990
    C   C44  0.559291  0.997765  0.057321  0.839083
    O   O17  0.560906  0.452413  0.495624  -0.605643
    O   O18  0.486049  0.442710  0.412334  -0.578035
    C   C45  0.526189  0.428580  0.436802  0.773749
    O   O19  0.485731  0.440292  0.545829  -0.610821
    O   O20  0.411736  0.427408  0.459551  -0.574803
    C   C46  0.429605  0.412760  0.501124  0.721351
    Cu  Cu5  0.551637  0.505832  0.556081  1.026599
    Cu  Cu6  0.465057  0.494546  0.459817  0.998523
    O   O21  0.533775  0.561165  0.603868  -0.589022
    O   O22  0.458814  0.551292  0.520546  -0.575292
    O   O23  0.605065  0.572946  0.556378  -0.581841
    O   O24  0.530857  0.560133  0.470025  -0.576092
    C   C47  0.489699  0.570866  0.578970  0.732474
    C   C48  0.587022  0.587618  0.514757  0.790864
    H   H9   0.552792  0.819860  0.821216  0.162427
    C   C49  0.516862  0.737369  0.742636  -0.171870
    H   H10  0.560787  0.743277  0.750529  0.153759
    C   C50  0.465328  0.687329  0.692491  0.251816
    C   C51  0.408599  0.679006  0.681340  -0.130648
    C   C52  0.404482  0.722303  0.721434  -0.238858
    H   H11  0.361368  0.718270  0.714528  0.178503
    C   C53  0.456444  0.772475  0.771216  0.314030
    C   C54  0.512438  0.780067  0.782067  -0.184514
    C   C55  0.472319  0.645149  0.651839  -0.136092
    C   C56  0.453295  0.818445  0.811883  -0.131762
    C   C57  0.454339  0.859258  0.847726  -0.146189
    C   C58  0.479830  0.610850  0.618327  -0.106903
    H   H12  0.552673  0.294174  0.189093  0.153889
    C   C59  0.554730  0.328285  0.273270  -0.145623
    H   H13  0.564389  0.371437  0.278257  0.147675
    C   C60  0.545845  0.315297  0.315086  0.241352
    C   C61  0.532311  0.260298  0.308839  -0.199404
    H   H14  0.524733  0.251845  0.342296  0.174299
    C   C62  0.525322  0.216568  0.258783  -0.148426
    C   C63  0.532028  0.229240  0.215597  0.276552
    C   C64  0.547906  0.285068  0.223373  -0.186638
    C   C65  0.542923  0.356543  0.360967  -0.091689
    C   C66  0.519101  0.183490  0.160547  -0.154973
    C   C67  0.507000  0.143261  0.114772  -0.093010
    C   C68  0.536798  0.389921  0.396992  -0.170171
    C   C69  0.740006  0.857922  0.510587  0.719161
    F   F1   0.688255  0.854452  0.510982  -0.228039
    F   F2   0.735347  0.856797  0.457784  -0.222065
    F   F3   0.789121  0.910831  0.560711  -0.224136
    C   C70  0.352866  0.624279  0.626358  0.726092
    F   F4   0.352645  0.574667  0.628337  -0.230584
    F   F5   0.351710  0.621416  0.574102  -0.224979
    F   F6   0.301528  0.624854  0.624501  -0.231022
    C   C71  0.240040  0.232638  0.382629  0.716006
    F   F7   0.185541  0.183794  0.334231  -0.232424
    F   F8   0.286158  0.227581  0.374680  -0.224734
    F   F9   0.240157  0.283049  0.383021  -0.219801
    C   C72  0.508454  0.155682  0.250069  0.718897
    F   F10  0.505921  0.153586  0.299295  -0.234469
    F   F11  0.551195  0.140786  0.244679  -0.226290
    F   F12  0.452356  0.114964  0.198034  -0.215912
    C   C73  0.635546  0.884851  0.133790  0.714671
    F   F13  0.640273  0.838005  0.138877  -0.232185
    F   F14  0.632671  0.879663  0.080259  -0.228596
    F   F15  0.583055  0.882006  0.131824  -0.218881
    C   C74  0.857604  0.749472  0.515168  0.723391
    F   F16  0.856025  0.699661  0.517516  -0.226377
    F   F17  0.910596  0.798802  0.565448  -0.226816
    F   F18  0.856753  0.744798  0.462501  -0.227069
