# Generated by REPEAT Assigner based on pymatgen
data_DB0-m2_o22_o22_f0_nbo.sym.116_sqe
_audit_creation_date              2022-05-24
_audit_creation_method            REPEAT_Assigner
_cell_length_a                    18.369278
_cell_length_b                    18.552304
_cell_length_c                    18.488599
_cell_angle_alpha                 109.738330
_cell_angle_beta                  109.338402
_cell_angle_gamma                 109.263049
_cell_volume                      4854.683691
_symmetry_space_group_name_H-M    P1
_symmetry_Int_Tables_number       1
loop_
    _symmetry_equiv_pos_site_id
    _symmetry_equiv_pos_as_xyz
    1  x,y,z
loop_
    _atom_site_type_symbol
    _atom_site_label
    _atom_site_fract_x
    _atom_site_fract_y
    _atom_site_fract_z
    _atom_type_partial_charge
    O   O1   0.586095  0.548273  0.644125  -0.601231
    O   O2   0.413140  0.451197  0.355537  -0.601656
    O   O3   0.594302  0.448418  0.536349  -0.613229
    O   O4   0.404939  0.551060  0.463315  -0.613634
    C   C1   0.619048  0.497730  0.619482  0.507582
    C   C2   0.380194  0.501746  0.380183  0.507841
    O   O5   0.403346  0.459981  0.548578  -0.596358
    O   O6   0.595887  0.539496  0.451082  -0.596834
    O   O7   0.411444  0.354916  0.445834  -0.528216
    O   O8   0.587796  0.644561  0.553834  -0.528176
    C   C3   0.377365  0.377432  0.496061  0.575651
    C   C4   0.621859  0.622046  0.503592  0.575035
    Cu  Cu1  0.497960  0.560513  0.562278  0.955067
    Cu  Cu2  0.501278  0.438962  0.437386  0.954768
    H   H1   0.141049  0.390147  0.860099  0.002830
    H   H2   0.858279  0.609362  0.139728  0.003151
    C   C5   0.077260  0.349284  0.796442  -0.011968
    C   C6   0.922089  0.650272  0.203365  -0.012078
    C   C7   0.913752  0.261228  0.725273  -0.137881
    C   C8   0.085580  0.738418  0.274457  -0.134988
    H   H3   0.142055  0.273879  0.769856  0.034055
    H   H4   0.857228  0.725606  0.229948  0.034413
    C   C9   0.999550  0.189351  0.691314  0.329875
    C   C10  0.999723  0.810210  0.308437  0.334921
    H   H5   0.088142  0.290899  0.680907  0.009708
    H   H6   0.911237  0.708658  0.318920  0.010241
    C   C11  0.082547  0.276723  0.733093  -0.121956
    C   C12  0.916775  0.722814  0.266707  -0.124316
    C   C13  0.284463  0.348943  0.564347  0.030179
    C   C14  0.714624  0.650574  0.435178  0.029779
    H   H7   0.253036  0.386417  0.545664  0.002880
    H   H8   0.746056  0.613056  0.453737  0.002976
    H   H9   0.345313  0.394283  0.630439  0.015603
    H   H10  0.653709  0.605280  0.369130  0.015668
    C   C15  0.220325  0.278242  0.570674  -0.172654
    C   C16  0.778697  0.721302  0.428825  -0.172395
    H   H11  0.254321  0.283441  0.635713  0.032049
    H   H12  0.744583  0.716247  0.363887  0.032518
    H   H13  0.162616  0.287845  0.564955  0.062534
    H   H14  0.836308  0.711600  0.434276  0.062500
    H   H15  0.199363  0.295386  0.390802  0.113466
    H   H16  0.799783  0.703863  0.608725  0.112882
    H   H17  0.097020  0.202646  0.401376  0.062070
    H   H18  0.902109  0.796384  0.597900  0.063075
    C   C17  0.221946  0.250620  0.404730  -0.263836
    C   C18  0.777325  0.748734  0.594883  -0.261003
    C   C19  0.342057  0.249653  0.519990  -0.206991
    C   C20  0.657260  0.749995  0.479918  -0.211230
    C   C21  0.307131  0.306413  0.495107  0.194373
    C   C22  0.692093  0.693079  0.504560  0.197612
    H   H19  0.369891  0.224647  0.479052  0.016408
    H   H20  0.629516  0.774989  0.520968  0.018053
    H   H21  0.396347  0.290319  0.590061  0.065319
    H   H22  0.602929  0.709455  0.409867  0.066282
    C   C23  0.188911  0.188088  0.496905  0.196747
    C   C24  0.810332  0.811422  0.502803  0.193594
    C   C25  0.150035  0.184869  0.408635  -0.124241
    C   C26  0.849276  0.814398  0.590939  -0.127782
    C   C27  0.267893  0.173173  0.510482  0.142162
    C   C28  0.731473  0.826502  0.489507  0.141938
    H   H23  0.293902  0.169524  0.571690  -0.002730
    H   H24  0.705451  0.830336  0.428415  -0.001980
    H   H25  0.247259  0.110537  0.453149  -0.063383
    H   H26  0.752249  0.889100  0.546978  -0.063138
    H   H27  0.121190  0.117462  0.353383  0.014836
    H   H28  0.878380  0.881792  0.646345  0.016181
    C   C29  0.704630  0.554600  0.780146  -0.237948
    C   C30  0.294641  0.444917  0.219523  -0.238773
    H   H29  0.641195  0.533533  0.781203  0.062360
    H   H30  0.358083  0.465993  0.218480  0.062723
    H   H31  0.734051  0.624723  0.797239  0.087957
    H   H32  0.265210  0.374786  0.202409  0.088135
    C   C31  0.767920  0.545370  0.848712  -0.007679
    C   C32  0.231363  0.454177  0.150974  -0.010129
    H   H33  0.820945  0.611799  0.905791  -0.001598
    H   H34  0.178337  0.387758  0.093879  -0.000510
    H   H35  0.731010  0.507364  0.872141  0.026776
    H   H36  0.268285  0.492203  0.127567  0.027478
    H   H37  0.602043  0.380138  0.681906  0.013652
    H   H38  0.397232  0.619386  0.317832  0.012347
    H   H39  0.710511  0.365566  0.766331  0.028498
    H   H40  0.288786  0.633980  0.233412  0.027517
    C   C33  0.660037  0.403751  0.672225  -0.068229
    C   C34  0.339222  0.595750  0.327487  -0.065611
    C   C35  0.774609  0.532227  0.686661  0.021528
    C   C36  0.224634  0.467216  0.312976  0.021503
    C   C37  0.688878  0.497185  0.689138  0.308263
    C   C38  0.310376  0.502301  0.310532  0.309311
    H   H41  0.766323  0.484840  0.624514  0.011088
    H   H42  0.232905  0.514549  0.375143  0.010951
    H   H43  0.792090  0.596449  0.689170  -0.041232
    H   H44  0.207146  0.402956  0.310388  -0.041159
    C   C39  0.808669  0.497445  0.807471  0.241618
    C   C40  0.190614  0.502092  0.192228  0.242078
    C   C41  0.736371  0.403061  0.736495  -0.072198
    C   C42  0.262909  0.596466  0.263226  -0.069053
    C   C43  0.848570  0.543740  0.765106  -0.106116
    C   C44  0.150693  0.455765  0.234563  -0.107466
    H   H45  0.893937  0.615220  0.813776  0.015829
    H   H46  0.105305  0.384295  0.185865  0.016219
    H   H47  0.885840  0.514728  0.741529  0.034233
    H   H48  0.113443  0.484787  0.258168  0.034585
    H   H49  0.641214  0.358772  0.603623  0.025599
    H   H50  0.358024  0.640701  0.396089  0.024455
    H   H51  0.763903  0.369953  0.700388  0.002358
    H   H52  0.235372  0.629564  0.299334  0.001167
    H   H53  0.858180  0.223890  0.732646  0.036084
    H   H54  0.141106  0.775782  0.267045  0.035614
    H   H55  0.856730  0.132830  0.614589  0.018976
    H   H56  0.142561  0.866818  0.385127  0.019403
    H   H57  0.922409  0.223854  0.606299  0.019367
    H   H58  0.076971  0.775783  0.393459  0.019835
    H   H59  0.902024  0.309888  0.708536  0.046518
    H   H60  0.097386  0.689797  0.291213  0.046026
    H   H61  0.066344  0.390873  0.767530  0.019460
    H   H62  0.933082  0.608725  0.232308  0.019858
    C   C45  0.000686  0.308545  0.811083  0.201529
    C   C46  0.998609  0.691035  0.188665  0.197819
    O   O9   0.057462  0.094145  0.645438  -0.607943
    O   O10  0.941795  0.905402  0.354312  -0.608045
    O   O11  0.942526  0.087475  0.537730  -0.642455
    O   O12  0.056723  0.912063  0.462021  -0.641767
    C   C47  0.999534  0.119646  0.620998  0.543751
    C   C48  0.999725  0.879902  0.378753  0.541232
    O   O13  0.145215  0.093509  0.555514  -0.626578
    O   O14  0.854036  0.906027  0.444229  -0.627174
    O   O15  0.035440  0.086804  0.442570  -0.628577
    O   O16  0.963811  0.912741  0.557183  -0.628385
    C   C49  0.119474  0.118875  0.498195  0.643853
    C   C50  0.879776  0.880655  0.501541  0.646066
    Cu  Cu3  0.063078  0.000585  0.562164  1.002309
    Cu  Cu4  0.936174  0.998957  0.437586  1.003042
    O   O17  0.050177  0.644139  0.086728  -0.625055
    O   O18  0.949112  0.355443  0.913005  -0.624910
    O   O19  0.947047  0.538087  0.093042  -0.609613
    O   O20  0.052252  0.461497  0.906698  -0.609175
    C   C51  0.998192  0.620635  0.118642  0.588832
    C   C52  0.001107  0.378948  0.881102  0.586651
    O   O21  0.962706  0.549403  0.904533  -0.602360
    O   O22  0.036588  0.450175  0.095197  -0.601812
    O   O23  0.854504  0.448513  0.910891  -0.633597
    O   O24  0.144792  0.551074  0.088847  -0.633898
    C   C53  0.879118  0.498123  0.877685  0.574003
    C   C54  0.120174  0.501445  0.122036  0.573148
    Cu  Cu5  0.062243  0.561186  0.999237  0.996560
    Cu  Cu6  0.937051  0.438397  0.000499  0.996143
    C   C55  0.918112  0.197943  0.651636  -0.045510
    C   C56  0.081209  0.801683  0.348102  -0.048471
    C   C57  0.998855  0.166007  0.762411  -0.086359
    C   C58  0.000336  0.833521  0.237303  -0.086298
    H   H63  0.054050  0.153169  0.788287  0.025850
    H   H64  0.945106  0.846317  0.211434  0.025689
    H   H65  0.934751  0.106146  0.734102  0.020197
    H   H66  0.064412  0.893400  0.265576  0.020249
    C   C59  0.010127  0.242249  0.838534  -0.064251
    C   C60  0.989067  0.757281  0.161180  -0.064902
    H   H67  0.958733  0.215942  0.855681  0.029321
    H   H68  0.040415  0.783596  0.143984  0.029434
    H   H69  0.076914  0.274674  0.896953  0.018193
    H   H70  0.922253  0.724809  0.102783  0.018919
    C   C61  0.233504  0.203106  0.329621  0.331606
    C   C62  0.221670  0.219043  0.260414  -0.366855
    C   C63  0.234968  0.161315  0.205495  -0.101756
    C   C64  0.253347  0.113640  0.244559  -0.265355
    O   O25  0.252060  0.138377  0.320002  0.043214
    H   H71  0.204508  0.266656  0.250810  0.187060
    H   H72  0.231188  0.153944  0.143601  0.130504
    H   H73  0.266821  0.061351  0.217167  0.167069
    C   C65  0.765885  0.796326  0.670059  0.328854
    C   C66  0.777286  0.780082  0.739040  -0.365061
    C   C67  0.764244  0.837977  0.794097  -0.103345
    C   C68  0.746453  0.886059  0.755344  -0.264539
    O   O26  0.747845  0.861404  0.679955  0.043382
    H   H74  0.793986  0.732151  0.748401  0.186995
    H   H75  0.767813  0.845191  0.855882  0.130868
    H   H76  0.733315  0.938572  0.782915  0.167098
