# generated using pymatgen
data_Zn3H8(C3O2)6
_symmetry_space_group_name_H-M   'P 1'
_cell_length_a   23.98460700
_cell_length_b   31.28023900
_cell_length_c   19.71141300
_cell_angle_alpha   90.00000000
_cell_angle_beta   127.46155600
_cell_angle_gamma   90.00000000
_symmetry_Int_Tables_number   1
_chemical_formula_structural   Zn3H8(C3O2)6
_chemical_formula_sum   'Zn12 H32 C72 O48'
_cell_volume   11738.44381803
_cell_formula_units_Z   4
loop_
 _symmetry_equiv_pos_site_id
 _symmetry_equiv_pos_as_xyz
  1  'x, y, z'
loop_
 _atom_site_type_symbol
 _atom_site_label
 _atom_site_symmetry_multiplicity
 _atom_site_fract_x
 _atom_site_fract_y
 _atom_site_fract_z
 _atom_site_occupancy
  Zn  Zn1  1  0.78547700  0.28071700  0.07210200  1
  Zn  Zn2  1  0.21452300  0.71928200  0.92789900  1
  Zn  Zn3  1  0.21452300  0.28071700  0.92789900  1
  Zn  Zn4  1  0.78547700  0.71928200  0.07210200  1
  Zn  Zn5  1  0.28547700  0.78071700  0.07210200  1
  Zn  Zn6  1  0.71452300  0.21928200  0.92789900  1
  Zn  Zn7  1  0.71452300  0.78071700  0.92789900  1
  Zn  Zn8  1  0.28547700  0.21928200  0.07210200  1
  Zn  Zn9  1  0.93650300  0.00000000  0.49650800  1
  Zn  Zn10  1  0.06349700  0.00000000  0.50349200  1
  Zn  Zn11  1  0.43650300  0.50000000  0.49650800  1
  Zn  Zn12  1  0.56349700  0.50000000  0.50349200  1
  H  H1  1  0.85227400  0.11850400  0.34807000  1
  H  H2  1  0.14772600  0.88149600  0.65193000  1
  H  H3  1  0.14772600  0.11850400  0.65193000  1
  H  H4  1  0.85227400  0.88149600  0.34807000  1
  H  H5  1  0.35227400  0.61850400  0.34807000  1
  H  H6  1  0.64772600  0.38149600  0.65193000  1
  H  H7  1  0.64772600  0.61850400  0.65193000  1
  H  H8  1  0.35227400  0.38149600  0.34807000  1
  H  H9  1  0.93634700  0.09796600  0.28211800  1
  H  H10  1  0.06365300  0.90203400  0.71788200  1
  H  H11  1  0.06365300  0.09796600  0.71788200  1
  H  H12  1  0.93634700  0.90203400  0.28211800  1
  H  H13  1  0.43634700  0.59796600  0.28211800  1
  H  H14  1  0.56365300  0.40203400  0.71788200  1
  H  H15  1  0.56365300  0.59796600  0.71788200  1
  H  H16  1  0.43634700  0.40203400  0.28211800  1
  H  H17  1  0.82901200  0.18578900  0.26093000  1
  H  H18  1  0.17098800  0.81421000  0.73907000  1
  H  H19  1  0.17098800  0.18578900  0.73907000  1
  H  H20  1  0.82901200  0.81421000  0.26093000  1
  H  H21  1  0.32901200  0.68578900  0.26093000  1
  H  H22  1  0.67098800  0.31421000  0.73907000  1
  H  H23  1  0.67098800  0.68578900  0.73907000  1
  H  H24  1  0.32901200  0.31421000  0.26093000  1
  H  H25  1  0.83002000  0.11876400  0.14852000  1
  H  H26  1  0.16998000  0.88123600  0.85148100  1
  H  H27  1  0.16998000  0.11876400  0.85148100  1
  H  H28  1  0.83002000  0.88123600  0.14852000  1
  H  H29  1  0.33002000  0.61876400  0.14852000  1
  H  H30  1  0.66998000  0.38123600  0.85148100  1
  H  H31  1  0.66998000  0.61876400  0.85148100  1
  H  H32  1  0.33002000  0.38123600  0.14852000  1
  C  C1  1  0.79946000  0.18564700  0.10869100  1
  C  C2  1  0.20054000  0.81435200  0.89130900  1
  C  C3  1  0.20054000  0.18564700  0.89130900  1
  C  C4  1  0.79946000  0.81435200  0.10869100  1
  C  C5  1  0.29946000  0.68564700  0.10869100  1
  C  C6  1  0.70054000  0.31435200  0.89130900  1
  C  C7  1  0.70054000  0.68564700  0.89130900  1
  C  C8  1  0.29946000  0.31435200  0.10869100  1
  C  C9  1  0.63801700  0.25209000  0.99678600  1
  C  C10  1  0.36198300  0.74790900  0.00321500  1
  C  C11  1  0.36198300  0.25209000  0.00321500  1
  C  C12  1  0.63801700  0.74790900  0.99678600  1
  C  C13  1  0.13801700  0.75209000  0.99678600  1
  C  C14  1  0.86198300  0.24790900  0.00321500  1
  C  C15  1  0.86198300  0.75209000  0.00321500  1
  C  C16  1  0.13801700  0.24790900  0.99678600  1
  C  C17  1  0.57825200  0.25201900  0.99704500  1
  C  C18  1  0.42174800  0.74798000  0.00295500  1
  C  C19  1  0.42174800  0.25201900  0.00295500  1
  C  C20  1  0.57825200  0.74798000  0.99704500  1
  C  C21  1  0.07825200  0.75201900  0.99704500  1
  C  C22  1  0.92174800  0.24798000  0.00295500  1
  C  C23  1  0.92174800  0.75201900  0.00295500  1
  C  C24  1  0.07825200  0.24798000  0.99704500  1
  C  C25  1  0.52881600  0.25199000  0.99871600  1
  C  C26  1  0.47118400  0.74800900  0.00128400  1
  C  C27  1  0.47118400  0.25199000  0.00128400  1
  C  C28  1  0.52881600  0.74800900  0.99871600  1
  C  C29  1  0.02881600  0.75199000  0.99871600  1
  C  C30  1  0.97118400  0.24800900  0.00128400  1
  C  C31  1  0.97118400  0.75199000  0.00128400  1
  C  C32  1  0.02881600  0.24800900  0.99871600  1
  C  C33  1  0.86722500  0.12021100  0.30615500  1
  C  C34  1  0.13277500  0.87978800  0.69384500  1
  C  C35  1  0.13277500  0.12021100  0.69384500  1
  C  C36  1  0.86722500  0.87978800  0.30615500  1
  C  C37  1  0.36722500  0.62021100  0.30615500  1
  C  C38  1  0.63277500  0.37978800  0.69384500  1
  C  C39  1  0.63277500  0.62021100  0.69384500  1
  C  C40  1  0.36722500  0.37978800  0.30615500  1
  C  C41  1  0.91503300  0.09333600  0.31679000  1
  C  C42  1  0.08496700  0.90666400  0.68321100  1
  C  C43  1  0.08496700  0.09333600  0.68321100  1
  C  C44  1  0.91503300  0.90666400  0.31679000  1
  C  C45  1  0.41503300  0.59333600  0.31679000  1
  C  C46  1  0.58496700  0.40666400  0.68321100  1
  C  C47  1  0.58496700  0.59333600  0.68321100  1
  C  C48  1  0.41503300  0.40666400  0.31679000  1
  C  C49  1  0.84068300  0.15559000  0.24509500  1
  C  C50  1  0.15931700  0.84441000  0.75490600  1
  C  C51  1  0.15931700  0.15559000  0.75490600  1
  C  C52  1  0.84068300  0.84441000  0.24509500  1
  C  C53  1  0.34068300  0.65559000  0.24509500  1
  C  C54  1  0.65931700  0.34441000  0.75490600  1
  C  C55  1  0.65931700  0.65559000  0.75490600  1
  C  C56  1  0.34068300  0.34441000  0.24509500  1
  C  C57  1  0.82606600  0.15009600  0.16875100  1
  C  C58  1  0.17393400  0.84990300  0.83124900  1
  C  C59  1  0.17393400  0.15009600  0.83124900  1
  C  C60  1  0.82606600  0.84990300  0.16875100  1
  C  C61  1  0.32606600  0.65009600  0.16875100  1
  C  C62  1  0.67393400  0.34990300  0.83124900  1
  C  C63  1  0.67393400  0.65009600  0.83124900  1
  C  C64  1  0.32606600  0.34990300  0.16875100  1
  C  C65  1  0.44490100  0.44016000  0.38148900  1
  C  C66  1  0.55509900  0.55983900  0.61851100  1
  C  C67  1  0.55509900  0.44016000  0.61851100  1
  C  C68  1  0.44490100  0.55983900  0.38148900  1
  C  C69  1  0.94490100  0.94016000  0.38148900  1
  C  C70  1  0.05509900  0.05983900  0.61851100  1
  C  C71  1  0.05509900  0.94016000  0.61851100  1
  C  C72  1  0.94490100  0.05983900  0.38148900  1
  O  O1  1  0.81362800  0.22506000  0.13730000  1
  O  O2  1  0.18637200  0.77494000  0.86270000  1
  O  O3  1  0.18637200  0.22506000  0.86270000  1
  O  O4  1  0.81362800  0.77494000  0.13730000  1
  O  O5  1  0.31362800  0.72506000  0.13730000  1
  O  O6  1  0.68637200  0.27494000  0.86270000  1
  O  O7  1  0.68637200  0.72506000  0.86270000  1
  O  O8  1  0.31362800  0.27494000  0.13730000  1
  O  O9  1  0.76161500  0.17772400  0.02657400  1
  O  O10  1  0.23838500  0.82227500  0.97342600  1
  O  O11  1  0.23838500  0.17772400  0.97342600  1
  O  O12  1  0.76161500  0.82227500  0.02657400  1
  O  O13  1  0.26161500  0.67772400  0.02657400  1
  O  O14  1  0.73838500  0.32227500  0.97342600  1
  O  O15  1  0.73838500  0.67772400  0.97342600  1
  O  O16  1  0.26161500  0.32227500  0.02657400  1
  O  O17  1  0.69293900  0.27538300  0.05303700  1
  O  O18  1  0.30706100  0.72461700  0.94696400  1
  O  O19  1  0.30706100  0.27538300  0.94696400  1
  O  O20  1  0.69293900  0.72461700  0.05303700  1
  O  O21  1  0.19293900  0.77538300  0.05303700  1
  O  O22  1  0.80706100  0.22461700  0.94696400  1
  O  O23  1  0.80706100  0.77538300  0.94696400  1
  O  O24  1  0.19293900  0.22461700  0.05303700  1
  O  O25  1  0.63808300  0.22803300  0.94221300  1
  O  O26  1  0.36191700  0.77196700  0.05778800  1
  O  O27  1  0.36191700  0.22803300  0.05778800  1
  O  O28  1  0.63808300  0.77196700  0.94221300  1
  O  O29  1  0.13808300  0.72803300  0.94221300  1
  O  O30  1  0.86191700  0.27196700  0.05778800  1
  O  O31  1  0.86191700  0.72803300  0.05778800  1
  O  O32  1  0.13808300  0.27196700  0.94221300  1
  O  O33  1  0.50680900  0.45565700  0.41196800  1
  O  O34  1  0.49319100  0.54434200  0.58803200  1
  O  O35  1  0.49319100  0.45565700  0.58803200  1
  O  O36  1  0.50680900  0.54434200  0.41196800  1
  O  O37  1  0.00680900  0.95565700  0.41196800  1
  O  O38  1  0.99319100  0.04434200  0.58803200  1
  O  O39  1  0.99319100  0.95565700  0.58803200  1
  O  O40  1  0.00680900  0.04434200  0.41196800  1
  O  O41  1  0.41018300  0.45423400  0.40882300  1
  O  O42  1  0.58981700  0.54576500  0.59117700  1
  O  O43  1  0.58981700  0.45423400  0.59117700  1
  O  O44  1  0.41018300  0.54576500  0.40882300  1
  O  O45  1  0.91018300  0.95423400  0.40882300  1
  O  O46  1  0.08981700  0.04576500  0.59117700  1
  O  O47  1  0.08981700  0.95423400  0.59117700  1
  O  O48  1  0.91018300  0.04576500  0.40882300  1
