# generated using pymatgen
data_ZnH14C11(N2O)4
_symmetry_space_group_name_H-M   'P 1'
_cell_length_a   10.29084300
_cell_length_b   11.21242700
_cell_length_c   16.06754600
_cell_angle_alpha   90.01458500
_cell_angle_beta   80.56635200
_cell_angle_gamma   92.52449400
_symmetry_Int_Tables_number   1
_chemical_formula_structural   ZnH14C11(N2O)4
_chemical_formula_sum   'Zn2 H28 C22 N16 O8'
_cell_volume   1827.06563526
_cell_formula_units_Z   2
loop_
 _symmetry_equiv_pos_site_id
 _symmetry_equiv_pos_as_xyz
  1  'x, y, z'
loop_
 _atom_site_type_symbol
 _atom_site_label
 _atom_site_symmetry_multiplicity
 _atom_site_fract_x
 _atom_site_fract_y
 _atom_site_fract_z
 _atom_site_occupancy
  Zn  Zn1  1  0.35074300  0.51261900  0.51484700  1
  Zn  Zn2  1  0.64728900  0.48371400  0.49533900  1
  H  H1  1  0.71687400  0.71610300  0.96780600  1
  H  H2  1  0.61381100  0.73490600  0.89770500  1
  H  H3  1  0.28333400  0.28001700  0.04227900  1
  H  H4  1  0.38605500  0.26188400  0.11267900  1
  H  H5  1  0.41534900  0.77150500  0.02419000  1
  H  H6  1  0.51865800  0.75536500  0.09456300  1
  H  H7  1  0.58503800  0.22520700  0.98591200  1
  H  H8  1  0.48106000  0.24079200  0.91590000  1
  H  H9  1  0.80895400  0.44654100  0.95983300  1
  H  H10  1  0.79454200  0.52464900  0.05048900  1
  H  H11  1  0.19090200  0.55034500  0.05032500  1
  H  H12  1  0.20498500  0.47161800  0.95996800  1
  H  H13  1  0.58879800  0.08774300  0.33812200  1
  H  H14  1  0.70469100  0.08325000  0.40110000  1
  H  H15  1  0.30902600  0.86029100  0.45730800  1
  H  H16  1  0.36879600  0.95514400  0.37826400  1
  H  H17  1  0.35913200  0.02686300  0.60918900  1
  H  H18  1  0.26087700  0.04378900  0.53437200  1
  H  H19  1  0.62577500  0.96942700  0.58875600  1
  H  H20  1  0.73797800  0.94919200  0.49948600  1
  H  H21  1  0.18155800  0.51341900  0.35435400  1
  H  H22  1  0.18876900  0.38032900  0.40618200  1
  H  H23  1  0.85753700  0.68756300  0.53739800  1
  H  H24  1  0.87475300  0.68269100  0.42916000  1
  H  H25  1  0.01943000  0.51972300  0.62870300  1
  H  H26  1  0.06625500  0.66341000  0.59308500  1
  H  H27  1  0.92025400  0.33590600  0.54538400  1
  H  H28  1  0.92600800  0.31520500  0.43785600  1
  C  C1  1  0.53789800  0.73057300  0.50144400  1
  C  C2  1  0.45982300  0.26598800  0.50752900  1
  C  C3  1  0.48006700  0.49833600  0.66926200  1
  C  C4  1  0.51832300  0.49781000  0.34089800  1
  C  C5  1  0.47002700  0.60189100  0.03777600  1
  C  C6  1  0.52975300  0.39461800  0.97227600  1
  C  C7  1  0.58000300  0.58075000  0.96543000  1
  C  C8  1  0.41977500  0.41575600  0.04460900  1
  C  C9  1  0.47547200  0.49897500  0.75903300  1
  C  C10  1  0.52309100  0.49731400  0.25113400  1
  C  C11  1  0.37900000  0.51998100  0.99686700  1
  C  C12  1  0.62075200  0.47653200  0.01322000  1
  C  C13  1  0.48867700  0.49884700  0.92354300  1
  C  C14  1  0.51102900  0.49765900  0.08650900  1
  C  C15  1  0.47878900  0.49911700  0.83367500  1
  C  C16  1  0.52026800  0.49730000  0.17644600  1
  C  C17  1  0.56089400  0.86087100  0.50195400  1
  C  C18  1  0.43704500  0.13587600  0.51164800  1
  C  C19  1  0.48935600  0.93403400  0.46300800  1
  C  C20  1  0.51605600  0.06443900  0.46127300  1
  C  C21  1  0.93959300  0.54021900  0.48395700  1
  C  C22  1  0.07800400  0.50351800  0.47231300  1
  N  N1  1  0.84165200  0.46324200  0.48513100  1
  N  N2  1  0.15625200  0.53244100  0.52532700  1
  N  N3  1  0.67009400  0.67286700  0.92253400  1
  N  N4  1  0.32976500  0.32362900  0.08755600  1
  N  N5  1  0.43575600  0.71772300  0.07307000  1
  N  N6  1  0.56409500  0.27874900  0.93705900  1
  N  N7  1  0.75560300  0.45177100  0.02076600  1
  N  N8  1  0.24411200  0.54470000  0.98938100  1
  N  N9  1  0.61313500  0.11592100  0.39578100  1
  N  N10  1  0.39402100  0.88596900  0.41521000  1
  N  N11  1  0.32615800  0.08740400  0.56877700  1
  N  N12  1  0.66435900  0.90776100  0.54367100  1
  N  N13  1  0.12852200  0.44862900  0.39426700  1
  N  N14  1  0.91853400  0.66495300  0.48172400  1
  N  N15  1  0.09733300  0.57778700  0.60213000  1
  N  N16  1  0.87113400  0.34458400  0.49389400  1
  O  O1  1  0.41644400  0.68582900  0.51078300  1
  O  O2  1  0.58148300  0.31053200  0.49876000  1
  O  O3  1  0.64087900  0.66409900  0.49511500  1
  O  O4  1  0.35635900  0.33220300  0.51610700  1
  O  O5  1  0.37074600  0.51005100  0.63826700  1
  O  O6  1  0.62760500  0.48689100  0.37189200  1
  O  O7  1  0.59552400  0.48661200  0.62242900  1
  O  O8  1  0.40287100  0.50861200  0.38780000  1
