# Generated by REPEAT Assigner based on pymatgen
data_DB0-m29_o80_o470_f0_pts.sym.5
_audit_creation_date              2022-05-24
_audit_creation_method            REPEAT_Assigner
_cell_length_a                    13.854328
_cell_length_b                    12.191726
_cell_length_c                    15.067201
_cell_angle_alpha                 79.392180
_cell_angle_beta                  91.533813
_cell_angle_gamma                 114.407146
_cell_volume                      2274.470204
_symmetry_space_group_name_H-M    P1
_symmetry_Int_Tables_number       1
loop_
    _symmetry_equiv_pos_site_id
    _symmetry_equiv_pos_as_xyz
    1  x,y,z
loop_
    _atom_site_type_symbol
    _atom_site_label
    _atom_site_fract_x
    _atom_site_fract_y
    _atom_site_fract_z
    _atom_type_partial_charge
    H   H1   0.954706  0.213101  0.231163  0.192313
    C   C1   0.678598  0.889349  0.906139  -0.228080
    C   C2   0.707062  0.806209  0.876717  -0.129175
    C   C3   0.809864  0.833726  0.900504  0.416566
    N   N1   0.844494  0.927167  0.946138  -0.577620
    C   C4   0.763676  0.961099  0.949531  0.511980
    C   C5   0.869288  0.783400  0.872012  -0.249030
    C   C6   0.985099  0.833234  0.878055  0.355021
    C   C7   0.055019  0.835757  0.813206  -0.227196
    C   C8   0.155868  0.888485  0.844266  -0.158388
    C   C9   0.142491  0.914212  0.928121  0.304820
    N   N2   0.038453  0.879905  0.947969  -0.388766
    C   C10  0.227504  0.970592  0.987726  -0.261874
    C   C11  0.226104  0.052798  0.034346  0.468656
    C   C12  0.308704  0.119584  0.082557  -0.171820
    C   C13  0.278501  0.199075  0.114892  -0.225000
    C   C14  0.178146  0.176276  0.087021  0.492209
    N   N3   0.145743  0.087780  0.036847  -0.554063
    C   C15  0.119048  0.226903  0.115405  -0.387751
    C   C16  0.005041  0.184642  0.103425  0.430570
    C   C17  0.935145  0.183714  0.167040  -0.305271
    C   C18  0.835592  0.132117  0.135013  -0.188408
    C   C19  0.848871  0.104790  0.051978  0.361353
    N   N4   0.952811  0.137541  0.033188  -0.422881
    C   C20  0.763384  0.046105  0.993716  -0.294196
    H   H2   0.661943  0.741002  0.835063  0.131739
    H   H3   0.832723  0.714716  0.830507  0.087917
    H   H4   0.297666  0.952537  0.988342  0.167932
    H   H5   0.320586  0.258201  0.160960  0.152239
    H   H6   0.153258  0.289776  0.161588  0.171155
    H   H7   0.692303  0.062127  0.994784  0.168955
    H   H8   0.004888  0.882650  0.008143  0.322746
    H   H9   0.986766  0.131838  0.974296  0.330330
    O   O1   0.644774  0.056391  0.151838  -0.709379
    C   C21  0.737460  0.103794  0.186931  0.807555
    O   O2   0.600965  0.841260  0.301040  -0.503865
    O   O3   0.743067  0.121791  0.270424  -0.548827
    O   O4   0.463153  0.886148  0.332696  -0.582288
    C   C22  0.517136  0.818559  0.352100  0.503318
    Fe  Fe1  0.522519  0.028607  0.231719  1.470832
    O   O5   0.397198  0.998366  0.154489  -0.605534
    O   O6   0.491049  0.203364  0.114161  -0.551061
    C   C23  0.405163  0.104616  0.108713  0.643591
    O   O7   0.580708  0.179301  0.287226  -0.566252
    O   O8   0.404220  0.108313  0.319484  -0.554706
    C   C24  0.501024  0.191104  0.323523  0.692390
    C   C25  0.501616  0.746648  0.444571  0.157960
    C   C26  0.488230  0.802848  0.511640  -0.203104
    C   C27  0.482902  0.751185  0.601030  0.096013
    C   C28  0.486380  0.638338  0.625132  -0.331771
    C   C29  0.494668  0.577115  0.558909  0.300163
    C   C30  0.504838  0.631731  0.468484  -0.066381
    C   C31  0.495800  0.462585  0.584034  -0.237055
    C   C32  0.503500  0.398309  0.519500  -0.030289
    C   C33  0.513899  0.452621  0.428298  0.237449
    C   C34  0.516507  0.569904  0.404109  -0.154503
    C   C35  0.503206  0.281815  0.544254  0.139385
    C   C36  0.512241  0.222382  0.477712  -0.203919
    C   C37  0.519142  0.273235  0.387817  0.073583
    C   C38  0.520895  0.388983  0.362006  -0.233603
    H   H10  0.491195  0.894290  0.494826  0.150577
    H   H11  0.484947  0.599520  0.695884  0.176892
    H   H12  0.505482  0.129394  0.495568  0.152740
    H   H13  0.526713  0.614131  0.334428  0.103979
    H   H14  0.490568  0.424507  0.655210  0.163880
    O   O9   0.593662  0.015893  0.836228  -0.604252
    O   O10  0.496864  0.810370  0.871302  -0.588123
    C   C39  0.583443  0.907171  0.879203  0.689233
    O   O11  0.415333  0.847328  0.694260  -0.600117
    O   O12  0.592877  0.905842  0.679346  -0.574656
    C   C40  0.496131  0.829475  0.666763  0.732529
    O   O13  0.401356  0.190390  0.686831  -0.517175
    O   O14  0.347224  0.963326  0.832407  -0.694215
    C   C41  0.256669  0.922326  0.793152  0.753776
    O   O15  0.537069  0.140186  0.658121  -0.587396
    C   C42  0.485549  0.210478  0.637280  0.503868
    O   O16  0.256691  0.917298  0.706980  -0.456222
    Fe  Fe2  0.472298  0.993345  0.755077  1.463469
    C   C43  0.527622  0.440391  0.265004  0.231330
    C   C44  0.618659  0.469746  0.213014  -0.124603
    C   C45  0.626560  0.520759  0.122393  -0.055804
    C   C46  0.543695  0.543043  0.083402  -0.140100
    C   C47  0.452753  0.513983  0.134946  -0.075986
    C   C48  0.444300  0.461808  0.225349  -0.104492
    H   H15  0.684497  0.454037  0.243455  0.106797
    H   H16  0.697994  0.543824  0.081964  0.086773
    H   H17  0.549932  0.583161  0.012433  0.111001
    H   H18  0.387662  0.531255  0.104364  0.090744
    H   H19  0.372511  0.438578  0.265333  0.079466
    C   C49  0.025832  0.790318  0.728390  0.280681
    C   C50  0.053838  0.700265  0.709600  -0.210397
    C   C51  0.025610  0.656601  0.630292  -0.048293
    C   C52  0.968973  0.702435  0.569603  -0.117692
    C   C53  0.940371  0.791811  0.588325  -0.109549
    C   C54  0.968542  0.835544  0.667627  -0.147875
    H   H20  0.097544  0.663297  0.757277  0.110306
    H   H21  0.047729  0.586198  0.615800  0.106544
    H   H22  0.946835  0.668139  0.507452  0.108249
    H   H23  0.895794  0.827640  0.540803  0.108492
    H   H24  0.946332  0.906105  0.681627  0.108937
