# Generated by REPEAT Assigner based on pymatgen
data_DB0-m9_o8_o16_f0_sra.sym.54
_audit_creation_date              2022-05-24
_audit_creation_method            REPEAT_Assigner
_cell_length_a                    19.065233
_cell_length_b                    21.663797
_cell_length_c                    6.319779
_cell_angle_alpha                 90.000000
_cell_angle_beta                  86.871629
_cell_angle_gamma                 90.000000
_cell_volume                      2606.339033
_symmetry_space_group_name_H-M    P1
_symmetry_Int_Tables_number       1
loop_
    _symmetry_equiv_pos_site_id
    _symmetry_equiv_pos_as_xyz
    1  x,y,z
loop_
    _atom_site_type_symbol
    _atom_site_label
    _atom_site_fract_x
    _atom_site_fract_y
    _atom_site_fract_z
    _atom_type_partial_charge
    O  O1   0.720241  0.429815  0.598206  -0.481785
    O  O2   0.279759  0.929815  0.401793  -0.481803
    O  O3   0.637979  0.425663  0.812611  -0.492078
    O  O4   0.362021  0.925663  0.187389  -0.492085
    O  O5   0.586145  0.526129  0.037630  -0.488517
    O  O6   0.413855  0.026129  0.962370  -0.488505
    C  C1   0.582390  0.436470  0.699479  0.876313
    C  C2   0.417610  0.936470  0.300520  0.876366
    O  O7   0.775868  0.466202  0.881066  -0.584096
    O  O8   0.224132  0.966202  0.118934  -0.584111
    O  O9   0.723755  0.565971  0.098123  -0.473770
    O  O10  0.276245  0.065971  0.901877  -0.473768
    C  C3   0.776069  0.433018  0.709883  0.722382
    C  C4   0.223931  0.933018  0.290117  0.722383
    O  O11  0.584649  0.475292  0.538432  -0.699558
    O  O12  0.415351  0.975292  0.461567  -0.699583
    O  O13  0.680940  0.546334  0.709442  -0.602403
    O  O14  0.319060  0.046334  0.290558  -0.602415
    V  V1   0.680486  0.491128  0.983613  1.323140
    V  V2   0.319514  0.991128  0.016387  1.323251
    O  O15  0.777646  0.527352  0.379990  -0.612823
    O  O16  0.222354  0.027352  0.620010  -0.612850
    C  C5   0.779428  0.560664  0.209113  0.717735
    C  C6   0.220572  0.060664  0.790886  0.717770
    O  O17  0.641790  0.573379  0.313040  -0.536041
    O  O18  0.358210  0.073379  0.686960  -0.536045
    C  C7   0.587336  0.567201  0.191396  0.809679
    C  C8   0.412664  0.067201  0.808603  0.809699
    V  V3   0.680969  0.506257  0.483526  1.418931
    V  V4   0.319031  0.006257  0.516474  1.419296
    O  O19  0.678032  0.451103  0.209697  -0.582191
    O  O20  0.321969  0.951103  0.790303  -0.582238
    C  C9   0.586330  0.859400  0.398455  -0.418019
    C  C10  0.413670  0.359400  0.601545  -0.417991
    H  H1   0.545342  0.950416  0.439583  0.043144
    H  H2   0.454659  0.450416  0.560417  0.043145
    H  H3   0.675088  0.769352  0.408775  0.115698
    H  H4   0.324912  0.269352  0.591225  0.115697
    H  H5   0.636445  0.870896  0.460337  0.151330
    H  H6   0.363555  0.370895  0.539662  0.151327
    C  C11  0.472337  0.889494  0.303437  -0.267182
    C  C12  0.527663  0.389494  0.696563  -0.267162
    C  C13  0.470007  0.599739  0.111035  0.255777
    C  C14  0.529993  0.099739  0.888964  0.255783
    C  C15  0.419690  0.643945  0.083599  -0.233570
    C  C16  0.580310  0.143945  0.916401  -0.233571
    C  C17  0.432113  0.704542  0.133294  -0.132861
    C  C18  0.567887  0.204542  0.866706  -0.132856
    C  C19  0.495953  0.722266  0.209107  -0.027605
    C  C20  0.504047  0.222266  0.790893  -0.027614
    C  C21  0.547580  0.677707  0.233826  0.411566
    C  C22  0.452420  0.177707  0.766174  0.411574
    C  C23  0.508984  0.783858  0.259805  0.035454
    C  C24  0.491016  0.283858  0.740195  0.035473
    C  C25  0.573044  0.799747  0.336644  0.196973
    C  C26  0.426956  0.299747  0.663356  0.196954
    C  C27  0.624616  0.756135  0.353125  -0.109024
    C  C28  0.375384  0.256135  0.646875  -0.109019
    C  C29  0.612542  0.695810  0.299703  -0.443125
    C  C30  0.387458  0.195810  0.700297  -0.443126
    C  C31  0.459098  0.830011  0.238523  -0.171553
    C  C32  0.540902  0.330011  0.761476  -0.171572
    C  C33  0.535495  0.903975  0.386166  0.347025
    C  C34  0.464505  0.403975  0.613834  0.346991
    C  C35  0.534151  0.616041  0.185761  -0.483098
    C  C36  0.465849  0.116041  0.814239  -0.483085
    H  H7   0.408278  0.821172  0.179568  0.120476
    H  H8   0.591722  0.321172  0.820432  0.120482
    H  H9   0.390352  0.736722  0.110679  0.140703
    H  H10  0.609648  0.236722  0.889321  0.140706
    H  H11  0.369276  0.631058  0.027088  0.127933
    H  H12  0.630724  0.131058  0.972912  0.127930
    H  H13  0.655365  0.664112  0.310765  0.268647
    H  H14  0.344635  0.164112  0.689235  0.268648
    C  C37  0.170659  0.884802  0.310017  -0.177953
    C  C38  0.829341  0.384802  0.689983  -0.178202
    C  C39  0.119275  0.883228  0.164900  -0.083279
    C  C40  0.880725  0.383228  0.835100  -0.083076
    C  C41  0.070479  0.836372  0.170970  -0.057903
    C  C42  0.929521  0.336372  0.829030  -0.058026
    C  C43  0.072869  0.790901  0.322550  0.357514
    C  C44  0.927131  0.290901  0.677450  0.357620
    C  C45  0.123704  0.792722  0.470008  -0.281185
    C  C46  0.876296  0.292722  0.529992  -0.281286
    C  C47  0.172812  0.839686  0.463567  0.009079
    C  C48  0.827188  0.339686  0.536433  0.009236
    C  C49  0.935406  0.654247  0.329558  -0.068755
    C  C50  0.064594  0.154247  0.670442  -0.068751
    C  C51  0.885646  0.608116  0.335214  -0.068827
    C  C52  0.114354  0.108116  0.664786  -0.068832
    C  C53  0.933962  0.699845  0.178038  0.359551
    C  C54  0.066038  0.199845  0.821962  0.359558
    N  N1   0.023659  0.742425  0.324536  -0.205609
    N  N2   0.976341  0.242425  0.675464  -0.205637
    N  N3   0.983543  0.748019  0.176781  -0.202706
    N  N4   0.016457  0.248019  0.823219  -0.202708
    C  C55  0.834310  0.607479  0.189747  -0.176781
    C  C56  0.165690  0.107479  0.810252  -0.176780
    H  H15  0.886039  0.572960  0.456527  0.108917
    H  H16  0.113961  0.072960  0.543472  0.108920
    H  H17  0.975010  0.655105  0.445585  0.029642
    H  H18  0.024990  0.155105  0.554415  0.029641
    H  H19  0.125597  0.756974  0.588903  0.123174
    H  H20  0.874403  0.256974  0.411097  0.123188
    H  H21  0.213355  0.840594  0.576614  0.098599
    H  H22  0.786645  0.340594  0.423386  0.098567
    C  C57  0.833288  0.652626  0.036128  -0.016417
    C  C58  0.166712  0.152626  0.963872  -0.016420
    C  C59  0.883294  0.698783  0.030094  -0.267159
    C  C60  0.116706  0.198783  0.969905  -0.267160
    H  H23  0.792761  0.652469  0.922984  0.109679
    H  H24  0.207239  0.152469  0.077016  0.109685
    H  H25  0.030714  0.834941  0.055505  0.027556
    H  H26  0.969286  0.334941  0.944495  0.027570
    H  H27  0.882123  0.734654  0.911435  0.119412
    H  H28  0.117877  0.234654  0.088565  0.119407
    H  H29  0.117977  0.918391  0.043816  0.108658
    H  H30  0.882023  0.418391  0.956184  0.108613
    C  C61  0.454551  0.535277  0.061930  -0.063612
    C  C62  0.486573  0.487763  0.166190  -0.050025
    C  C63  0.470838  0.427238  0.120614  -0.264362
    C  C64  0.422962  0.413926  0.971479  0.245626
    F  F1   0.407417  0.354425  0.927427  -0.092047
    C  C65  0.390391  0.461189  0.868823  -0.255694
    C  C66  0.405885  0.521744  0.914682  -0.105561
    H  H31  0.522172  0.497362  0.289100  0.111653
    H  H32  0.495640  0.390184  0.203375  0.128009
    H  H33  0.352635  0.450788  0.752350  0.144466
    H  H34  0.380474  0.558481  0.832262  0.112539
    C  C67  0.545449  0.035277  0.938070  -0.063618
    C  C68  0.513427  0.987763  0.833810  -0.050042
    C  C69  0.529163  0.927238  0.879385  -0.264366
    C  C70  0.577038  0.913926  0.028521  0.245638
    F  F2   0.592583  0.854425  0.072573  -0.092051
    C  C71  0.609609  0.961189  0.131177  -0.255716
    C  C72  0.594115  0.021744  0.085318  -0.105549
    H  H35  0.477828  0.997361  0.710900  0.111680
    H  H36  0.504360  0.890184  0.796625  0.128009
    H  H37  0.647365  0.950788  0.247650  0.144471
    H  H38  0.619526  0.058481  0.167738  0.112539
