# generated using pymatgen
data_CuH6C13NO4
_symmetry_space_group_name_H-M   'P 1'
_cell_length_a   8.48122500
_cell_length_b   9.16711400
_cell_length_c   13.05052300
_cell_angle_alpha   90.57607300
_cell_angle_beta   86.48047100
_cell_angle_gamma   93.28012100
_symmetry_Int_Tables_number   1
_chemical_formula_structural   CuH6C13NO4
_chemical_formula_sum   'Cu2 H12 C26 N2 O8'
_cell_volume   1011.06206738
_cell_formula_units_Z   2
loop_
 _symmetry_equiv_pos_site_id
 _symmetry_equiv_pos_as_xyz
  1  'x, y, z'
loop_
 _atom_site_type_symbol
 _atom_site_label
 _atom_site_symmetry_multiplicity
 _atom_site_fract_x
 _atom_site_fract_y
 _atom_site_fract_z
 _atom_site_occupancy
  Cu  Cu1  1  0.99419500  0.85355800  0.00493700  1
  Cu  Cu2  1  0.00669700  0.14201700  0.99668000  1
  H  H1  1  0.00531000  0.36760300  0.83705800  1
  H  H2  1  0.99314800  0.63445900  0.84265400  1
  H  H3  1  0.99569700  0.62797400  0.16456700  1
  H  H4  1  0.00835200  0.36118200  0.15895300  1
  H  H5  1  0.92795700  0.99154100  0.68743200  1
  H  H6  1  0.95930900  0.00060600  0.50248400  1
  H  H7  1  0.51208700  0.04285000  0.07286700  1
  H  H8  1  0.20705700  0.99255700  0.34019900  1
  H  H9  1  0.31234900  0.98899200  0.49808500  1
  H  H10  1  0.85311000  0.00065200  0.34030300  1
  H  H11  1  0.28520600  0.02405700  0.65315000  1
  H  H12  1  0.49557400  0.94436900  0.92765000  1
  C  C1  1  0.21193200  0.01084700  0.13565200  1
  C  C2  1  0.22656700  0.99330200  0.85593800  1
  C  C3  1  0.79100700  0.98378600  0.86385900  1
  C  C4  1  0.77805200  0.00333000  0.14863400  1
  C  C5  1  0.00395100  0.42460500  0.90999000  1
  C  C6  1  0.99542600  0.57447000  0.91336500  1
  C  C7  1  0.99699800  0.57097500  0.09163500  1
  C  C8  1  0.00568100  0.42112700  0.08825300  1
  C  C9  1  0.54063900  0.99857500  0.63684800  1
  C  C10  1  0.67391200  0.99194200  0.69339500  1
  C  C11  1  0.82331000  0.99537100  0.64459200  1
  C  C12  1  0.84168300  0.99983000  0.53948200  1
  C  C13  1  0.71145100  0.99950900  0.48164500  1
  C  C14  1  0.56036000  0.99927500  0.52927600  1
  C  C15  1  0.73441400  0.99921800  0.37562000  1
  C  C16  1  0.60690700  0.00095500  0.31526900  1
  C  C17  1  0.45600800  0.99888800  0.36224400  1
  C  C18  1  0.43286300  0.99543900  0.46754000  1
  C  C19  1  0.62634400  0.00846200  0.20887900  1
  C  C20  1  0.49600400  0.02550500  0.15389100  1
  C  C21  1  0.34620500  0.01557000  0.19990600  1
  C  C22  1  0.32546900  0.99976400  0.30421100  1
  C  C23  1  0.39220900  0.00604400  0.68993500  1
  C  C24  1  0.37756800  0.98875300  0.79510600  1
  C  C25  1  0.50874200  0.96539700  0.84696400  1
  C  C26  1  0.65672500  0.97804700  0.79892600  1
  N  N1  1  0.99127400  0.64597900  0.00410200  1
  N  N2  1  0.00960200  0.34959500  0.99752500  1
  O  O1  1  0.15150500  0.88322300  0.10676700  1
  O  O2  1  0.16751300  0.13222000  0.09678500  1
  O  O3  1  0.16645600  0.87157800  0.89815200  1
  O  O4  1  0.17529100  0.11991900  0.88770700  1
  O  O5  1  0.83576700  0.86276800  0.90299700  1
  O  O6  1  0.84882500  0.11169700  0.89450800  1
  O  O7  1  0.82595100  0.87645700  0.11451200  1
  O  O8  1  0.83778200  0.12477100  0.10587400  1
