# generated using pymatgen
data_CuH15C23NO15
_symmetry_space_group_name_H-M   'P 1'
_cell_length_a   19.33304500
_cell_length_b   18.11059800
_cell_length_c   10.77296300
_cell_angle_alpha   90.00000000
_cell_angle_beta   90.01664700
_cell_angle_gamma   90.00000000
_symmetry_Int_Tables_number   1
_chemical_formula_structural   CuH15C23NO15
_chemical_formula_sum   'Cu2 H30 C46 N2 O30'
_cell_volume   3771.96976070
_cell_formula_units_Z   2
loop_
 _symmetry_equiv_pos_site_id
 _symmetry_equiv_pos_as_xyz
  1  'x, y, z'
loop_
 _atom_site_type_symbol
 _atom_site_label
 _atom_site_symmetry_multiplicity
 _atom_site_fract_x
 _atom_site_fract_y
 _atom_site_fract_z
 _atom_site_occupancy
  Cu  Cu1  1  0.49972000  0.57484900  0.49840000  1
  Cu  Cu2  1  0.50058100  0.42681400  0.50043000  1
  H  H1  1  0.84239200  0.42958300  0.34073300  1
  H  H2  1  0.15560600  0.56632100  0.33838000  1
  H  H3  1  0.15697900  0.42669200  0.65626200  1
  H  H4  1  0.84384800  0.56459800  0.66595300  1
  H  H5  1  0.39060400  0.82763400  0.47014500  1
  H  H6  1  0.53467300  0.17525300  0.69009600  1
  H  H7  1  0.60898200  0.82715100  0.52596800  1
  H  H8  1  0.46333500  0.17492600  0.31411500  1
  H  H9  1  0.36577100  0.40952800  0.99199200  1
  H  H10  1  0.63620300  0.59275500  0.00724000  1
  H  H11  1  0.35862900  0.57997400  0.00927500  1
  H  H12  1  0.64296400  0.42258800  0.98919400  1
  H  H13  1  0.49364300  0.67167500  0.00007800  1
  H  H14  1  0.50790200  0.33070900  0.99726300  1
  H  H15  1  0.70889900  0.36990900  0.35270100  1
  H  H16  1  0.27017400  0.62738300  0.32537600  1
  H  H17  1  0.29012900  0.36716400  0.64270200  1
  H  H18  1  0.72668500  0.62641100  0.67725200  1
  H  H19  1  0.93525300  0.64953000  0.58629000  1
  H  H20  1  0.07319200  0.35451500  0.40404400  1
  H  H21  1  0.06488700  0.65045600  0.42233700  1
  H  H22  1  0.92604200  0.35341200  0.59250800  1
  H  H23  1  0.38566900  0.69641400  0.33856400  1
  H  H24  1  0.60548700  0.31011200  0.67908400  1
  H  H25  1  0.61325000  0.69522300  0.65950100  1
  H  H26  1  0.39146500  0.31005200  0.32851300  1
  H  H27  1  0.55954000  0.92734000  0.73660900  1
  H  H28  1  0.35817600  0.07395400  0.44179900  1
  H  H29  1  0.43853200  0.93070800  0.26413300  1
  H  H30  1  0.63961500  0.07406100  0.56416200  1
  C  C1  1  0.36711600  0.49979400  0.49801700  1
  C  C2  1  0.63296700  0.50088900  0.50018200  1
  C  C3  1  0.50141600  0.50085700  0.26086600  1
  C  C4  1  0.50026000  0.50124100  0.73734600  1
  C  C5  1  0.44467000  0.53215400  0.04118300  1
  C  C6  1  0.55708400  0.47012400  0.95732000  1
  C  C7  1  0.49813400  0.56952700  0.96066400  1
  C  C8  1  0.50356200  0.43281100  0.03778100  1
  C  C9  1  0.44695800  0.46526000  0.95792600  1
  C  C10  1  0.55465600  0.53701100  0.04052800  1
  C  C11  1  0.50050400  0.50226300  0.87544800  1
  C  C12  1  0.50120700  0.49988700  0.12250600  1
  C  C13  1  0.74455400  0.45997400  0.41379800  1
  C  C14  1  0.25518000  0.53874700  0.41082300  1
  C  C15  1  0.25599200  0.45743000  0.58557900  1
  C  C16  1  0.74528600  0.53821600  0.59162500  1
  C  C17  1  0.81584800  0.45964700  0.41309200  1
  C  C18  1  0.18361600  0.53683600  0.40973800  1
  C  C19  1  0.18462300  0.45724700  0.58589200  1
  C  C20  1  0.81632000  0.53659600  0.59244700  1
  C  C21  1  0.85226100  0.49816600  0.50230900  1
  C  C22  1  0.14800100  0.49700800  0.49821700  1
  C  C23  1  0.70883100  0.50045600  0.50123100  1
  C  C24  1  0.29145800  0.49899700  0.49860700  1
  C  C25  1  0.96440600  0.56354200  0.50325000  1
  C  C26  1  0.03572400  0.43154000  0.49910700  1
  C  C27  1  0.03576400  0.56343600  0.50171200  1
  C  C28  1  0.96438300  0.43153700  0.50037900  1
  C  C29  1  0.07192900  0.49738800  0.49981600  1
  C  C30  1  0.92825300  0.49762400  0.50234100  1
  C  C31  1  0.44178000  0.72527800  0.46907000  1
  C  C32  1  0.52480400  0.27789300  0.60003800  1
  C  C33  1  0.55749300  0.72472900  0.52522300  1
  C  C34  1  0.47352200  0.27767800  0.40478100  1
  C  C35  1  0.44008700  0.80077100  0.47894700  1
  C  C36  1  0.52042400  0.20154000  0.60397700  1
  C  C37  1  0.55924800  0.80100100  0.51494300  1
  C  C38  1  0.47806400  0.20208400  0.39918800  1
  C  C39  1  0.49980500  0.84115700  0.49872700  1
  C  C40  1  0.49893300  0.16180400  0.50160000  1
  C  C41  1  0.54479100  0.96333500  0.57489300  1
  C  C42  1  0.44985200  0.03954400  0.43477400  1
  C  C43  1  0.45343000  0.96362300  0.42699800  1
  C  C44  1  0.54828000  0.03941900  0.56722000  1
  C  C45  1  0.49901000  0.07942500  0.50096400  1
  C  C46  1  0.49904400  0.92356700  0.50060800  1
  N  N1  1  0.49965800  0.68580800  0.49678200  1
  N  N2  1  0.50027500  0.31610500  0.50135000  1
  O  O1  1  0.39933100  0.56345500  0.49551100  1
  O  O2  1  0.60091400  0.43740500  0.50711700  1
  O  O3  1  0.60036000  0.56414800  0.49360300  1
  O  O4  1  0.39995900  0.43682900  0.50202300  1
  O  O5  1  0.50178100  0.56465900  0.31799000  1
  O  O6  1  0.49701400  0.43790200  0.68073600  1
  O  O7  1  0.50289100  0.56437000  0.67870800  1
  O  O8  1  0.49981100  0.43734400  0.32006600  1
  O  O9  1  0.38918300  0.42665300  0.91550800  1
  O  O10  1  0.61242500  0.57547100  0.08326400  1
  O  O11  1  0.38431400  0.56531100  0.08488100  1
  O  O12  1  0.61737800  0.43701400  0.91336200  1
  O  O13  1  0.49499000  0.64289100  0.92199400  1
  O  O14  1  0.50699300  0.35934400  0.07553000  1
  O  O15  1  0.70935700  0.42186400  0.32407100  1
  O  O16  1  0.28921500  0.57675100  0.31996100  1
  O  O17  1  0.29114800  0.41857100  0.67387700  1
  O  O18  1  0.71080400  0.57460800  0.68384500  1
  O  O19  1  0.92983400  0.62944400  0.50134200  1
  O  O20  1  0.07035000  0.36584800  0.49381300  1
  O  O21  1  0.07030100  0.62918000  0.50645700  1
  O  O22  1  0.92995000  0.36561000  0.50318200  1
  O  O23  1  0.38332000  0.69164300  0.43002000  1
  O  O24  1  0.55541400  0.31296800  0.69771400  1
  O  O25  1  0.61622700  0.69118600  0.56796400  1
  O  O26  1  0.44148500  0.31327500  0.30955200  1
  O  O27  1  0.58693100  0.92897100  0.65899000  1
  O  O28  1  0.39523200  0.07378100  0.37835200  1
  O  O29  1  0.41179800  0.92928000  0.34248100  1
  O  O30  1  0.60184900  0.07376900  0.62622600  1
