# generated using pymatgen
data_CuH12C28N7O16
_symmetry_space_group_name_H-M   'P 1'
_cell_length_a   27.18784500
_cell_length_b   27.45810900
_cell_length_c   17.91186900
_cell_angle_alpha   90.00000000
_cell_angle_beta   90.00000000
_cell_angle_gamma   90.00000000
_symmetry_Int_Tables_number   1
_chemical_formula_structural   CuH12C28N7O16
_chemical_formula_sum   'Cu4 H48 C112 N28 O64'
_cell_volume   13371.69045231
_cell_formula_units_Z   4
loop_
 _symmetry_equiv_pos_site_id
 _symmetry_equiv_pos_as_xyz
  1  'x, y, z'
loop_
 _atom_site_type_symbol
 _atom_site_label
 _atom_site_symmetry_multiplicity
 _atom_site_fract_x
 _atom_site_fract_y
 _atom_site_fract_z
 _atom_site_occupancy
  Cu  Cu1  1  0.00001300  0.49956200  0.57480400  1
  Cu  Cu2  1  0.00006400  0.50042700  0.42568700  1
  Cu  Cu3  1  0.49987600  0.00022200  0.57429900  1
  Cu  Cu4  1  0.50020500  0.99967200  0.42520000  1
  H  H1  1  0.01679800  0.57505400  0.16600000  1
  H  H2  1  0.01650800  0.42536800  0.83476100  1
  H  H3  1  0.97751700  0.42653800  0.16687400  1
  H  H4  1  0.97814800  0.57404900  0.83331800  1
  H  H5  1  0.52120500  0.07342400  0.16643100  1
  H  H6  1  0.52179300  0.92645400  0.83245400  1
  H  H7  1  0.48269900  0.92472100  0.16548400  1
  H  H8  1  0.48246800  0.07490200  0.83479500  1
  H  H9  1  0.83680000  0.31275200  0.60572700  1
  H  H10  1  0.19419700  0.65059800  0.38271400  1
  H  H11  1  0.16410900  0.68611100  0.60807000  1
  H  H12  1  0.80625000  0.34993300  0.38061100  1
  H  H13  1  0.16410500  0.31402700  0.39186800  1
  H  H14  1  0.80668100  0.65096500  0.61914800  1
  H  H15  1  0.83742300  0.68753200  0.39429900  1
  H  H16  1  0.19304300  0.34805100  0.61843000  1
  H  H17  1  0.33745100  0.81306900  0.60789500  1
  H  H18  1  0.69361500  0.14978800  0.38048700  1
  H  H19  1  0.66223900  0.18829700  0.60484800  1
  H  H20  1  0.30684400  0.84760300  0.38257500  1
  H  H21  1  0.66340400  0.81256700  0.39448800  1
  H  H22  1  0.30637000  0.15060000  0.61706800  1
  H  H23  1  0.33721500  0.18680000  0.39162200  1
  H  H24  1  0.69420800  0.84943400  0.61934500  1
  H  H25  1  0.06506600  0.64875100  0.29566300  1
  H  H26  1  0.06347300  0.35035900  0.70649500  1
  H  H27  1  0.93707800  0.35041800  0.29913100  1
  H  H28  1  0.93778400  0.64976600  0.70034300  1
  H  H29  1  0.56249400  0.14954000  0.29778100  1
  H  H30  1  0.56211200  0.85019100  0.70230200  1
  H  H31  1  0.43548000  0.85088500  0.29549300  1
  H  H32  1  0.43419500  0.14858500  0.70414700  1
  H  H33  1  0.89866200  0.43028300  0.72321000  1
  H  H34  1  0.16040700  0.55396300  0.27195000  1
  H  H35  1  0.10122300  0.57012400  0.72529300  1
  H  H36  1  0.83833800  0.44734400  0.27187600  1
  H  H37  1  0.10093400  0.43052900  0.27533400  1
  H  H38  1  0.83895900  0.55368000  0.72854900  1
  H  H39  1  0.89833300  0.56990200  0.27734300  1
  H  H40  1  0.15938200  0.44388000  0.73007600  1
  H  H41  1  0.39962800  0.92964000  0.72440000  1
  H  H42  1  0.66061800  0.05309800  0.27169200  1
  H  H43  1  0.60097500  0.07133400  0.72351100  1
  H  H44  1  0.33877700  0.94496300  0.27151400  1
  H  H45  1  0.60227800  0.92933900  0.27596600  1
  H  H46  1  0.33898500  0.05427100  0.72758100  1
  H  H47  1  0.40024400  0.06939800  0.27544200  1
  H  H48  1  0.66069400  0.94756800  0.72810700  1
  C  C1  1  0.06930100  0.43548500  0.49970900  1
  C  C2  1  0.93073000  0.56447300  0.49976100  1
  C  C3  1  0.93043400  0.43587100  0.50039300  1
  C  C4  1  0.06954800  0.56425500  0.50112500  1
  C  C5  1  0.56979600  0.93599000  0.49967600  1
  C  C6  1  0.43055000  0.06426000  0.49891300  1
  C  C7  1  0.43079800  0.93546500  0.50018200  1
  C  C8  1  0.56933200  0.06443900  0.50020600  1
  C  C9  1  0.00885900  0.54181800  0.19579500  1
  C  C10  1  0.00842900  0.45846800  0.80482100  1
  C  C11  1  0.98668600  0.45963500  0.19639500  1
  C  C12  1  0.98678700  0.54077600  0.80393800  1
  C  C13  1  0.51271900  0.04029200  0.19604000  1
  C  C14  1  0.51268300  0.95958700  0.80341300  1
  C  C15  1  0.49088300  0.95803900  0.19507000  1
  C  C16  1  0.49044200  0.04173500  0.80446200  1
  C  C17  1  0.00998700  0.54205000  0.27284400  1
  C  C18  1  0.00946300  0.45804500  0.72775200  1
  C  C19  1  0.98803800  0.45933700  0.27354500  1
  C  C20  1  0.98806300  0.54092900  0.72685200  1
  C  C21  1  0.51190100  0.04052800  0.27315100  1
  C  C22  1  0.51172100  0.95933200  0.72639900  1
  C  C23  1  0.49011500  0.95777900  0.27222800  1
  C  C24  1  0.48951700  0.04198100  0.72726400  1
  C  C25  1  0.87638000  0.37290900  0.56309200  1
  C  C26  1  0.14045600  0.60589500  0.43695000  1
  C  C27  1  0.12374100  0.62664900  0.56468600  1
  C  C28  1  0.85956500  0.39428800  0.43574400  1
  C  C29  1  0.12366000  0.37339600  0.43569300  1
  C  C30  1  0.86000600  0.60634800  0.56449500  1
  C  C31  1  0.87693100  0.62754500  0.43713800  1
  C  C32  1  0.13986800  0.39329900  0.56389700  1
  C  C33  1  0.37737100  0.87266700  0.56397800  1
  C  C34  1  0.64008200  0.10615500  0.43564300  1
  C  C35  1  0.62280500  0.12795200  0.56272100  1
  C  C36  1  0.36013300  0.89319000  0.43633000  1
  C  C37  1  0.62345000  0.87267700  0.43727400  1
  C  C38  1  0.35998000  0.10629300  0.56298100  1
  C  C39  1  0.37660000  0.12678900  0.43500800  1
  C  C40  1  0.64088600  0.89452200  0.56417500  1
  C  C41  1  0.84436700  0.33433100  0.55662600  1
  C  C42  1  0.17212200  0.64531200  0.43217300  1
  C  C43  1  0.15618500  0.66492400  0.55876700  1
  C  C44  1  0.82804600  0.35479700  0.43044000  1
  C  C45  1  0.15607900  0.33505200  0.44140400  1
  C  C46  1  0.82873000  0.64602200  0.56966100  1
  C  C47  1  0.84511500  0.66623300  0.44350500  1
  C  C48  1  0.17148900  0.35380400  0.56848400  1
  C  C49  1  0.34526200  0.83411500  0.55833600  1
  C  C50  1  0.67147300  0.14568900  0.43014300  1
  C  C51  1  0.65470400  0.16658000  0.55599800  1
  C  C52  1  0.32880700  0.85350600  0.43191000  1
  C  C53  1  0.65568900  0.83418900  0.44358900  1
  C  C54  1  0.32827200  0.14567900  0.56745200  1
  C  C55  1  0.34463900  0.16545500  0.44092400  1
  C  C56  1  0.67218000  0.85479800  0.56969600  1
  C  C57  1  0.82067000  0.32444300  0.49055900  1
  C  C58  1  0.17970800  0.67512900  0.49271300  1
  C  C59  1  0.17948900  0.32445800  0.50743700  1
  C  C60  1  0.82164300  0.67642000  0.50958200  1
  C  C61  1  0.32175200  0.82354300  0.49244300  1
  C  C62  1  0.67856000  0.17633600  0.49003400  1
  C  C63  1  0.67942100  0.82441300  0.50967500  1
  C  C64  1  0.32095700  0.17570000  0.50688500  1
  C  C65  1  0.99611400  0.49997200  0.92556000  1
  C  C66  1  0.99637200  0.50047100  0.07497300  1
  C  C67  1  0.50214400  0.00025300  0.92505900  1
  C  C68  1  0.50232600  0.99967900  0.07440200  1
  C  C69  1  0.88788400  0.40131900  0.50034700  1
  C  C70  1  0.11217900  0.59859800  0.50157900  1
  C  C71  1  0.11190500  0.40111400  0.49910000  1
  C  C72  1  0.88829600  0.59914800  0.49989200  1
  C  C73  1  0.38837500  0.90095600  0.50080700  1
  C  C74  1  0.61176000  0.09913900  0.50025700  1
  C  C75  1  0.61229800  0.90137300  0.49980200  1
  C  C76  1  0.38798500  0.09869400  0.49825800  1
  C  C77  1  0.21673700  0.71393900  0.49077400  1
  C  C78  1  0.78375100  0.28546700  0.48854600  1
  C  C79  1  0.78481800  0.71542000  0.51155600  1
  C  C80  1  0.21643600  0.28543600  0.50901800  1
  C  C81  1  0.71561900  0.21516200  0.48816700  1
  C  C82  1  0.28505500  0.78424000  0.49083200  1
  C  C83  1  0.28441400  0.21492200  0.50884200  1
  C  C84  1  0.71649600  0.78557000  0.51175000  1
  C  C85  1  0.99716800  0.50072700  0.15686300  1
  C  C86  1  0.99691600  0.49965700  0.84361800  1
  C  C87  1  0.50185800  0.99934500  0.15628000  1
  C  C88  1  0.50170000  0.00058000  0.84316700  1
  C  C89  1  0.02413800  0.58953300  0.30429800  1
  C  C90  1  0.02350300  0.41037700  0.69632400  1
  C  C91  1  0.97571500  0.41157300  0.30636800  1
  C  C92  1  0.97601300  0.58865500  0.69400100  1
  C  C93  1  0.52418700  0.08821800  0.30589300  1
  C  C94  1  0.52443000  0.91157800  0.69380700  1
  C  C95  1  0.47606100  0.91017000  0.30376200  1
  C  C96  1  0.47543100  0.08941400  0.69556200  1
  C  C97  1  0.89294800  0.38343500  0.63947000  1
  C  C98  1  0.14360700  0.56950900  0.37666600  1
  C  C99  1  0.10626500  0.61632300  0.64065800  1
  C  C100  1  0.85582000  0.43123600  0.37640800  1
  C  C101  1  0.10638400  0.38395600  0.35956600  1
  C  C102  1  0.85604200  0.56954900  0.62397100  1
  C  C103  1  0.89342700  0.61683500  0.36085200  1
  C  C104  1  0.14265200  0.42922700  0.62483400  1
  C  C105  1  0.39448300  0.88320600  0.64022100  1
  C  C106  1  0.64407100  0.06921300  0.37619500  1
  C  C107  1  0.60605300  0.11776200  0.63898600  1
  C  C108  1  0.35644200  0.92954100  0.37639600  1
  C  C109  1  0.60652400  0.88309500  0.36091500  1
  C  C110  1  0.35669600  0.06981500  0.62325800  1
  C  C111  1  0.39391600  0.11623600  0.35901500  1
  C  C112  1  0.64469100  0.93148700  0.62328900  1
  N  N1  1  0.00023600  0.50057700  0.31340400  1
  N  N2  1  0.99979900  0.49953700  0.68708700  1
  N  N3  1  0.50022000  0.99910400  0.31291200  1
  N  N4  1  0.49980800  0.00064000  0.68659200  1
  N  N5  1  0.99600200  0.45800600  0.03751700  1
  N  N6  1  0.99621900  0.54246400  0.96305300  1
  N  N7  1  0.99651300  0.54267500  0.03683600  1
  N  N8  1  0.99606900  0.45779100  0.96370700  1
  N  N9  1  0.50250900  0.95750600  0.03608500  1
  N  N10  1  0.50199600  0.04245200  0.96337300  1
  N  N11  1  0.50227200  0.04219200  0.03716700  1
  N  N12  1  0.50258500  0.95776700  0.96231800  1
  N  N13  1  0.76670700  0.26765100  0.42338700  1
  N  N14  1  0.23398300  0.73182200  0.55546300  1
  N  N15  1  0.23411900  0.73157000  0.42570100  1
  N  N16  1  0.76627700  0.26774600  0.55314300  1
  N  N17  1  0.23346300  0.26735700  0.57403500  1
  N  N18  1  0.76716700  0.73300500  0.44693000  1
  N  N19  1  0.76790100  0.73334600  0.57670500  1
  N  N20  1  0.23404800  0.26800200  0.44425800  1
  N  N21  1  0.26774700  0.76652600  0.42575900  1
  N  N22  1  0.73263300  0.23317600  0.55290200  1
  N  N23  1  0.73318900  0.23262800  0.42315700  1
  N  N24  1  0.26771000  0.76634800  0.55553600  1
  N  N25  1  0.73426400  0.76828800  0.57681400  1
  N  N26  1  0.26763700  0.23334600  0.44420900  1
  N  N27  1  0.26689800  0.23225900  0.57398200  1
  N  N28  1  0.73343200  0.76746300  0.44706200  1
  O  O1  1  0.05009800  0.44896600  0.56368900  1
  O  O2  1  0.95084800  0.55173200  0.43644400  1
  O  O3  1  0.94780600  0.54788800  0.56345500  1
  O  O4  1  0.05152200  0.45132100  0.43647300  1
  O  O5  1  0.94759500  0.45234000  0.43665000  1
  O  O6  1  0.05168700  0.54846400  0.56429000  1
  O  O7  1  0.05030400  0.55083400  0.43714800  1
  O  O8  1  0.95062100  0.44843800  0.56379200  1
  O  O9  1  0.55268800  0.95225500  0.56340500  1
  O  O10  1  0.44847700  0.04868700  0.43564100  1
  O  O11  1  0.44970000  0.05047500  0.56290300  1
  O  O12  1  0.54933000  0.94846600  0.43638800  1
  O  O13  1  0.44994500  0.94918800  0.43624000  1
  O  O14  1  0.54909600  0.05157000  0.56342500  1
  O  O15  1  0.55246800  0.04787700  0.43645400  1
  O  O16  1  0.44866700  0.95093800  0.56355100  1
  O  O17  1  0.00029100  0.60879400  0.35344800  1
  O  O18  1  0.06128800  0.61615700  0.26997400  1
  O  O19  1  0.99980300  0.39131900  0.64682300  1
  O  O20  1  0.05981100  0.38313000  0.73175400  1
  O  O21  1  0.99988300  0.39413700  0.35673300  1
  O  O22  1  0.94000400  0.38278600  0.27240000  1
  O  O23  1  0.00006600  0.60574600  0.64327500  1
  O  O24  1  0.94034200  0.61758900  0.72761500  1
  O  O25  1  0.50015400  0.10559900  0.35643200  1
  O  O26  1  0.55990300  0.11686200  0.27181600  1
  O  O27  1  0.50053600  0.89403700  0.64324500  1
  O  O28  1  0.56035800  0.88307400  0.72769600  1
  O  O29  1  0.49978300  0.89099800  0.35313700  1
  O  O30  1  0.43930200  0.88319700  0.26911900  1
  O  O31  1  0.49907800  0.10856200  0.64609600  1
  O  O32  1  0.43888000  0.11640200  0.73071000  1
  O  O33  1  0.90497800  0.35000300  0.68042100  1
  O  O34  1  0.88770800  0.42997000  0.66922200  1
  O  O35  1  0.13861200  0.52631600  0.39042300  1
  O  O36  1  0.15850300  0.58352300  0.30555800  1
  O  O37  1  0.09323100  0.64979400  0.68078600  1
  O  O38  1  0.11214100  0.57009900  0.67128700  1
  O  O39  1  0.85832600  0.47442700  0.39177100  1
  O  O40  1  0.84224000  0.41751300  0.30451500  1
  O  O41  1  0.09331400  0.35059400  0.31919900  1
  O  O42  1  0.11223200  0.43025500  0.32917800  1
  O  O43  1  0.85866400  0.52633700  0.60885400  1
  O  O44  1  0.84244800  0.58346400  0.69574700  1
  O  O45  1  0.90527100  0.65011900  0.31952600  1
  O  O46  1  0.88793200  0.57022300  0.33154700  1
  O  O47  1  0.13808900  0.47256100  0.61170200  1
  O  O48  1  0.15732100  0.41464100  0.69580900  1
  O  O49  1  0.40764400  0.84983500  0.68062700  1
  O  O50  1  0.38840300  0.92947300  0.67059500  1
  O  O51  1  0.64130800  0.02598100  0.39130200  1
  O  O52  1  0.65765200  0.08298800  0.30432500  1
  O  O53  1  0.59312100  0.15124000  0.67909700  1
  O  O54  1  0.61142800  0.07138300  0.66926800  1
  O  O55  1  0.36072300  0.97271200  0.39060000  1
  O  O56  1  0.34172600  0.91548000  0.30521800  1
  O  O57  1  0.59480500  0.84946200  0.32011300  1
  O  O58  1  0.61207500  0.92949300  0.33052000  1
  O  O59  1  0.36059000  0.02653000  0.60916900  1
  O  O60  1  0.34181100  0.08389700  0.69434400  1
  O  O61  1  0.40727900  0.14950600  0.31878100  1
  O  O62  1  0.38796700  0.06992300  0.32875600  1
  O  O63  1  0.64151600  0.97466700  0.60825500  1
  O  O64  1  0.65808000  0.91775600  0.69510900  1
