# Generated by REPEAT Assigner based on pymatgen
data_DB0-m29_o96_o102_f0_pts.sym.95
_audit_creation_date              2022-05-24
_audit_creation_method            REPEAT_Assigner
_cell_length_a                    17.335869
_cell_length_b                    14.282900
_cell_length_c                    17.268688
_cell_angle_alpha                 91.025136
_cell_angle_beta                  91.012514
_cell_angle_gamma                 109.598394
_cell_volume                      4026.209440
_symmetry_space_group_name_H-M    P1
_symmetry_Int_Tables_number       1
loop_
    _symmetry_equiv_pos_site_id
    _symmetry_equiv_pos_as_xyz
    1  x,y,z
loop_
    _atom_site_type_symbol
    _atom_site_label
    _atom_site_fract_x
    _atom_site_fract_y
    _atom_site_fract_z
    _atom_type_partial_charge
    C   C1   0.207578  0.997157  0.120800  0.050050
    C   C2   0.152470  0.966952  0.178449  -0.244598
    C   C3   0.077463  0.965784  0.147732  0.502051
    N   N1   0.085555  0.991858  0.072722  -0.579181
    C   C4   0.165019  0.010313  0.055915  0.447501
    C   C5   0.007697  0.946874  0.186060  -0.352712
    C   C6   0.934057  0.963966  0.155514  0.166734
    C   C7   0.879804  0.990327  0.201016  0.126022
    C   C8   0.817550  0.994723  0.154162  -0.067559
    C   C9   0.835136  0.971743  0.079806  0.265530
    N   N2   0.906263  0.951833  0.081254  -0.214474
    C   C10  0.784614  0.970930  0.010275  -0.422128
    C   C11  0.816161  0.992542  0.940218  0.382654
    C   C12  0.774314  0.006823  0.875223  0.033397
    C   C13  0.830256  0.037713  0.818883  0.001867
    C   C14  0.904300  0.037561  0.849256  0.360447
    N   N3   0.895830  0.010748  0.924005  -0.514794
    C   C15  0.972632  0.054460  0.809207  -0.393879
    C   C16  0.047417  0.039208  0.839318  0.172312
    C   C17  0.102944  0.015372  0.793751  0.070439
    C   C18  0.165041  0.010762  0.840872  -0.003488
    C   C19  0.145996  0.030936  0.915532  0.208288
    N   N4   0.074312  0.049504  0.913908  -0.169863
    C   C20  0.196111  0.031335  0.985428  -0.443900
    H   H1   0.005692  0.927251  0.245863  0.124966
    H   H2   0.721120  0.963560  0.018284  0.193759
    H   H3   0.970917  0.070731  0.748463  0.164853
    H   H4   0.259626  0.039100  0.977234  0.207567
    H   H5   0.932202  0.925640  0.035399  0.266932
    H   H6   0.047467  0.073633  0.960128  0.282909
    C   C21  0.101565  0.996594  0.715516  -0.152518
    C   C22  0.166995  0.975276  0.684910  -0.154017
    C   C23  0.232659  0.973329  0.731982  0.079522
    C   C24  0.231451  0.989903  0.811658  -0.133410
    C   C25  0.289772  0.011438  0.132390  -0.268970
    C   C26  0.314812  0.989281  0.204155  0.132869
    C   C27  0.258338  0.953958  0.261764  -0.321534
    C   C28  0.177314  0.945494  0.250789  0.414964
    C   C29  0.882505  0.011535  0.278985  -0.174088
    C   C30  0.818084  0.035062  0.309580  -0.126205
    C   C31  0.752338  0.036967  0.262649  0.063320
    C   C32  0.752311  0.018007  0.183253  -0.109279
    C   C33  0.692639  0.993502  0.861734  -0.244121
    C   C34  0.669893  0.016735  0.789190  0.093824
    C   C35  0.728314  0.052916  0.732959  -0.131716
    C   C36  0.809155  0.062059  0.746902  -0.179115
    H   H7   0.051556  0.998713  0.678191  0.133229
    H   H8   0.281697  0.988815  0.849102  0.138141
    H   H9   0.333846  0.039211  0.087668  0.144305
    H   H10  0.278411  0.938811  0.318319  0.193096
    H   H11  0.932744  0.009613  0.316096  0.143870
    H   H12  0.701909  0.018910  0.145950  0.139488
    H   H13  0.647368  0.965461  0.905432  0.146437
    H   H14  0.710305  0.069904  0.676135  0.168144
    H   H15  0.853340  0.087718  0.701975  0.134041
    H   H16  0.166756  0.962178  0.623111  0.153795
    H   H17  0.819088  0.049829  0.371223  0.139035
    O   O1   0.613494  0.041090  0.259848  -0.576420
    C   C37  0.680995  0.050262  0.299732  0.551882
    O   O2   0.539386  0.842671  0.324460  -0.530521
    O   O3   0.679841  0.055723  0.375603  -0.532945
    O   O4   0.512448  0.931018  0.423112  -0.465072
    C   C38  0.523585  0.849498  0.397963  0.564504
    Fe  Fe1  0.524364  0.020386  0.334533  1.490302
    O   O5   0.418415  0.953397  0.276288  -0.664319
    O   O6   0.456177  0.093143  0.204878  -0.551285
    C   C39  0.401013  0.008989  0.223919  0.648820
    O   O7   0.548816  0.158346  0.378976  -0.582173
    O   O8   0.423176  0.077804  0.425993  -0.508822
    C   C40  0.488286  0.158030  0.423945  0.571102
    C   C41  0.518512  0.677908  0.412194  -0.247640
    C   C42  0.513000  0.763163  0.447623  0.023745
    C   C43  0.494056  0.761731  0.525936  0.017774
    C   C44  0.478352  0.674130  0.565355  -0.206378
    C   C45  0.484646  0.589769  0.529230  0.156106
    C   C46  0.505327  0.591260  0.452498  0.216210
    C   C47  0.471588  0.504339  0.570522  -0.294829
    C   C48  0.478792  0.420107  0.535432  0.130576
    C   C49  0.499276  0.420440  0.458728  0.250057
    C   C50  0.512538  0.506346  0.416734  -0.293757
    C   C51  0.465717  0.335650  0.577945  -0.110059
    C   C52  0.471125  0.249155  0.544646  -0.133047
    C   C53  0.489521  0.248421  0.466354  0.160815
    C   C54  0.505104  0.334207  0.424807  -0.350876
    H   H18  0.533419  0.680101  0.351892  0.118730
    H   H19  0.464254  0.672981  0.626125  0.164447
    H   H20  0.455727  0.503486  0.630816  0.170255
    H   H21  0.451319  0.338517  0.638324  0.132956
    H   H22  0.518775  0.329965  0.364405  0.172043
    C   C55  0.474416  0.482462  0.277589  0.492130
    H   H23  0.410661  0.462267  0.292339  0.029087
    N   N5   0.495561  0.483549  0.202966  -0.714620
    C   C56  0.574867  0.508607  0.184097  0.738049
    H   H24  0.591001  0.509175  0.123891  0.001919
    N   N6   0.634220  0.532951  0.239690  -0.741557
    C   C57  0.615225  0.532629  0.314882  0.505878
    H   H25  0.663149  0.552232  0.359204  0.015705
    C   C58  0.534406  0.507204  0.335119  -0.088566
    O   O9   0.567459  0.055726  0.716850  -0.663882
    O   O10  0.528117  0.914008  0.785876  -0.573080
    C   C59  0.584114  0.998047  0.767925  0.656017
    O   O11  0.434818  0.853692  0.612692  -0.576415
    O   O12  0.562671  0.930863  0.569140  -0.517478
    C   C60  0.496415  0.851899  0.569850  0.579895
    O   O13  0.444690  0.172156  0.668769  -0.549358
    O   O14  0.372307  0.970406  0.734214  -0.564767
    C   C61  0.304690  0.961846  0.694636  0.542199
    O   O15  0.473326  0.082506  0.571399  -0.482315
    C   C62  0.461210  0.164057  0.595609  0.615417
    O   O16  0.305854  0.957413  0.618730  -0.547261
    Fe  Fe2  0.460888  0.991232  0.658792  1.499623
    N   N7   0.124059  0.916043  0.313317  -0.647654
    C   C63  0.123843  0.993112  0.359667  0.878980
    O   O17  0.146619  0.077258  0.335070  -0.588544
    C   C64  0.095194  0.976215  0.440847  -0.629872
    H   H26  0.128032  0.856076  0.343182  0.307471
    H   H27  0.074619  0.895954  0.453818  0.136331
    H   H28  0.043297  0.004176  0.448532  0.166864
    H   H29  0.146040  0.017263  0.481464  0.182816
