# Generated by REPEAT Assigner based on pymatgen
data_DB0-m3_o160_o51_f0_fsc.sym.24_sqe
_audit_creation_date              2022-05-24
_audit_creation_method            REPEAT_Assigner
_cell_length_a                    8.503989
_cell_length_b                    13.021238
_cell_length_c                    13.414072
_cell_angle_alpha                 90.590209
_cell_angle_beta                  90.522897
_cell_angle_gamma                 93.514315
_cell_volume                      1482.430477
_symmetry_space_group_name_H-M    P1
_symmetry_Int_Tables_number       1
loop_
    _symmetry_equiv_pos_site_id
    _symmetry_equiv_pos_as_xyz
    1  x,y,z
loop_
    _atom_site_type_symbol
    _atom_site_label
    _atom_site_fract_x
    _atom_site_fract_y
    _atom_site_fract_z
    _atom_type_partial_charge
    C   C1   0.160970  0.700099  0.022856  -0.203797
    C   C2   0.175222  0.802841  0.998553  -0.019444
    C   C3   0.040213  0.856993  0.987017  0.262901
    C   C4   0.892297  0.805427  0.993974  -0.220648
    H   H1   0.785868  0.845481  0.984269  0.150167
    C   C5   0.880899  0.702621  0.019961  -0.079724
    C   C6   0.015121  0.652657  0.036960  -0.153709
    C   C7   0.057505  0.969902  0.980963  -0.260029
    C   C8   0.952118  0.027579  0.937484  -0.048404
    H   H2   0.154165  0.007450  0.023069  0.119631
    H   H3   0.847257  0.992088  0.902026  0.117546
    C   C9   0.831801  0.192719  0.965624  -0.108429
    C   C10  0.844615  0.291728  0.003565  -0.075227
    C   C11  0.990122  0.334495  0.031731  -0.153519
    C   C12  0.125249  0.289537  0.004125  -0.075140
    C   C13  0.113451  0.192838  0.959826  0.062225
    C   C14  0.966580  0.140020  0.952036  0.032119
    H   H4   0.005399  0.572407  0.053692  0.091493
    H   H5   0.716858  0.155162  0.951085  0.111463
    H   H6   0.999178  0.409998  0.064459  0.149399
    O   O1   0.339081  0.602109  0.933143  -0.793547
    O   O2   0.348340  0.601344  0.104648  -0.820843
    C   C15  0.293978  0.634862  0.020276  1.170576
    O   O3   0.325889  0.388068  0.095120  -0.683448
    O   O4   0.328549  0.388629  0.922475  -0.613344
    C   C16  0.271910  0.354540  0.007629  0.692025
    O   O5   0.666059  0.390246  0.094649  -0.714735
    O   O6   0.656365  0.390880  0.922257  -0.661712
    C   C17  0.710394  0.356781  0.007190  0.866372
    O   O7   0.679460  0.604399  0.932504  -0.804521
    O   O8   0.677137  0.604018  0.103985  -0.836580
    C   C18  0.732627  0.639319  0.019070  1.146540
    Zn  Zn1  0.504770  0.493127  0.124744  1.057499
    Zn  Zn2  0.500587  0.499700  0.902336  0.989724
    C   C19  0.516309  0.416488  0.720116  -0.384737
    N   N1   0.498631  0.504844  0.771441  0.231483
    C   C20  0.469235  0.591406  0.720599  -0.178371
    C   C21  0.466885  0.590977  0.618051  -0.049262
    C   C22  0.495629  0.503121  0.564528  -0.275674
    C   C23  0.514906  0.414281  0.616867  0.735514
    C   C24  0.497995  0.588718  0.403604  -0.278963
    C   C25  0.501650  0.500903  0.460775  0.342544
    C   C26  0.515853  0.407980  0.412410  -0.093703
    C   C27  0.529888  0.320029  0.467558  0.308841
    N   N2   0.531274  0.324793  0.567930  -0.654524
    C   C28  0.501600  0.581323  0.301554  -0.068447
    N   N3   0.506838  0.489524  0.255412  0.183904
    C   C29  0.516601  0.403167  0.309079  -0.176165
    H   H7   0.524995  0.330062  0.271196  0.157159
    H   H8   0.542193  0.247015  0.430258  0.092692
    H   H9   0.440083  0.661548  0.582851  0.142410
    H   H10  0.497046  0.665085  0.434581  0.180338
    H   H11  0.530700  0.345725  0.759500  0.238229
    H   H12  0.500383  0.650874  0.258475  0.182195
    N   N4   0.248008  0.149936  0.916976  0.500562
    O   O9   0.389678  0.182587  0.944059  -0.348679
    O   O10  0.228646  0.085872  0.842291  -0.325975
    N   N5   0.328130  0.852065  0.984664  0.583390
    O   O11  0.348946  0.923812  0.918678  -0.314658
    O   O12  0.450286  0.817140  0.028918  -0.456728
    N   N6   0.433960  0.684604  0.770169  0.653937
    O   O13  0.535730  0.729417  0.831680  -0.253146
    O   O14  0.323170  0.738113  0.733746  -0.367046
