# generated using pymatgen
data_CuH8C15I2N3O4
_symmetry_space_group_name_H-M   'P 1'
_cell_length_a   11.16051700
_cell_length_b   15.55770800
_cell_length_c   17.15309700
_cell_angle_alpha   96.30448700
_cell_angle_beta   90.75317700
_cell_angle_gamma   80.57681500
_symmetry_Int_Tables_number   1
_chemical_formula_structural   CuH8C15I2N3O4
_chemical_formula_sum   'Cu2 H16 C30 I4 N6 O8'
_cell_volume   2920.33377092
_cell_formula_units_Z   2
loop_
 _symmetry_equiv_pos_site_id
 _symmetry_equiv_pos_as_xyz
  1  'x, y, z'
loop_
 _atom_site_type_symbol
 _atom_site_label
 _atom_site_symmetry_multiplicity
 _atom_site_fract_x
 _atom_site_fract_y
 _atom_site_fract_z
 _atom_site_occupancy
  Cu  Cu1  1  0.49504900  0.41448700  0.49567500  1
  Cu  Cu2  1  0.50493900  0.58579800  0.50409200  1
  H  H1  1  0.89125900  0.57901900  0.50178200  1
  H  H2  1  0.10882900  0.42131900  0.49880000  1
  H  H3  1  0.91008300  0.37984400  0.49774900  1
  H  H4  1  0.08966100  0.62054600  0.50336000  1
  H  H5  1  0.49505800  0.37703000  0.73893200  1
  H  H6  1  0.50063200  0.62373300  0.26084200  1
  H  H7  1  0.47676100  0.35210600  0.24528900  1
  H  H8  1  0.52395500  0.64795900  0.75471600  1
  H  H9  1  0.62129700  0.26438000  0.57653700  1
  H  H10  1  0.37738100  0.73663400  0.42388700  1
  H  H11  1  0.61453400  0.10982800  0.57202400  1
  H  H12  1  0.38471000  0.89105800  0.42817400  1
  H  H13  1  0.65591000  0.86423500  0.60721600  1
  H  H14  1  0.34434900  0.13556600  0.39237000  1
  H  H15  1  0.64356100  0.70791600  0.59910600  1
  H  H16  1  0.35656000  0.29208200  0.40026500  1
  C  C1  1  0.49950600  0.49134800  0.34922600  1
  C  C2  1  0.49975700  0.50907900  0.65058200  1
  C  C3  1  0.26658800  0.53342100  0.50103500  1
  C  C4  1  0.73310500  0.46694700  0.49903900  1
  C  C5  1  0.13361500  0.55291400  0.50179600  1
  C  C6  1  0.86618000  0.44746000  0.49898100  1
  C  C7  1  0.06643000  0.48930400  0.50033300  1
  C  C8  1  0.93348600  0.51102900  0.50050000  1
  C  C9  1  0.49609500  0.48728600  0.26326400  1
  C  C10  1  0.50329900  0.51302500  0.73657100  1
  C  C11  1  0.49745100  0.56155100  0.22662000  1
  C  C12  1  0.50045000  0.43886900  0.77314700  1
  C  C13  1  0.48770300  0.56020500  0.14612600  1
  C  C14  1  0.51066400  0.43983900  0.85360000  1
  C  C15  1  0.48064500  0.48131600  0.09939500  1
  C  C16  1  0.51938200  0.51836800  0.90043000  1
  C  C17  1  0.47386000  0.40785900  0.13791200  1
  C  C18  1  0.52709700  0.59175800  0.86203400  1
  C  C19  1  0.48295300  0.41078600  0.21829900  1
  C  C20  1  0.51759000  0.58922700  0.78164600  1
  C  C21  1  0.43833000  0.76513500  0.46469200  1
  C  C22  1  0.56085200  0.23555400  0.53546000  1
  C  C23  1  0.44325100  0.85347900  0.46736300  1
  C  C24  1  0.55589500  0.14726500  0.53289300  1
  C  C25  1  0.52262800  0.89018700  0.51872700  1
  C  C26  1  0.47687900  0.11031300  0.48141300  1
  C  C27  1  0.59349200  0.83719700  0.56659900  1
  C  C28  1  0.40628000  0.16301200  0.43321400  1
  C  C29  1  0.58630100  0.74922500  0.56214400  1
  C  C30  1  0.41369400  0.25095500  0.43741600  1
  I  I1  1  0.53755800  0.31279800  0.88923300  1
  I  I2  1  0.45922100  0.68704400  0.11002600  1
  I  I3  1  0.44182500  0.28779000  0.07986200  1
  I  I4  1  0.56166100  0.71094100  0.92041000  1
  N  N1  1  0.47372600  0.47359400  0.01553900  1
  N  N2  1  0.52665200  0.52589900  0.98426100  1
  N  N3  1  0.51083000  0.71419700  0.51046600  1
  N  N4  1  0.48825400  0.28629900  0.48947100  1
  N  N5  1  0.53356000  0.97997500  0.52351100  1
  N  N6  1  0.46627800  0.02048600  0.47669000  1
  O  O1  1  0.49155800  0.42042400  0.38242600  1
  O  O2  1  0.50800600  0.57988900  0.61733700  1
  O  O3  1  0.50802000  0.56650800  0.38970400  1
  O  O4  1  0.49155000  0.43394600  0.61005600  1
  O  O5  1  0.31949600  0.45184300  0.49983800  1
  O  O6  1  0.68009400  0.54857000  0.49995700  1
  O  O7  1  0.32728500  0.59880000  0.50156000  1
  O  O8  1  0.67227400  0.40151300  0.49821500  1
