# generated using pymatgen
data_CuH18C31N4(ClO2)2
_symmetry_space_group_name_H-M   'P 1'
_cell_length_a   23.90038300
_cell_length_b   24.16280700
_cell_length_c   15.53627400
_cell_angle_alpha   90.00000000
_cell_angle_beta   99.14683600
_cell_angle_gamma   90.00000000
_symmetry_Int_Tables_number   1
_chemical_formula_structural   CuH18C31N4(ClO2)2
_chemical_formula_sum   'Cu4 H72 C124 N16 Cl8 O16'
_cell_volume   8858.11472324
_cell_formula_units_Z   4
loop_
 _symmetry_equiv_pos_site_id
 _symmetry_equiv_pos_as_xyz
  1  'x, y, z'
loop_
 _atom_site_type_symbol
 _atom_site_label
 _atom_site_symmetry_multiplicity
 _atom_site_fract_x
 _atom_site_fract_y
 _atom_site_fract_z
 _atom_site_occupancy
  Cu  Cu1  1  0.49475500  0.00051400  0.41313900  1
  Cu  Cu2  1  0.50538400  0.00011100  0.58707300  1
  Cu  Cu3  1  0.99468600  0.50101100  0.41311400  1
  Cu  Cu4  1  0.00531900  0.50085800  0.58704500  1
  H  H1  1  0.60701500  0.13128300  0.37505200  1
  H  H2  1  0.39104900  0.87130600  0.62547900  1
  H  H3  1  0.39804600  0.13616000  0.62621800  1
  H  H4  1  0.61064200  0.87298900  0.37230700  1
  H  H5  1  0.10641300  0.63200900  0.37445200  1
  H  H6  1  0.89177600  0.37111400  0.62594200  1
  H  H7  1  0.89020100  0.62938000  0.62709300  1
  H  H8  1  0.10564300  0.36797100  0.37419900  1
  H  H9  1  0.26931300  0.82924800  0.34813100  1
  H  H10  1  0.73104900  0.17182800  0.65086300  1
  H  H11  1  0.69364200  0.79234900  0.65370500  1
  H  H12  1  0.27184300  0.17344300  0.35110400  1
  H  H13  1  0.77007200  0.32859000  0.34878800  1
  H  H14  1  0.23069100  0.67259800  0.65004000  1
  H  H15  1  0.22795300  0.32816000  0.65201000  1
  H  H16  1  0.80540100  0.70758400  0.34476700  1
  H  H17  1  0.34719000  0.89465600  0.35048200  1
  H  H18  1  0.65387300  0.10562500  0.64901000  1
  H  H19  1  0.62698900  0.86880000  0.65007000  1
  H  H20  1  0.35031000  0.10896400  0.35279800  1
  H  H21  1  0.84761400  0.39434300  0.35099200  1
  H  H22  1  0.15340100  0.60656300  0.64846100  1
  H  H23  1  0.14866200  0.39171100  0.64921400  1
  H  H24  1  0.87178700  0.63090000  0.34903800  1
  H  H25  1  0.57593400  0.99701900  0.28997000  1
  H  H26  1  0.42441300  0.00363100  0.71041600  1
  H  H27  1  0.07590100  0.49791000  0.28982500  1
  H  H28  1  0.92407600  0.50388800  0.71031800  1
  H  H29  1  0.57331400  0.99624600  0.13448400  1
  H  H30  1  0.42712100  0.00403300  0.86590000  1
  H  H31  1  0.07317800  0.49735200  0.13429800  1
  H  H32  1  0.92678900  0.50440200  0.86584400  1
  H  H33  1  0.60855000  0.99837500  0.89903100  1
  H  H34  1  0.39185400  0.00096400  0.10109100  1
  H  H35  1  0.10827400  0.50097800  0.89896800  1
  H  H36  1  0.89169500  0.50086000  0.10120400  1
  H  H37  1  0.60226100  0.99812900  0.73972300  1
  H  H38  1  0.39804200  0.00157500  0.26037200  1
  H  H39  1  0.10199000  0.50057200  0.73968400  1
  H  H40  1  0.89799400  0.50132200  0.26048900  1
  H  H41  1  0.60210500  0.23214900  0.32019100  1
  H  H42  1  0.61743500  0.27054300  0.17978100  1
  H  H43  1  0.78775000  0.21231000  0.22498600  1
  H  H44  1  0.77263900  0.17319000  0.36520100  1
  H  H45  1  0.22388600  0.83031800  0.63028700  1
  H  H46  1  0.20622600  0.79252800  0.77000900  1
  H  H47  1  0.37655400  0.73483000  0.82384100  1
  H  H48  1  0.39444100  0.77181200  0.68385700  1
  H  H49  1  0.40075100  0.23773200  0.67967100  1
  H  H50  1  0.38539200  0.27570100  0.82035300  1
  H  H51  1  0.21681300  0.21279100  0.77846100  1
  H  H52  1  0.23198000  0.17410900  0.63798300  1
  H  H53  1  0.69978600  0.86663300  0.30183700  1
  H  H54  1  0.71401400  0.82802800  0.16105100  1
  H  H55  1  0.66785000  0.66829800  0.24188400  1
  H  H56  1  0.65274200  0.70661900  0.38249300  1
  H  H57  1  0.10156100  0.73262000  0.31922400  1
  H  H58  1  0.11688700  0.77095500  0.17878300  1
  H  H59  1  0.28728600  0.71296700  0.22422800  1
  H  H60  1  0.27218000  0.67389300  0.36447000  1
  H  H61  1  0.72488800  0.32965000  0.63111500  1
  H  H62  1  0.70749300  0.29204700  0.77109700  1
  H  H63  1  0.87795400  0.23469900  0.82465500  1
  H  H64  1  0.89557200  0.27148900  0.68440200  1
  H  H65  1  0.84791900  0.79605400  0.61251700  1
  H  H66  1  0.83415300  0.83630400  0.75244700  1
  H  H67  1  0.78965600  0.67772400  0.84014200  1
  H  H68  1  0.80247000  0.63717700  0.70000000  1
  H  H69  1  0.27380200  0.33137400  0.37037700  1
  H  H70  1  0.29281100  0.29491600  0.23056700  1
  H  H71  1  0.12425000  0.23260400  0.17559600  1
  H  H72  1  0.10504200  0.26823800  0.31570400  1
  C  C1  1  0.42548700  0.07756000  0.49263100  1
  C  C2  1  0.57413600  0.92251200  0.50753600  1
  C  C3  1  0.57872000  0.07369100  0.50885200  1
  C  C4  1  0.42128500  0.92710000  0.49133600  1
  C  C5  1  0.92557000  0.57841000  0.49207900  1
  C  C6  1  0.07513200  0.42414000  0.50814800  1
  C  C7  1  0.07828200  0.57462700  0.50844600  1
  C  C8  1  0.92166000  0.42724500  0.49168800  1
  C  C9  1  0.37540000  0.88653500  0.48801200  1
  C  C10  1  0.62425800  0.11471000  0.51204400  1
  C  C11  1  0.61523200  0.87719000  0.51082800  1
  C  C12  1  0.38044400  0.11902100  0.48949800  1
  C  C13  1  0.87598800  0.38635900  0.48849600  1
  C  C14  1  0.12374500  0.61561400  0.51149800  1
  C  C15  1  0.12071500  0.38321000  0.51160400  1
  C  C16  1  0.88450400  0.62377600  0.48851500  1
  C  C17  1  0.36523400  0.86132400  0.56388900  1
  C  C18  1  0.63337300  0.14086400  0.43635400  1
  C  C19  1  0.62981900  0.85631600  0.43455700  1
  C  C20  1  0.37127500  0.14524200  0.56505900  1
  C  C21  1  0.86598700  0.36101000  0.56438300  1
  C  C22  1  0.13283000  0.64161400  0.43569400  1
  C  C23  1  0.13148600  0.35824300  0.43588500  1
  C  C24  1  0.87056600  0.64547300  0.56469000  1
  C  C25  1  0.32095800  0.82451400  0.56315500  1
  C  C26  1  0.67719900  0.17819300  0.43674700  1
  C  C27  1  0.66707100  0.81243100  0.43607900  1
  C  C28  1  0.32661500  0.18160400  0.56474000  1
  C  C29  1  0.82186900  0.32396700  0.56373900  1
  C  C30  1  0.17670000  0.67882900  0.43594100  1
  C  C31  1  0.17672600  0.32248700  0.43690600  1
  C  C32  1  0.83349600  0.68954500  0.56274600  1
  C  C33  1  0.28656400  0.81218500  0.48435900  1
  C  C34  1  0.71234300  0.19009600  0.51512600  1
  C  C35  1  0.69107000  0.78980200  0.51607400  1
  C  C36  1  0.29070300  0.19233300  0.48656700  1
  C  C37  1  0.78744900  0.31148800  0.48499400  1
  C  C38  1  0.21189100  0.69069800  0.51425500  1
  C  C39  1  0.21143000  0.31098200  0.51582300  1
  C  C40  1  0.80898400  0.71144700  0.48252300  1
  C  C41  1  0.29622700  0.83839100  0.40918200  1
  C  C42  1  0.70362500  0.16303500  0.59012800  1
  C  C43  1  0.67540300  0.81011900  0.59170800  1
  C  C44  1  0.29982100  0.16551600  0.41164100  1
  C  C45  1  0.79699800  0.33778500  0.40980800  1
  C  C46  1  0.20321400  0.66377800  0.58936700  1
  C  C47  1  0.20083400  0.33663200  0.59088300  1
  C  C48  1  0.82400900  0.69033800  0.40696200  1
  C  C49  1  0.34059800  0.87494300  0.41049700  1
  C  C50  1  0.65965300  0.12599800  0.58912800  1
  C  C51  1  0.63806200  0.85368000  0.58952400  1
  C  C52  1  0.34458700  0.12952200  0.41255500  1
  C  C53  1  0.84118800  0.37457400  0.41104300  1
  C  C54  1  0.15918000  0.62687700  0.58852900  1
  C  C55  1  0.15559300  0.37211400  0.58928100  1
  C  C56  1  0.86120900  0.64664300  0.40953400  1
  C  C57  1  0.46506900  0.00224500  0.75230200  1
  C  C58  1  0.53529000  0.99808600  0.24802300  1
  C  C59  1  0.96474400  0.50307000  0.75222000  1
  C  C60  1  0.03523200  0.49874700  0.24792800  1
  C  C61  1  0.46696700  0.00240100  0.84141500  1
  C  C62  1  0.53344300  0.99770900  0.15891600  1
  C  C63  1  0.96664700  0.50328100  0.84134200  1
  C  C64  1  0.03332200  0.49850700  0.15880600  1
  C  C65  1  0.51892500  0.00052300  0.89543500  1
  C  C66  1  0.48149800  0.99923000  0.10482500  1
  C  C67  1  0.01863300  0.50202500  0.89536000  1
  C  C68  1  0.98133400  0.49977400  0.10479400  1
  C  C69  1  0.56753700  0.99935800  0.85805100  1
  C  C70  1  0.43285300  0.00023400  0.14212900  1
  C  C71  1  0.06725200  0.50149100  0.85798600  1
  C  C72  1  0.93272000  0.50034200  0.14217900  1
  C  C73  1  0.56396200  0.99917500  0.76847800  1
  C  C74  1  0.43637100  0.00062200  0.23168500  1
  C  C75  1  0.06367700  0.50123600  0.76842800  1
  C  C76  1  0.93630300  0.50063100  0.23173800  1
  C  C77  1  0.68657800  0.20076300  0.35245100  1
  C  C78  1  0.64289500  0.22732400  0.29940000  1
  C  C79  1  0.65149500  0.24913700  0.22060400  1
  C  C80  1  0.70358500  0.24402300  0.19410800  1
  C  C81  1  0.74697400  0.21657700  0.24600700  1
  C  C82  1  0.73848100  0.19480300  0.32493300  1
  C  C83  1  0.31014900  0.80290600  0.64732700  1
  C  C84  1  0.25750800  0.80909900  0.67231800  1
  C  C85  1  0.24757100  0.78807900  0.75098300  1
  C  C86  1  0.29024600  0.76116700  0.80517900  1
  C  C87  1  0.34305900  0.75583300  0.78122300  1
  C  C88  1  0.35309900  0.77687500  0.70266200  1
  C  C89  1  0.31712200  0.20409200  0.64902100  1
  C  C90  1  0.36033200  0.23183700  0.70122700  1
  C  C91  1  0.35171300  0.25339400  0.78017800  1
  C  C92  1  0.30009300  0.24682900  0.80769100  1
  C  C93  1  0.25720500  0.21821100  0.75663200  1
  C  C94  1  0.26571700  0.19669400  0.67754600  1
  C  C95  1  0.67605800  0.78906000  0.35202000  1
  C  C96  1  0.69242900  0.82305500  0.28898100  1
  C  C97  1  0.70067700  0.80138600  0.20987900  1
  C  C98  1  0.69209400  0.74578000  0.19307400  1
  C  C99  1  0.67491800  0.71185700  0.25523400  1
  C  C100  1  0.66666667  0.73343300  0.33442600  1
  C  C101  1  0.18607200  0.70134300  0.35160300  1
  C  C102  1  0.14236700  0.72782500  0.29847600  1
  C  C103  1  0.15096500  0.74960900  0.21966200  1
  C  C104  1  0.20307700  0.74455200  0.19322600  1
  C  C105  1  0.24649200  0.71718900  0.24520100  1
  C  C106  1  0.23800100  0.69544300  0.32414600  1
  C  C107  1  0.81119000  0.30237100  0.64798200  1
  C  C108  1  0.75859000  0.30852800  0.67312900  1
  C  C109  1  0.74880300  0.28761600  0.75194100  1
  C  C110  1  0.79159400  0.26086500  0.80614400  1
  C  C111  1  0.84436500  0.25556600  0.78202600  1
  C  C112  1  0.85425200  0.27649400  0.70331000  1
  C  C113  1  0.82529400  0.71403900  0.64642600  1
  C  C114  1  0.83456700  0.76990200  0.66191900  1
  C  C115  1  0.82712600  0.79257100  0.74074100  1
  C  C116  1  0.81082300  0.75951400  0.80465100  1
  C  C117  1  0.80231300  0.70368600  0.78994000  1
  C  C118  1  0.80977300  0.68092400  0.71119000  1
  C  C119  1  0.18838400  0.30149800  0.35283600  1
  C  C120  1  0.24088600  0.30937500  0.32812200  1
  C  C121  1  0.25157400  0.28911700  0.24939300  1
  C  C122  1  0.20977000  0.26131300  0.19482800  1
  C  C123  1  0.15707300  0.25428800  0.21851500  1
  C  C124  1  0.14628600  0.27456000  0.29715200  1
  N  N1  1  0.24228300  0.77280900  0.47760800  1
  N  N2  1  0.75664500  0.22954000  0.52178100  1
  N  N3  1  0.73207600  0.74712800  0.52364100  1
  N  N4  1  0.24502400  0.23017800  0.47997900  1
  N  N5  1  0.74309600  0.27212100  0.47826700  1
  N  N6  1  0.25610700  0.73015400  0.52074900  1
  N  N7  1  0.25720600  0.27326400  0.52279200  1
  N  N8  1  0.76802300  0.75414800  0.47480700  1
  N  N9  1  0.51298800  0.99949700  0.71711000  1
  N  N10  1  0.48732300  0.00067200  0.28311800  1
  N  N11  1  0.01270400  0.50089900  0.71706000  1
  N  N12  1  0.98727900  0.50097400  0.28309700  1
  N  N13  1  0.52364200  0.99995000  0.98742700  1
  N  N14  1  0.47681300  0.99973100  0.01283900  1
  N  N15  1  0.02338300  0.50135000  0.98734800  1
  N  N16  1  0.97658000  0.50043800  0.01280600  1
  Cl  Cl1  1  0.71458000  0.27253900  0.09462600  1
  Cl  Cl2  1  0.27740800  0.73360500  0.90434300  1
  Cl  Cl3  1  0.28908100  0.27493300  0.90744300  1
  Cl  Cl4  1  0.70279600  0.71832700  0.09266700  1
  Cl  Cl5  1  0.21407100  0.77304600  0.09373100  1
  Cl  Cl6  1  0.77896600  0.23350100  0.90555200  1
  Cl  Cl7  1  0.80117600  0.78835900  0.90463300  1
  Cl  Cl8  1  0.22355100  0.23484500  0.09547500  1
  O  O1  1  0.43764800  0.05765600  0.41926900  1
  O  O2  1  0.56205400  0.94258300  0.58069700  1
  O  O3  1  0.56570200  0.05408500  0.58191300  1
  O  O4  1  0.43470100  0.94627600  0.41834700  1
  O  O5  1  0.93764600  0.55825200  0.41892100  1
  O  O6  1  0.06273800  0.44397600  0.58132900  1
  O  O7  1  0.06508700  0.55537300  0.58156900  1
  O  O8  1  0.93470000  0.44673100  0.41861000  1
  O  O9  1  0.45011100  0.06017300  0.56919100  1
  O  O10  1  0.55025800  0.94065600  0.43116400  1
  O  O11  1  0.55334100  0.05746700  0.43215300  1
  O  O12  1  0.44649400  0.94346500  0.56799100  1
  O  O13  1  0.94951900  0.56045100  0.56861500  1
  O  O14  1  0.05035200  0.44130400  0.43159000  1
  O  O15  1  0.05320900  0.55802200  0.43182800  1
  O  O16  1  0.94700600  0.44362700  0.56829500  1
