# generated using pymatgen
data_Fe2H17C44N2O16F
_symmetry_space_group_name_H-M   'P 1'
_cell_length_a   13.56739100
_cell_length_b   14.24559200
_cell_length_c   11.49970200
_cell_angle_alpha   94.25689500
_cell_angle_beta   85.85797600
_cell_angle_gamma   108.35855900
_symmetry_Int_Tables_number   1
_chemical_formula_structural   Fe2H17C44N2O16F
_chemical_formula_sum   'Fe2 H17 C44 N2 O16 F1'
_cell_volume   2100.86574116
_cell_formula_units_Z   1
loop_
 _symmetry_equiv_pos_site_id
 _symmetry_equiv_pos_as_xyz
  1  'x, y, z'
loop_
 _atom_site_type_symbol
 _atom_site_label
 _atom_site_symmetry_multiplicity
 _atom_site_fract_x
 _atom_site_fract_y
 _atom_site_fract_z
 _atom_site_occupancy
  Fe  Fe1  1  0.49477000  0.99765800  0.24194900  1
  Fe  Fe2  1  0.48017200  0.99792300  0.74756400  1
  H  H1  1  0.15534400  0.94779500  0.24129400  1
  H  H2  1  0.98498600  0.93993200  0.18456900  1
  H  H3  1  0.11623200  0.03845600  0.84817200  1
  H  H4  1  0.96087300  0.95287000  0.79797800  1
  H  H5  1  0.87930800  0.02583400  0.15088300  1
  H  H6  1  0.49689200  0.64334500  0.26057000  1
  H  H7  1  0.47965500  0.68850000  0.68742400  1
  H  H8  1  0.48534600  0.52513600  0.70450800  1
  H  H9  1  0.49355500  0.36412200  0.72340100  1
  H  H10  1  0.49876600  0.30132900  0.29885400  1
  H  H11  1  0.32485100  0.42373600  0.24507100  1
  H  H12  1  0.48028300  0.42886500  0.91525300  1
  H  H13  1  0.65551700  0.50589200  0.21414300  1
  H  H14  1  0.73749500  0.79153100  0.73026100  1
  H  H15  1  0.72906000  0.74621100  0.51996400  1
  H  H16  1  0.84718800  0.05145800  0.44656400  1
  H  H17  1  0.85639800  0.09676300  0.65691700  1
  C  C1  1  0.14629500  0.96490900  0.15345600  1
  C  C2  1  0.04987100  0.96347600  0.12193100  1
  C  C3  1  0.03768400  0.99208700  0.01286800  1
  C  C4  1  0.12319700  0.01583600  0.93373500  1
  C  C5  1  0.21880900  0.01095500  0.96225400  1
  C  C6  1  0.23141800  0.99117300  0.07577900  1
  C  C7  1  0.90902700  0.97252800  0.86388600  1
  C  C8  1  0.81443900  0.97265200  0.82969300  1
  C  C9  1  0.73961700  0.98755700  0.91067900  1
  C  C10  1  0.76142700  0.00305800  0.02895100  1
  C  C11  1  0.86027900  0.00870000  0.06074800  1
  C  C12  1  0.93446100  0.99239200  0.97891700  1
  C  C13  1  0.68276400  0.00987600  0.12319100  1
  C  C14  1  0.49619900  0.82213400  0.32625100  1
  C  C15  1  0.33407000  0.00648300  0.11955100  1
  C  C16  1  0.48509200  0.14520100  0.40127300  1
  C  C17  1  0.49523800  0.85191300  0.58833000  1
  C  C18  1  0.63734100  0.97760500  0.86874800  1
  C  C19  1  0.49475300  0.18068500  0.66331300  1
  C  C20  1  0.30174200  0.01932000  0.86906900  1
  C  C21  1  0.49273300  0.65207400  0.35440100  1
  C  C22  1  0.49245000  0.74331300  0.40498100  1
  C  C23  1  0.48622600  0.75586800  0.52663400  1
  C  C24  1  0.48162500  0.67767700  0.59335900  1
  C  C25  1  0.48637900  0.58841800  0.54177400  1
  C  C26  1  0.49072900  0.57460200  0.42195900  1
  C  C27  1  0.48821800  0.51358600  0.61052800  1
  C  C28  1  0.49386200  0.42424600  0.56006300  1
  C  C29  1  0.49658800  0.40897400  0.44040600  1
  C  C30  1  0.49404200  0.48390900  0.37082300  1
  C  C31  1  0.49499300  0.34980700  0.63009800  1
  C  C32  1  0.49523800  0.25753200  0.58265100  1
  C  C33  1  0.49637900  0.24190700  0.46126400  1
  C  C34  1  0.49936600  0.31781400  0.39192200  1
  C  C35  1  0.39651800  0.43608800  0.19221000  1
  C  C36  1  0.48323500  0.43900500  0.00892700  1
  C  C37  1  0.58092800  0.48187500  0.17500600  1
  C  C38  1  0.49060100  0.46616700  0.24407200  1
  C  C39  1  0.79339100  0.94717500  0.70680700  1
  C  C40  1  0.75880100  0.84882700  0.66811700  1
  C  C41  1  0.75511600  0.82332300  0.55010500  1
  C  C42  1  0.78659900  0.89608800  0.47049400  1
  C  C43  1  0.82143000  0.99442400  0.50895000  1
  C  C44  1  0.82548700  0.01990400  0.62700900  1
  N  N1  1  0.39424000  0.42301400  0.07536700  1
  N  N2  1  0.57585000  0.46811000  0.05837700  1
  O  O1  1  0.58782500  0.00491700  0.09988800  1
  O  O2  1  0.50321700  0.80535800  0.21267200  1
  O  O3  1  0.70590700  0.01450600  0.23273100  1
  O  O4  1  0.49004600  0.90838800  0.36758000  1
  O  O5  1  0.34840800  0.94465400  0.19049100  1
  O  O6  1  0.41007400  0.08767200  0.09685100  1
  O  O7  1  0.54766800  0.13665600  0.31119700  1
  O  O8  1  0.40140200  0.07064000  0.42383700  1
  O  O9  1  0.42787900  0.86056700  0.67308200  1
  O  O10  1  0.57836400  0.92762600  0.56872500  1
  O  O11  1  0.62376900  0.04676000  0.80780800  1
  O  O12  1  0.56150200  0.89433900  0.88151700  1
  O  O13  1  0.28965100  0.04568600  0.76548100  1
  O  O14  1  0.49262600  0.09114700  0.62381600  1
  O  O15  1  0.38123900  0.98830300  0.88476700  1
  O  O16  1  0.49480400  0.20158000  0.77639800  1
  F  F1  1  0.78424200  0.87085200  0.35456100  1
