data_DB0-m3_o11_o18_f0_pcu.sym.1_repeat
_audit_creation_date              2024-02-23
_audit_creation_method            'Materials Studio'
_symmetry_space_group_name_H-M    'P1'
_symmetry_Int_Tables_number       1
_symmetry_cell_setting            triclinic
loop_
_symmetry_equiv_pos_as_xyz
  x,y,z
_cell_length_a                    9.9154
_cell_length_b                    11.1243
_cell_length_c                    15.9855
_cell_angle_alpha                 90.0016
_cell_angle_beta                  72.3542
_cell_angle_gamma                 89.9974
loop_
_atom_site_label
_atom_site_type_symbol
_atom_site_fract_x
_atom_site_fract_y
_atom_site_fract_z
_atom_site_U_iso_or_equiv
_atom_site_adp_type
_atom_site_occupancy
O1     O     0.38617   0.67874   0.50422   0.00000  Uiso   1.00
O2     O     0.61895   0.67858   0.50315   0.00000  Uiso   1.00
C1     C     0.50167   0.73477   0.50502   0.00000  Uiso   1.00
O3     O     0.31829   0.49300   0.63085   0.00000  Uiso   1.00
O4     O     0.55071   0.49356   0.63006   0.00000  Uiso   1.00
C2     C     0.41485   0.49175   0.67173   0.00000  Uiso   1.00
Zn1    Zn    0.34757   0.50054   0.49985   0.00000  Uiso   1.00
Zn2    Zn    0.65435   0.49889   0.49976   0.00000  Uiso   1.00
O5     O     0.38307   0.32099   0.49543   0.00000  Uiso   1.00
O6     O     0.61641   0.32037   0.49518   0.00000  Uiso   1.00
O7     O     0.45069   0.50499   0.36943   0.00000  Uiso   1.00
O8     O     0.68413   0.50457   0.36864   0.00000  Uiso   1.00
C3     C     0.50001   0.26469   0.49431   0.00000  Uiso   1.00
C4     C     0.58701   0.50694   0.32790   0.00000  Uiso   1.00
C5     C     0.36988   0.48442   0.76805   0.00000  Uiso   1.00
C6     C     0.63216   0.51307   0.23152   0.00000  Uiso   1.00
C7     C     0.19106   0.44949   0.90316   0.00000  Uiso   1.00
C8     C     0.23080   0.46068   0.81350   0.00000  Uiso   1.00
C9     C     0.46802   0.49875   0.81331   0.00000  Uiso   1.00
C10    C     0.42887   0.48923   0.90481   0.00000  Uiso   1.00
C11    C     0.28866   0.46346   0.94831   0.00000  Uiso   1.00
C12    C     0.52487   0.50377   0.95386   0.00000  Uiso   1.00
C13    C     0.47783   0.49155   0.04551   0.00000  Uiso   1.00
C14    C     0.33598   0.46367   0.08576   0.00000  Uiso   1.00
C15    C     0.24381   0.45044   0.03768   0.00000  Uiso   1.00
C16    C     0.66707   0.53037   0.91354   0.00000  Uiso   1.00
C17    C     0.75931   0.54319   0.96162   0.00000  Uiso   1.00
C18    C     0.71414   0.53134   0.05107   0.00000  Uiso   1.00
C19    C     0.57366   0.50668   0.09461   0.00000  Uiso   1.00
C20    C     0.81172   0.54518   0.09624   0.00000  Uiso   1.00
C21    C     0.77164   0.53515   0.18597   0.00000  Uiso   1.00
C22    C     0.53400   0.49907   0.18622   0.00000  Uiso   1.00
H1     H     0.13449   0.42894   0.07132   0.00000  Uiso   1.00
H2     H     0.42704   0.48258   0.22521   0.00000  Uiso   1.00
H3     H     0.85007   0.54726   0.21969   0.00000  Uiso   1.00
H4     H     0.86893   0.56354   0.92790   0.00000  Uiso   1.00
H5     H     0.08208   0.42874   0.93816   0.00000  Uiso   1.00
H6     H     0.15243   0.44832   0.77976   0.00000  Uiso   1.00
H7     H     0.57440   0.51761   0.77436   0.00000  Uiso   1.00
H8     H     0.29013   0.45016   0.15504   0.00000  Uiso   1.00
H9     H     0.71340   0.54231   0.84414   0.00000  Uiso   1.00
H10    H     0.92098   0.56484   0.06119   0.00000  Uiso   1.00
C23    C     0.60820   0.06742   0.49857   0.00000  Uiso   1.00
C24    C     0.49811   0.13297   0.49242   0.00000  Uiso   1.00
H11    H     0.70266   0.11274   0.50274   0.00000  Uiso   1.00
H12    H     0.40318   0.09195   0.48586   0.00000  Uiso   1.00
C25    C     0.61067   0.93427   0.49857   0.00000  Uiso   1.00
C26    C     0.49598   0.86636   0.50699   0.00000  Uiso   1.00
H13    H     0.71112   0.89107   0.49254   0.00000  Uiso   1.00
H14    H     0.39323   0.90562   0.51526   0.00000  Uiso   1.00
C27    C     0.10016   0.43112   0.44992   0.00000  Uiso   1.00
N1     N     0.14707   0.50328   0.49748   0.00000  Uiso   1.00
H15    H     0.16971   0.36251   0.41179   0.00000  Uiso   1.00
H16    H     0.08640   0.57729   0.52248   0.00000  Uiso   1.00
C28    C     0.95564   0.44270   0.44190   0.00000  Uiso   1.00
N2     N     0.85529   0.49474   0.50121   0.00000  Uiso   1.00
H17    H     0.93315   0.40175   0.38608   0.00000  Uiso   1.00
H18    H     0.87506   0.51741   0.55862   0.00000  Uiso   1.00
