# generated using pymatgen
data_CdH19C31N3O4
_symmetry_space_group_name_H-M   'P 1'
_cell_length_a   10.84549300
_cell_length_b   18.63777800
_cell_length_c   19.19353600
_cell_angle_alpha   75.90265300
_cell_angle_beta   91.42751300
_cell_angle_gamma   90.93261700
_symmetry_Int_Tables_number   1
_chemical_formula_structural   CdH19C31N3O4
_chemical_formula_sum   'Cd2 H38 C62 N6 O8'
_cell_volume   3761.48229571
_cell_formula_units_Z   2
loop_
 _symmetry_equiv_pos_site_id
 _symmetry_equiv_pos_as_xyz
  1  'x, y, z'
loop_
 _atom_site_type_symbol
 _atom_site_label
 _atom_site_symmetry_multiplicity
 _atom_site_fract_x
 _atom_site_fract_y
 _atom_site_fract_z
 _atom_site_occupancy
  Cd  Cd1  1  0.99384800  0.95292100  0.10362800  1
  Cd  Cd2  1  0.00485400  0.04982000  0.89725600  1
  H  H1  1  0.81353400  0.99124200  0.81317800  1
  H  H2  1  0.21531600  0.10502000  0.98016800  1
  H  H3  1  0.40743200  0.14333600  0.01696100  1
  H  H4  1  0.59428100  0.98866800  0.80688500  1
  H  H5  1  0.40086000  0.00001600  0.79940900  1
  H  H6  1  0.80809200  0.11771900  0.96706300  1
  H  H7  1  0.18316700  0.00504700  0.80633200  1
  H  H8  1  0.18756900  0.85135600  0.03288900  1
  H  H9  1  0.78986900  0.01472700  0.17182500  1
  H  H10  1  0.59539200  0.05137100  0.20534400  1
  H  H11  1  0.40430500  0.85243800  0.03043500  1
  H  H12  1  0.59276900  0.87304900  0.01670200  1
  H  H13  1  0.18986100  0.00698100  0.15828600  1
  H  H14  1  0.80683600  0.88216600  0.02372000  1
  H  H15  1  0.93131100  0.19315900  0.15544200  1
  H  H16  1  0.93446500  0.32734900  0.13079800  1
  H  H17  1  0.09230500  0.33886700  0.92646700  1
  H  H18  1  0.09043300  0.20550400  0.95204900  1
  H  H19  1  0.95086400  0.43962700  0.90120800  1
  H  H20  1  0.95197500  0.57347100  0.87571300  1
  H  H21  1  0.08170900  0.56232100  0.09045200  1
  H  H22  1  0.07838400  0.42875500  0.11602300  1
  H  H23  1  0.94291700  0.65919600  0.07063400  1
  H  H24  1  0.93997200  0.79119400  0.04947800  1
  H  H25  1  0.07240000  0.81399100  0.83814500  1
  H  H26  1  0.07885000  0.68024800  0.85926200  1
  H  H27  1  0.99049100  0.69265100  0.21050600  1
  H  H28  1  0.99122100  0.58109000  0.30593600  1
  H  H29  1  0.97608000  0.71072400  0.46130900  1
  H  H30  1  0.97858700  0.82311400  0.36513000  1
  H  H31  1  0.10618400  0.61151600  0.51876700  1
  H  H32  1  0.11105900  0.49801300  0.61235500  1
  H  H33  1  0.86666900  0.39535400  0.48647000  1
  H  H34  1  0.86184900  0.50884400  0.39288300  1
  H  H35  1  0.99886500  0.29691800  0.54197300  1
  H  H36  1  0.00179600  0.18364500  0.63690900  1
  H  H37  1  0.99102700  0.31113600  0.79409000  1
  H  H38  1  0.98479300  0.42372500  0.69979100  1
  C  C1  1  0.98651100  0.83327900  0.22195600  1
  C  C2  1  0.99981300  0.17124300  0.78046900  1
  C  C3  1  0.00341500  0.10823300  0.06877200  1
  C  C4  1  0.00667600  0.89431500  0.93071500  1
  C  C5  1  0.76151700  0.08675400  0.93367000  1
  C  C6  1  0.76389300  0.01729800  0.84818500  1
  C  C7  1  0.63660600  0.01709900  0.84396700  1
  C  C8  1  0.56917900  0.05102700  0.88728700  1
  C  C9  1  0.63448900  0.08571100  0.93267600  1
  C  C10  1  0.36512300  0.02293000  0.84102900  1
  C  C11  1  0.44009300  0.05160800  0.88747800  1
  C  C12  1  0.38294800  0.08327300  0.93581800  1
  C  C13  1  0.45211900  0.11727200  0.97994600  1
  C  C14  1  0.23843200  0.02509800  0.84520200  1
  C  C15  1  0.25612600  0.08161600  0.94049900  1
  C  C16  1  0.23765200  0.97555500  0.12744000  1
  C  C17  1  0.23611000  0.89008300  0.05711300  1
  C  C18  1  0.36270500  0.89034600  0.05686000  1
  C  C19  1  0.42976500  0.93529200  0.09205600  1
  C  C20  1  0.36515900  0.97608600  0.12976500  1
  C  C21  1  0.63013900  0.90467500  0.05239200  1
  C  C22  1  0.55831700  0.93943700  0.09253500  1
  C  C23  1  0.61772900  0.98079500  0.13397000  1
  C  C24  1  0.54951100  0.01864600  0.17284900  1
  C  C25  1  0.75625400  0.91080000  0.05532300  1
  C  C26  1  0.74539500  0.98454000  0.13673400  1
  C  C27  1  0.96699400  0.22472600  0.10497100  1
  C  C28  1  0.96935000  0.30103500  0.09106500  1
  C  C29  1  0.01201900  0.34306700  0.02629500  1
  C  C30  1  0.05426500  0.30760400  0.97639200  1
  C  C31  1  0.05251400  0.23152800  0.99061500  1
  C  C32  1  0.00720600  0.18945000  0.05428800  1
  C  C33  1  0.98116600  0.46613000  0.94294000  1
  C  C34  1  0.98212600  0.54240100  0.92834000  1
  C  C35  1  0.01637200  0.57810500  0.98119600  1
  C  C36  1  0.05086600  0.53616500  0.04858700  1
  C  C37  1  0.04910100  0.45998800  0.06326900  1
  C  C38  1  0.01382700  0.42434100  0.01066000  1
  C  C39  1  0.97454200  0.69220800  0.01975100  1
  C  C40  1  0.97227600  0.76797600  0.00777500  1
  C  C41  1  0.00768400  0.81297600  0.94310800  1
  C  C42  1  0.04378600  0.78036500  0.88947800  1
  C  C43  1  0.04682700  0.70414100  0.90139900  1
  C  C44  1  0.01303300  0.65938100  0.96703000  1
  C  C45  1  0.98699900  0.69748900  0.26538300  1
  C  C46  1  0.98618300  0.63375000  0.31983000  1
  C  C47  1  0.98307200  0.63737900  0.39085000  1
  C  C48  1  0.98062300  0.70615000  0.40638200  1
  C  C49  1  0.98097600  0.77010500  0.35172400  1
  C  C50  1  0.98440600  0.76609100  0.28085600  1
  C  C51  1  0.05157400  0.56478000  0.51147800  1
  C  C52  1  0.05441000  0.49996500  0.56483100  1
  C  C53  1  0.98933400  0.43798400  0.55648600  1
  C  C54  1  0.92108100  0.44213300  0.49383600  1
  C  C55  1  0.91826000  0.50693500  0.44049000  1
  C  C56  1  0.98370300  0.56882800  0.44871300  1
  C  C57  1  0.99543700  0.30067600  0.59718700  1
  C  C58  1  0.99817400  0.23620100  0.65115100  1
  C  C59  1  0.99692500  0.23912400  0.72237000  1
  C  C60  1  0.99287100  0.30719500  0.73889000  1
  C  C61  1  0.99050600  0.37150100  0.68509400  1
  C  C62  1  0.99188800  0.36893700  0.61372800  1
  N  N1  1  0.82539300  0.05038500  0.89391100  1
  N  N2  1  0.57560600  0.11853500  0.97717600  1
  N  N3  1  0.18470000  0.05213700  0.89595600  1
  N  N4  1  0.17434200  0.93500700  0.08890700  1
  N  N5  1  0.42551800  0.01646300  0.16939600  1
  N  N6  1  0.81375700  0.95023500  0.09695500  1
  O  O1  1  0.99172400  0.82764400  0.15572700  1
  O  O2  1  0.98387100  0.89936300  0.23398800  1
  O  O3  1  0.99915500  0.17557500  0.84725900  1
  O  O4  1  0.00315600  0.10575800  0.76706600  1
  O  O5  1  0.99370200  0.06892700  0.13487500  1
  O  O6  1  0.00383700  0.07423600  0.01618600  1
  O  O7  1  0.00902200  0.93479700  0.86480200  1
  O  O8  1  0.00298700  0.92746100  0.98410000  1
