# generated using pymatgen
data_Cu6H76(C37O8)3
_symmetry_space_group_name_H-M   'P 1'
_cell_length_a   21.60044100
_cell_length_b   21.60128100
_cell_length_c   21.96680100
_cell_angle_alpha   119.44213400
_cell_angle_beta   119.44620900
_cell_angle_gamma   90.01051200
_symmetry_Int_Tables_number   1
_chemical_formula_structural   Cu6H76(C37O8)3
_chemical_formula_sum   'Cu6 H76 C111 O24'
_cell_volume   7367.05739563
_cell_formula_units_Z   1
loop_
 _symmetry_equiv_pos_site_id
 _symmetry_equiv_pos_as_xyz
  1  'x, y, z'
loop_
 _atom_site_type_symbol
 _atom_site_label
 _atom_site_symmetry_multiplicity
 _atom_site_fract_x
 _atom_site_fract_y
 _atom_site_fract_z
 _atom_site_occupancy
  Cu  Cu1  1  0.43485600  0.00061000  0.49900800  1
  Cu  Cu2  1  0.55748600  0.00205000  0.50200100  1
  Cu  Cu3  1  0.00670300  0.57063200  0.50185500  1
  Cu  Cu4  1  0.00294200  0.44827200  0.49921300  1
  Cu  Cu5  1  0.54818500  0.54532600  0.58898600  1
  Cu  Cu6  1  0.46496000  0.46187000  0.42040100  1
  H  H1  1  0.70880500  0.35506000  0.07003000  1
  H  H2  1  0.63222700  0.27780500  0.92883800  1
  H  H3  1  0.80053300  0.25451800  0.92240100  1
  H  H4  1  0.73964100  0.31160000  0.92493500  1
  H  H5  1  0.81750200  0.38533300  0.06732400  1
  H  H6  1  0.87630400  0.32589700  0.06501400  1
  H  H7  1  0.70270400  0.12132300  0.93295000  1
  H  H8  1  0.78109800  0.14650100  0.93090800  1
  H  H9  1  0.77355400  0.19686100  0.07559500  1
  H  H10  1  0.61854400  0.19947300  0.93560500  1
  H  H11  1  0.69204400  0.27810300  0.07798400  1
  H  H12  1  0.85302900  0.21878200  0.07368800  1
  H  H13  1  0.51423000  0.28128600  0.82616400  1
  H  H14  1  0.39946700  0.20375100  0.68224800  1
  H  H15  1  0.39600900  0.19179500  0.56354400  1
  H  H16  1  0.62340300  0.33356400  0.73236500  1
  H  H17  1  0.62612700  0.34653300  0.85129200  1
  H  H18  1  0.51981600  0.37028400  0.62185400  1
  H  H19  1  0.49037800  0.13231500  0.38769400  1
  H  H20  1  0.38893600  0.15530700  0.27308800  1
  H  H21  1  0.38313100  0.13939500  0.15166800  1
  H  H22  1  0.48751000  0.21412300  0.17421600  1
  H  H23  1  0.59859300  0.30398600  0.31870500  1
  H  H24  1  0.60507500  0.31906000  0.44000100  1
  H  H25  1  0.16139600  0.63312600  0.92429300  1
  H  H26  1  0.24172600  0.69867200  0.06643800  1
  H  H27  1  0.38487300  0.79779100  0.06938700  1
  H  H28  1  0.35970000  0.72264400  0.07606700  1
  H  H29  1  0.28105100  0.64482500  0.93362900  1
  H  H30  1  0.31577200  0.71611700  0.92735700  1
  H  H31  1  0.22834800  0.87082300  0.06734800  1
  H  H32  1  0.31494200  0.88999600  0.07636000  1
  H  H33  1  0.16795200  0.80662000  0.92537400  1
  H  H34  1  0.19149300  0.76607300  0.07391700  1
  H  H35  1  0.11971300  0.70688100  0.93179600  1
  H  H36  1  0.25570000  0.81541300  0.93434400  1
  H  H37  1  0.16187400  0.74311300  0.23264800  1
  H  H38  1  0.18437600  0.73472200  0.34912400  1
  H  H39  1  0.30944800  0.74100200  0.44937900  1
  H  H40  1  0.38970900  0.76309800  0.31595800  1
  H  H41  1  0.26448000  0.75685300  0.21602700  1
  H  H42  1  0.38689100  0.64564300  0.41201900  1
  H  H43  1  0.61406100  0.85940900  0.58960400  1
  H  H44  1  0.65974100  0.84726700  0.72327300  1
  H  H45  1  0.78679000  0.85250800  0.81793500  1
  H  H46  1  0.84298200  0.76117700  0.75977400  1
  H  H47  1  0.77215800  0.66499900  0.60680300  1
  H  H48  1  0.64422000  0.65799400  0.51190100  1
  H  H49  1  0.71232000  0.48440700  0.16849100  1
  H  H50  1  0.80035800  0.59790600  0.31123900  1
  H  H51  1  0.81851700  0.60674300  0.43483800  1
  H  H52  1  0.66318900  0.38640600  0.27344200  1
  H  H53  1  0.64287500  0.37918100  0.14975400  1
  H  H54  1  0.63724000  0.48922800  0.38533700  1
  H  H55  1  0.87887500  0.52539300  0.62037000  1
  H  H56  1  0.85655000  0.62991200  0.73452000  1
  H  H57  1  0.87671400  0.64064600  0.85986500  1
  H  H58  1  0.80628800  0.53813200  0.84385700  1
  H  H59  1  0.71647700  0.42402200  0.70200100  1
  H  H60  1  0.69708300  0.41269700  0.57681300  1
  H  H61  1  0.24627600  0.82960600  0.77227200  1
  H  H62  1  0.21704600  0.79882500  0.63546900  1
  H  H63  1  0.22080900  0.67861700  0.53824300  1
  H  H64  1  0.28027200  0.74147300  0.81257200  1
  H  H65  1  0.36446000  0.61730900  0.60346600  1
  H  H66  1  0.14538300  0.39040700  0.40460400  1
  H  H67  1  0.16290200  0.35053600  0.27840000  1
  H  H68  1  0.15978200  0.22623400  0.18044100  1
  H  H69  1  0.25117100  0.16845400  0.23528600  1
  H  H70  1  0.34505700  0.23479600  0.38839200  1
  H  H71  1  0.34953300  0.35972800  0.48677200  1
  H  H72  1  0.25102500  0.54860100  0.67237700  1
  H  H73  1  0.28814300  0.62392800  0.77937600  1
  H  H74  1  0.40161900  0.64510700  0.74908300  1
  H  H75  1  0.36523500  0.52494500  0.77264300  1
  H  H76  1  0.45481800  0.56356600  0.79056100  1
  C  C1  1  0.49802700  0.12058500  0.50446700  1
  C  C2  1  0.57454500  0.07975300  0.66093300  1
  C  C3  1  0.49413800  0.88213500  0.49681700  1
  C  C4  1  0.41801600  0.92361500  0.34011300  1
  C  C5  1  0.66104100  0.24579000  0.95464200  1
  C  C6  1  0.76703900  0.27766900  0.94853900  1
  C  C7  1  0.81823500  0.32690000  0.04432300  1
  C  C8  1  0.87853800  0.38558500  0.24919900  1
  C  C9  1  0.70786200  0.21404600  0.92061900  1
  C  C10  1  0.71138700  0.29758300  0.05015800  1
  C  C11  1  0.79132200  0.29785100  0.08029400  1
  C  C12  1  0.79436200  0.21869800  0.05045400  1
  C  C13  1  0.74574900  0.16882800  0.95456500  1
  C  C14  1  0.83931000  0.34636500  0.17289400  1
  C  C15  1  0.65940100  0.16573900  0.82806900  1
  C  C16  1  0.62004800  0.12628100  0.75179700  1
  C  C17  1  0.44887300  0.23170900  0.69311600  1
  C  C18  1  0.44722100  0.22446800  0.62637100  1
  C  C19  1  0.51026400  0.26001300  0.63999800  1
  C  C20  1  0.57429100  0.30453400  0.72108600  1
  C  C21  1  0.57588600  0.31179400  0.78785100  1
  C  C22  1  0.51323600  0.27524000  0.77382700  1
  C  C23  1  0.51430400  0.31861800  0.57029600  1
  C  C24  1  0.50918400  0.31579700  0.50361400  1
  C  C25  1  0.50022200  0.24775900  0.43685700  1
  C  C26  1  0.49563600  0.18477700  0.43821800  1
  C  C27  1  0.49870600  0.18775000  0.50367700  1
  C  C28  1  0.50771600  0.25492600  0.56990300  1
  C  C29  1  0.43516900  0.18809000  0.28345300  1
  C  C30  1  0.43176200  0.17920000  0.21516300  1
  C  C31  1  0.49024600  0.22107600  0.22777900  1
  C  C32  1  0.55243700  0.27145500  0.30871300  1
  C  C33  1  0.55592000  0.28022700  0.37697500  1
  C  C34  1  0.49676800  0.23951100  0.36475700  1
  C  C35  1  0.22324700  0.73769500  0.04732100  1
  C  C36  1  0.33735800  0.75576800  0.04916100  1
  C  C37  1  0.28840500  0.70391000  0.95343200  1
  C  C38  1  0.12910900  0.63238800  0.75174800  1
  C  C39  1  0.29116000  0.79543600  0.08039100  1
  C  C40  1  0.17330600  0.69405100  0.95167100  1
  C  C41  1  0.21256000  0.71605900  0.92064200  1
  C  C42  1  0.22331500  0.79805000  0.95296900  1
  C  C43  1  0.26560500  0.84499800  0.04855500  1
  C  C44  1  0.16684600  0.67006200  0.82803800  1
  C  C45  1  0.33664100  0.84143700  0.17299700  1
  C  C46  1  0.37390100  0.87912000  0.24928400  1
  C  C47  1  0.22966400  0.74148300  0.34223900  1
  C  C48  1  0.29993800  0.74501100  0.39849300  1
  C  C49  1  0.35814700  0.75446100  0.39049500  1
  C  C50  1  0.34508500  0.75807800  0.32432400  1
  C  C51  1  0.27464100  0.75405600  0.26777800  1
  C  C52  1  0.21704200  0.74617500  0.27697300  1
  C  C53  1  0.43689300  0.69290400  0.45159600  1
  C  C54  1  0.50495400  0.69027000  0.50461900  1
  C  C55  1  0.56901500  0.75103800  0.55557100  1
  C  C56  1  0.56400700  0.81250200  0.55104400  1
  C  C57  1  0.49599300  0.81503400  0.49797000  1
  C  C58  1  0.43168800  0.75511000  0.44855900  1
  C  C59  1  0.68387100  0.80644000  0.69755200  1
  C  C60  1  0.75523100  0.80948300  0.75076500  1
  C  C61  1  0.78669200  0.75826600  0.71819500  1
  C  C62  1  0.74673100  0.70397700  0.63242700  1
  C  C63  1  0.67485300  0.70005800  0.57927100  1
  C  C64  1  0.64308600  0.75115200  0.61184400  1
  C  C65  1  0.88674900  0.51114500  0.49893600  1
  C  C66  1  0.92504000  0.43090000  0.34010200  1
  C  C67  1  0.12301400  0.50825600  0.50238700  1
  C  C68  1  0.08425500  0.58787700  0.66091200  1
  C  C69  1  0.62625600  0.50342700  0.50576300  1
  C  C70  1  0.50876200  0.38411500  0.50393700  1
  C  C71  1  0.38715600  0.50118200  0.50381300  1
  C  C72  1  0.50673100  0.62279800  0.50516300  1
  C  C73  1  0.77086700  0.55112800  0.30307200  1
  C  C74  1  0.78179400  0.55561300  0.37262100  1
  C  C75  1  0.74437100  0.49589100  0.36249800  1
  C  C76  1  0.69398800  0.43275900  0.28212600  1
  C  C77  1  0.68264000  0.42857400  0.21257300  1
  C  C78  1  0.72140300  0.48755700  0.22304400  1
  C  C79  1  0.68975300  0.49619100  0.43714200  1
  C  C80  1  0.69438900  0.50369900  0.50565900  1
  C  C81  1  0.76354900  0.51485600  0.57281300  1
  C  C82  1  0.82560300  0.51874900  0.56963700  1
  C  C83  1  0.82064900  0.51264700  0.50189700  1
  C  C84  1  0.75236200  0.50182100  0.43543300  1
  C  C85  1  0.82555000  0.58456600  0.72703300  1
  C  C86  1  0.83686700  0.59071200  0.79752200  1
  C  C87  1  0.79741400  0.53326800  0.78857000  1
  C  C88  1  0.74705800  0.46938500  0.70911000  1
  C  C89  1  0.73585200  0.46317400  0.63864900  1
  C  C90  1  0.77406700  0.52128600  0.64718000  1
  C  C91  1  0.23159000  0.75948400  0.65286800  1
  C  C92  1  0.23381500  0.69210100  0.59843800  1
  C  C93  1  0.25181600  0.64136500  0.61991600  1
  C  C94  1  0.26908200  0.65891700  0.69754700  1
  C  C95  1  0.26679200  0.72671700  0.75182700  1
  C  C96  1  0.24791000  0.77668800  0.72945200  1
  C  C97  1  0.31664100  0.56702500  0.55981900  1
  C  C98  1  0.31918800  0.50083600  0.50352000  1
  C  C99  1  0.25704400  0.43677200  0.44697600  1
  C  C100  1  0.19353200  0.44030300  0.44759500  1
  C  C101  1  0.19088500  0.50675500  0.50298100  1
  C  C102  1  0.25293700  0.57027700  0.55988500  1
  C  C103  1  0.20352500  0.32562900  0.30283200  1
  C  C104  1  0.20172500  0.25581700  0.24772200  1
  C  C105  1  0.25296200  0.22345600  0.27843300  1
  C  C106  1  0.30592100  0.26088300  0.36428300  1
  C  C107  1  0.30844800  0.33114000  0.41941700  1
  C  C108  1  0.25751600  0.36398400  0.38873300  1
  C  C109  1  0.29050400  0.60629300  0.72412300  1
  C  C110  1  0.36855200  0.60741100  0.74913000  1
  C  C111  1  0.39798500  0.56256300  0.77220400  1
  O  O1  1  0.43454600  0.07923300  0.47887100  1
  O  O2  1  0.56032900  0.10255600  0.52690900  1
  O  O3  1  0.50349600  0.07633800  0.62059000  1
  O  O4  1  0.60669600  0.04382100  0.62221200  1
  O  O5  1  0.45405800  0.92212400  0.51952900  1
  O  O6  1  0.53574300  0.90137100  0.47674300  1
  O  O7  1  0.38521200  0.92520900  0.37789600  1
  O  O8  1  0.48935000  0.96014400  0.38133700  1
  O  O9  1  0.92914300  0.57375900  0.52398700  1
  O  O10  1  0.90314600  0.44793000  0.47574100  1
  O  O11  1  0.92960500  0.50231200  0.38062600  1
  O  O12  1  0.96018700  0.39836700  0.37867900  1
  O  O13  1  0.08378800  0.54864600  0.47945600  1
  O  O14  1  0.10329000  0.46753400  0.52305500  1
  O  O15  1  0.08318900  0.62000300  0.62265900  1
  O  O16  1  0.04623600  0.51711600  0.62015000  1
  O  O17  1  0.63277700  0.53718200  0.57815600  1
  O  O18  1  0.56102400  0.47190000  0.43275400  1
  O  O19  1  0.53971100  0.44931600  0.57691200  1
  O  O20  1  0.47463700  0.37750900  0.43150700  1
  O  O21  1  0.45231400  0.53699000  0.57718500  1
  O  O22  1  0.38032700  0.46806000  0.43126800  1
  O  O23  1  0.54046600  0.62981700  0.57787000  1
  O  O24  1  0.47171600  0.55763000  0.43194200  1
