# Generated by REPEAT Assigner based on pymatgen
data_DB0-m2_o24_o28_f0_nbo.sym.33_sqe
_audit_creation_date              2022-05-24
_audit_creation_method            REPEAT_Assigner
_cell_length_a                    21.404115
_cell_length_b                    21.404115
_cell_length_c                    46.788358
_cell_angle_alpha                 90.000000
_cell_angle_beta                  90.000000
_cell_angle_gamma                 90.000000
_cell_volume                      21435.438128
_symmetry_space_group_name_H-M    P1
_symmetry_Int_Tables_number       1
loop_
    _symmetry_equiv_pos_site_id
    _symmetry_equiv_pos_as_xyz
    1  x,y,z
loop_
    _atom_site_type_symbol
    _atom_site_label
    _atom_site_fract_x
    _atom_site_fract_y
    _atom_site_fract_z
    _atom_type_partial_charge
    C   C1    0.117992  0.994414  0.498464  0.398577
    C   C2    0.500001  0.999999  0.645012  0.237797
    C   C3    0.450633  0.974123  0.897901  0.006922
    C   C4    0.000000  0.500000  0.553879  0.580838
    C   C5    0.500000  0.000000  0.553879  0.580849
    C   C6    0.500000  0.000000  0.053879  0.580983
    C   C7    0.000000  0.500000  0.053879  0.580997
    C   C8    0.005250  0.380234  0.498482  0.440948
    C   C9    0.619766  0.005250  0.498482  0.441123
    C   C10   0.994750  0.619766  0.498482  0.441093
    C   C11   0.380234  0.994750  0.498482  0.440944
    C   C12   0.505251  0.880235  0.998482  0.440981
    C   C13   0.499999  0.999999  0.145012  0.237759
    C   C14   0.119765  0.505251  0.998482  0.440995
    C   C15   0.494749  0.119765  0.998482  0.441289
    C   C16   0.880235  0.494749  0.998482  0.441153
    C   C17   0.000000  0.500000  0.443966  0.597519
    C   C18   0.500000  0.000000  0.443966  0.597547
    C   C19   0.500000  0.000001  0.943966  0.597340
    C   C20   0.999999  0.500000  0.943966  0.597361
    C   C21   0.522600  0.049778  0.308739  0.285192
    C   C22   0.950222  0.522600  0.308739  0.285310
    C   C23   0.477400  0.950222  0.308739  0.284727
    C   C24   0.000001  0.499999  0.145012  0.237641
    C   C25   0.049778  0.477400  0.308739  0.285265
    C   C26   0.022600  0.549777  0.808740  0.285215
    C   C27   0.450221  0.022600  0.808739  0.284638
    C   C28   0.977400  0.450221  0.808739  0.284560
    C   C29   0.549777  0.977400  0.808740  0.285259
    C   C30   0.481334  0.947324  0.279044  0.009401
    C   C31   0.052676  0.481334  0.279044  0.009203
    C   C32   0.518666  0.052676  0.279044  0.008919
    C   C33   0.947324  0.518666  0.279044  0.008842
    C   C34   0.981334  0.447324  0.779044  0.009652
    C   C35   0.526861  0.951158  0.368450  -0.159886
    C   C36   0.552676  0.981334  0.779044  0.008700
    C   C37   0.018666  0.552676  0.779044  0.008611
    C   C38   0.447324  0.018666  0.779044  0.009531
    C   C39   0.500000  0.000000  0.264115  0.059058
    C   C40   0.000000  0.500000  0.264115  0.059134
    C   C41   0.000000  0.500000  0.764115  0.059108
    C   C42   0.500000  0.000000  0.764115  0.059051
    C   C43   0.464721  0.893696  0.263992  -0.085003
    C   C44   0.106304  0.464721  0.263992  -0.084906
    C   C45   0.535279  0.106304  0.263992  -0.084724
    C   C46   0.048841  0.526860  0.368450  -0.160150
    C   C47   0.893696  0.535279  0.263992  -0.084709
    C   C48   0.964721  0.393697  0.763992  -0.085291
    C   C49   0.606304  0.964721  0.763992  -0.084681
    C   C50   0.035279  0.606304  0.763992  -0.084580
    C   C51   0.393697  0.035279  0.763992  -0.085208
    C   C52   0.966362  0.393207  0.734504  -0.037724
    C   C53   0.606793  0.966362  0.734504  -0.037556
    C   C54   0.033638  0.606793  0.734504  -0.037764
    C   C55   0.393207  0.033638  0.734504  -0.037821
    C   C56   0.466362  0.893207  0.234504  -0.037809
    C   C57   0.473139  0.048843  0.368451  -0.160086
    C   C58   0.106793  0.466362  0.234504  -0.037932
    C   C59   0.533638  0.106793  0.234504  -0.037860
    C   C60   0.893207  0.533639  0.234504  -0.037923
    C   C61   0.984567  0.446343  0.719502  -0.027944
    C   C62   0.553656  0.984567  0.719502  -0.028314
    C   C63   0.015433  0.553656  0.719502  -0.028118
    C   C64   0.446344  0.015433  0.719502  -0.027867
    C   C65   0.484567  0.946344  0.219501  -0.028078
    C   C66   0.053656  0.484567  0.219501  -0.027976
    C   C67   0.515433  0.053656  0.219502  -0.027799
    C   C68   0.951157  0.473138  0.368451  -0.160054
    C   C69   0.946344  0.515433  0.219502  -0.027691
    C   C70   0.000000  0.500000  0.734442  0.127522
    C   C71   0.500000  0.000000  0.734442  0.127654
    C   C72   0.500000  0.000000  0.234442  0.127427
    C   C73   0.000000  0.500000  0.234442  0.127321
    C   C74   0.989992  0.446283  0.689834  0.289027
    C   C75   0.553716  0.989993  0.689834  0.289081
    C   C76   0.010007  0.553716  0.689834  0.288981
    C   C77   0.446283  0.010008  0.689834  0.288958
    C   C78   0.489992  0.946284  0.189834  0.289151
    C   C79   0.026859  0.451161  0.868449  -0.159637
    C   C80   0.053716  0.489992  0.189834  0.289087
    C   C81   0.510008  0.053716  0.189834  0.288957
    C   C82   0.946284  0.510008  0.189834  0.288832
    C   C83   0.049611  0.524980  0.630117  -0.231659
    C   C84   0.475021  0.049610  0.630119  -0.230715
    C   C85   0.950390  0.475021  0.630119  -0.230782
    C   C86   0.524980  0.950389  0.630117  -0.231396
    C   C87   0.549610  0.024980  0.130118  -0.230955
    C   C88   0.975021  0.549610  0.130118  -0.230883
    C   C89   0.450389  0.975020  0.130117  -0.231281
    C   C90   0.548844  0.026862  0.868451  -0.160273
    C   C91   0.024980  0.450388  0.130117  -0.231239
    C   C92   0.048787  0.527763  0.600633  0.157857
    C   C93   0.472236  0.048788  0.600634  0.156834
    C   C94   0.951212  0.472236  0.600634  0.156800
    C   C95   0.527764  0.951213  0.600634  0.157639
    C   C96   0.548788  0.027764  0.100634  0.157141
    C   C97   0.972236  0.548788  0.100634  0.157166
    C   C98   0.451213  0.972236  0.100634  0.157809
    C   C99   0.027764  0.451213  0.100634  0.157796
    C   C100  0.999999  0.500000  0.585443  -0.199759
    C   C101  0.973137  0.548845  0.868452  -0.160542
    C   C102  0.500000  0.000000  0.585443  -0.199796
    C   C103  0.500000  0.000000  0.085443  -0.200089
    C   C104  0.000000  0.500000  0.085443  -0.200112
    C   C105  0.005586  0.117992  0.498464  0.398272
    C   C106  0.451160  0.973140  0.868449  -0.159794
    C   C107  0.500000  0.000000  0.412728  -0.081678
    C   C108  0.000000  0.500000  0.412728  -0.081650
    C   C109  0.000000  0.499999  0.912728  -0.081507
    C   C110  0.499999  0.000000  0.912728  -0.081428
    C   C111  0.500000  0.000001  0.353509  0.149883
    C   C112  0.999999  0.499999  0.353509  0.150057
    C   C113  0.999999  0.500003  0.853509  0.150121
    C   C114  0.500003  0.000001  0.853509  0.150180
    C   C115  0.043421  0.229486  0.519031  -0.055494
    C   C116  0.882008  0.005586  0.498464  0.398357
    C   C117  0.770514  0.043421  0.519031  -0.055521
    C   C118  0.956579  0.770514  0.519031  -0.055220
    C   C119  0.229486  0.956579  0.519031  -0.055103
    C   C120  0.543422  0.729486  0.019031  -0.056448
    C   C121  0.270514  0.543422  0.019031  -0.055774
    C   C122  0.456578  0.270514  0.019031  -0.055901
    C   C123  0.729486  0.456578  0.019031  -0.054860
    C   C124  0.986154  0.270482  0.523408  -0.114127
    C   C125  0.729518  0.986153  0.523408  -0.114046
    C   C126  0.013847  0.729518  0.523408  -0.114067
    C   C127  0.994414  0.882008  0.498464  0.398626
    C   C128  0.270482  0.013846  0.523408  -0.114225
    C   C129  0.486153  0.770482  0.023408  -0.114108
    C   C130  0.229518  0.486153  0.023408  -0.114307
    C   C131  0.513846  0.229518  0.023408  -0.113918
    C   C132  0.770482  0.513846  0.023408  -0.114308
    C   C133  0.007565  0.310809  0.498340  0.300914
    C   C134  0.689191  0.007565  0.498340  0.300611
    C   C135  0.992435  0.689191  0.498340  0.300698
    C   C136  0.310809  0.992435  0.498340  0.301068
    C   C137  0.507566  0.810809  0.998340  0.300600
    C   C138  0.617992  0.494414  0.998464  0.398619
    C   C139  0.189191  0.507566  0.998340  0.300627
    C   C140  0.492434  0.189191  0.998340  0.300577
    C   C141  0.810809  0.492434  0.998341  0.300865
    C   C142  0.064539  0.270085  0.494598  -0.111236
    C   C143  0.729915  0.064539  0.494598  -0.111203
    C   C144  0.935461  0.729915  0.494598  -0.111631
    C   C145  0.270085  0.935461  0.494598  -0.111769
    C   C146  0.564540  0.770085  0.994598  -0.110455
    C   C147  0.229915  0.564540  0.994598  -0.110605
    C   C148  0.435460  0.229915  0.994598  -0.111613
    C   C149  0.505586  0.617992  0.998464  0.397668
    C   C150  0.770085  0.435461  0.994598  -0.112154
    C   C151  0.029071  0.229195  0.474048  0.084045
    C   C152  0.770805  0.029071  0.474048  0.083910
    C   C153  0.970929  0.770805  0.474048  0.084265
    C   C154  0.229195  0.970929  0.474048  0.084554
    C   C155  0.529071  0.729196  0.974048  0.083927
    C   C156  0.270804  0.529071  0.974048  0.084376
    C   C157  0.470929  0.270805  0.974048  0.084237
    C   C158  0.729195  0.470929  0.974048  0.085001
    C   C159  0.971540  0.270238  0.477131  -0.215833
    C   C160  0.382008  0.505586  0.998464  0.397962
    C   C161  0.729762  0.971540  0.477131  -0.215645
    C   C162  0.028461  0.729762  0.477131  -0.215790
    C   C163  0.270238  0.028460  0.477131  -0.216041
    C   C164  0.471540  0.770238  0.977130  -0.215995
    C   C165  0.229762  0.471540  0.977130  -0.216154
    C   C166  0.528460  0.229762  0.977130  -0.216075
    C   C167  0.770238  0.528460  0.977130  -0.216466
    C   C168  0.952297  0.229373  0.502069  -0.135018
    C   C169  0.770627  0.952297  0.502069  -0.135006
    C   C170  0.047703  0.770627  0.502069  -0.134823
    C   C171  0.494414  0.382008  0.998464  0.397924
    C   C172  0.229373  0.047703  0.502069  -0.134780
    C   C173  0.452297  0.729373  0.002069  -0.133862
    C   C174  0.270627  0.452297  0.002069  -0.133709
    C   C175  0.547703  0.270627  0.002069  -0.134349
    C   C176  0.729373  0.547703  0.002069  -0.133534
    C   C177  0.008405  0.187564  0.498443  0.259791
    C   C178  0.812436  0.008405  0.498443  0.259756
    C   C179  0.991595  0.812436  0.498443  0.259257
    C   C180  0.187564  0.991595  0.498443  0.259171
    C   C181  0.508405  0.687564  0.998443  0.259783
    C   C182  0.000001  0.500001  0.645012  0.237889
    C   C183  0.312436  0.508405  0.998443  0.259130
    C   C184  0.491595  0.312436  0.998443  0.259536
    C   C185  0.687564  0.491595  0.998443  0.258344
    C   C186  0.525877  0.950633  0.397902  0.007308
    C   C187  0.049367  0.525877  0.397902  0.007342
    C   C188  0.474123  0.049367  0.397902  0.007735
    C   C189  0.950633  0.474123  0.397902  0.007738
    C   C190  0.025877  0.450633  0.897901  0.006863
    C   C191  0.549366  0.025877  0.897903  0.007696
    C   C192  0.974123  0.549366  0.897903  0.008033
    Cu  Cu1   0.000000  0.000000  0.470591  0.986104
    Cu  Cu2   0.002605  0.437792  0.998870  1.020554
    Cu  Cu3   0.562209  0.002605  0.998870  1.020690
    Cu  Cu4   0.997395  0.562209  0.998870  1.020703
    Cu  Cu5   0.500000  0.500000  0.970591  0.985863
    Cu  Cu6   0.000000  0.000000  0.526300  0.974734
    Cu  Cu7   0.500000  0.500000  0.026300  0.974761
    Cu  Cu8   0.937791  0.497395  0.498870  1.020593
    Cu  Cu9   0.502605  0.937792  0.498870  1.020569
    Cu  Cu10  0.062208  0.502605  0.498870  1.020543
    Cu  Cu11  0.497395  0.062209  0.498870  1.020632
    Cu  Cu12  0.437792  0.997395  0.998870  1.020596
    H   H1    0.549053  0.913070  0.357170  0.152032
    H   H2    0.713021  0.967843  0.544234  0.134259
    H   H3    0.032157  0.713021  0.544234  0.134222
    H   H4    0.286979  0.032157  0.544234  0.134260
    H   H5    0.467843  0.786979  0.044234  0.134260
    H   H6    0.213021  0.467843  0.044234  0.134290
    H   H7    0.532157  0.213021  0.044234  0.134232
    H   H8    0.786979  0.532157  0.044234  0.134250
    H   H9    0.940622  0.286739  0.459679  0.162425
    H   H10   0.713261  0.940622  0.459679  0.162405
    H   H11   0.059378  0.713261  0.459679  0.162450
    H   H12   0.086931  0.549054  0.357170  0.152073
    H   H13   0.286739  0.059378  0.459679  0.162463
    H   H14   0.440622  0.786739  0.959679  0.162522
    H   H15   0.213260  0.440622  0.959679  0.162546
    H   H16   0.559378  0.213261  0.959679  0.162572
    H   H17   0.786739  0.559378  0.959679  0.162632
    H   H18   0.547041  0.912001  0.409193  0.111908
    H   H19   0.088000  0.547041  0.409193  0.111916
    H   H20   0.452959  0.087998  0.409192  0.111848
    H   H21   0.912002  0.452959  0.409192  0.111853
    H   H22   0.047042  0.412000  0.909193  0.111927
    H   H23   0.450947  0.086929  0.357171  0.151981
    H   H24   0.587998  0.047041  0.909192  0.111904
    H   H25   0.952959  0.587998  0.909191  0.111882
    H   H26   0.412000  0.952959  0.909193  0.111935
    H   H27   0.088337  0.545007  0.641764  0.201569
    H   H28   0.454993  0.088336  0.641764  0.201384
    H   H29   0.911664  0.454993  0.641765  0.201397
    H   H30   0.545007  0.911663  0.641764  0.201519
    H   H31   0.588337  0.045007  0.141764  0.201394
    H   H32   0.954993  0.588337  0.141764  0.201384
    H   H33   0.411664  0.954993  0.141764  0.201497
    H   H34   0.913071  0.450947  0.357171  0.151983
    H   H35   0.045007  0.411664  0.141764  0.201516
    H   H36   0.049054  0.413069  0.857170  0.151963
    H   H37   0.586928  0.049053  0.857171  0.152007
    H   H38   0.950947  0.586928  0.857171  0.152074
    H   H39   0.413069  0.950946  0.857170  0.152014
    H   H40   0.967843  0.286979  0.544234  0.134287
    N   N1    0.500001  0.000000  0.322932  -0.007315
    N   N2    0.662042  0.946600  0.720026  0.561870
    N   N3    0.053400  0.662042  0.720026  0.562200
    N   N4    0.337958  0.053400  0.720026  0.562086
    N   N5    0.446600  0.837958  0.220026  0.561873
    N   N6    0.162042  0.446600  0.220026  0.561884
    N   N7    0.553400  0.162042  0.220026  0.561985
    N   N8    0.837958  0.553400  0.220026  0.562044
    N   N9    0.097029  0.562205  0.586598  0.611641
    N   N10   0.437796  0.097030  0.586598  0.612174
    N   N11   0.902970  0.437796  0.586598  0.612224
    N   N12   0.000001  0.500001  0.322932  -0.007648
    N   N13   0.562205  0.902970  0.586598  0.611592
    N   N14   0.597030  0.062204  0.086598  0.612281
    N   N15   0.937796  0.597030  0.086598  0.612132
    N   N16   0.402970  0.937795  0.086598  0.611499
    N   N17   0.062205  0.402970  0.086598  0.611524
    N   N18   0.082961  0.209424  0.542543  0.647876
    N   N19   0.790576  0.082961  0.542543  0.647907
    N   N20   0.917039  0.790576  0.542543  0.647938
    N   N21   0.209424  0.917039  0.542543  0.647921
    N   N22   0.582961  0.709423  0.042543  0.648175
    N   N23   0.000003  0.499998  0.822932  -0.007221
    N   N24   0.290576  0.582961  0.042543  0.647810
    N   N25   0.417039  0.290576  0.042543  0.648055
    N   N26   0.709424  0.417039  0.042543  0.647773
    N   N27   0.127639  0.293156  0.489944  0.566222
    N   N28   0.706844  0.127639  0.489944  0.566289
    N   N29   0.872361  0.706844  0.489944  0.566414
    N   N30   0.293156  0.872361  0.489944  0.566359
    N   N31   0.627639  0.793156  0.989944  0.565792
    N   N32   0.206844  0.627639  0.989944  0.565777
    N   N33   0.372361  0.206844  0.989944  0.566602
    N   N34   0.499999  0.999998  0.822932  -0.007267
    N   N35   0.793156  0.372361  0.989944  0.566585
    N   N36   0.051750  0.206833  0.446621  0.500452
    N   N37   0.793167  0.051750  0.446621  0.500533
    N   N38   0.948250  0.793167  0.446621  0.500592
    N   N39   0.206833  0.948250  0.446621  0.500486
    N   N40   0.551751  0.706833  0.946621  0.500316
    N   N41   0.293167  0.551751  0.946621  0.500125
    N   N42   0.448249  0.293167  0.946621  0.500567
    N   N43   0.706833  0.448250  0.946621  0.500251
    N   N44   0.889095  0.206763  0.506098  0.743485
    N   N45   0.999999  0.500000  0.675606  -0.038303
    N   N46   0.793237  0.889095  0.506098  0.743481
    N   N47   0.110905  0.793237  0.506098  0.743527
    N   N48   0.206763  0.110905  0.506098  0.743468
    N   N49   0.389095  0.706763  0.006098  0.742494
    N   N50   0.293237  0.389095  0.006098  0.742436
    N   N51   0.610905  0.293237  0.006098  0.742742
    N   N52   0.706763  0.610905  0.006098  0.742315
    N   N53   0.447326  0.837583  0.278398  0.571646
    N   N54   0.162417  0.447326  0.278398  0.571853
    N   N55   0.552674  0.162417  0.278398  0.571340
    N   N56   0.500000  0.000001  0.675606  -0.038341
    N   N57   0.837583  0.552674  0.278398  0.571424
    N   N58   0.947326  0.337583  0.778398  0.571632
    N   N59   0.662417  0.947326  0.778398  0.571333
    N   N60   0.052674  0.662417  0.778398  0.571283
    N   N61   0.337583  0.052674  0.778398  0.571627
    N   N62   0.500001  0.000000  0.175606  -0.038347
    N   N63   0.000000  0.500001  0.175606  -0.038194
    N   N64   0.946600  0.337958  0.720026  0.562083
    O   O1    0.087974  0.977904  0.474975  -0.476679
    O   O2    0.986093  0.089608  0.521921  -0.467026
    O   O3    0.849658  0.091606  0.547561  -0.365855
    O   O4    0.894823  0.749288  0.560208  -0.340220
    O   O5    0.908394  0.849658  0.547561  -0.365875
    O   O6    0.250712  0.894823  0.560208  -0.340221
    O   O7    0.150342  0.908394  0.547561  -0.365870
    O   O8    0.605177  0.750711  0.060208  -0.340214
    O   O9    0.591606  0.650342  0.047562  -0.365551
    O   O10   0.249288  0.605177  0.060208  -0.340084
    O   O11   0.349658  0.591606  0.047562  -0.365563
    O   O12   0.394823  0.249289  0.060208  -0.340207
    O   O13   0.910392  0.986093  0.521921  -0.467032
    O   O14   0.408394  0.349658  0.047562  -0.365579
    O   O15   0.750711  0.394823  0.060208  -0.340196
    O   O16   0.650342  0.408394  0.047561  -0.365718
    O   O17   0.172502  0.277765  0.507287  -0.298948
    O   O18   0.139531  0.328841  0.468120  -0.339242
    O   O19   0.722235  0.172502  0.507287  -0.298963
    O   O20   0.671159  0.139531  0.468120  -0.339250
    O   O21   0.827498  0.722235  0.507287  -0.298981
    O   O22   0.860469  0.671159  0.468120  -0.339278
    O   O23   0.277765  0.827498  0.507287  -0.298965
    O   O24   0.013907  0.910392  0.521921  -0.467091
    O   O25   0.328841  0.860469  0.468120  -0.339276
    O   O26   0.672502  0.777765  0.007288  -0.298770
    O   O27   0.639531  0.828841  0.968120  -0.339258
    O   O28   0.222235  0.672502  0.007288  -0.298760
    O   O29   0.171159  0.639531  0.968120  -0.339219
    O   O30   0.327498  0.222235  0.007287  -0.299018
    O   O31   0.360468  0.171159  0.968120  -0.339259
    O   O32   0.777765  0.327498  0.007287  -0.299006
    O   O33   0.828841  0.360468  0.968120  -0.339255
    O   O34   0.109729  0.214931  0.439253  -0.263427
    O   O35   0.589608  0.513907  0.021921  -0.467103
    O   O36   0.013293  0.179920  0.428986  -0.336474
    O   O37   0.785069  0.109729  0.439253  -0.263447
    O   O38   0.820080  0.013293  0.428986  -0.336501
    O   O39   0.890271  0.785069  0.439253  -0.263464
    O   O40   0.986707  0.820079  0.428986  -0.336547
    O   O41   0.214931  0.890271  0.439253  -0.263438
    O   O42   0.179921  0.986707  0.428986  -0.336523
    O   O43   0.609730  0.714931  0.939253  -0.263269
    O   O44   0.513293  0.679920  0.928986  -0.336515
    O   O45   0.285068  0.609730  0.939253  -0.263227
    O   O46   0.486093  0.589608  0.021921  -0.466912
    O   O47   0.320080  0.513293  0.928986  -0.336483
    O   O48   0.390270  0.285069  0.939253  -0.263308
    O   O49   0.486706  0.320079  0.928986  -0.336631
    O   O50   0.714931  0.390270  0.939253  -0.263343
    O   O51   0.679921  0.486707  0.928986  -0.336505
    O   O52   0.856916  0.224790  0.528168  -0.325364
    O   O53   0.863252  0.171814  0.486703  -0.394552
    O   O54   0.775210  0.856916  0.528168  -0.325357
    O   O55   0.828186  0.863252  0.486703  -0.394574
    O   O56   0.143084  0.775210  0.528168  -0.325397
    O   O57   0.410392  0.486093  0.021921  -0.466984
    O   O58   0.136748  0.828186  0.486703  -0.394587
    O   O59   0.224790  0.143084  0.528168  -0.325372
    O   O60   0.171814  0.136748  0.486703  -0.394555
    O   O61   0.356916  0.724790  0.028168  -0.325297
    O   O62   0.363252  0.671814  0.986702  -0.394258
    O   O63   0.275210  0.356916  0.028168  -0.325273
    O   O64   0.328186  0.363252  0.986702  -0.394131
    O   O65   0.643084  0.275210  0.028168  -0.325296
    O   O66   0.636748  0.328186  0.986702  -0.394103
    O   O67   0.724790  0.643084  0.028168  -0.325258
    O   O68   0.513907  0.410392  0.021921  -0.466939
    O   O69   0.671814  0.636748  0.986702  -0.394103
    O   O70   0.489822  0.804713  0.291402  -0.276152
    O   O71   0.391833  0.814199  0.274665  -0.274077
    O   O72   0.195287  0.489822  0.291402  -0.276216
    O   O73   0.185801  0.391833  0.274665  -0.274122
    O   O74   0.510178  0.195287  0.291402  -0.276128
    O   O75   0.608167  0.185801  0.274665  -0.274010
    O   O76   0.804713  0.510178  0.291402  -0.276164
    O   O77   0.814199  0.608167  0.274665  -0.274017
    O   O78   0.989822  0.304712  0.791402  -0.276064
    O   O79   0.946200  0.502134  0.540379  -0.563477
    O   O80   0.891833  0.314199  0.774665  -0.274073
    O   O81   0.695287  0.989822  0.791402  -0.276113
    O   O82   0.685801  0.891833  0.774665  -0.274009
    O   O83   0.010178  0.695287  0.791402  -0.276122
    O   O84   0.108167  0.685801  0.774665  -0.274009
    O   O85   0.304712  0.010178  0.791402  -0.276075
    O   O86   0.314199  0.108167  0.774665  -0.274068
    O   O87   0.497866  0.946199  0.540379  -0.563635
    O   O88   0.053801  0.497866  0.540379  -0.563523
    O   O89   0.022096  0.087974  0.474975  -0.476532
    O   O90   0.502134  0.053800  0.540379  -0.563508
    O   O91   0.446199  0.002134  0.040379  -0.563546
    O   O92   0.997866  0.446199  0.040379  -0.563542
    O   O93   0.553800  0.997866  0.040379  -0.563610
    O   O94   0.002134  0.553800  0.040379  -0.563570
    O   O95   0.950443  0.407121  0.500710  -0.497390
    O   O96   0.592879  0.950443  0.500710  -0.497446
    O   O97   0.049557  0.592879  0.500710  -0.497410
    O   O98   0.407121  0.049557  0.500710  -0.497423
    O   O99   0.450443  0.907121  0.000710  -0.497559
    O   O100  0.912026  0.022096  0.474975  -0.476527
    O   O101  0.092879  0.450443  0.000710  -0.497513
    O   O102  0.549557  0.092879  0.000710  -0.497593
    O   O103  0.907121  0.549557  0.000710  -0.497568
    O   O104  0.057904  0.411388  0.499072  -0.474066
    O   O105  0.588612  0.057904  0.499072  -0.474104
    O   O106  0.942096  0.588612  0.499072  -0.474071
    O   O107  0.411388  0.942096  0.499072  -0.474006
    O   O108  0.557904  0.911388  0.999072  -0.473933
    O   O109  0.088612  0.557904  0.999072  -0.473951
    O   O110  0.442096  0.088612  0.999072  -0.474120
    O   O111  0.977904  0.912026  0.474975  -0.476663
    O   O112  0.911388  0.442096  0.999072  -0.474053
    O   O113  0.946151  0.498451  0.457311  -0.578527
    O   O114  0.501549  0.946151  0.457311  -0.578432
    O   O115  0.053849  0.501549  0.457311  -0.578411
    O   O116  0.498451  0.053849  0.457311  -0.578524
    O   O117  0.446151  0.998451  0.957311  -0.578369
    O   O118  0.001549  0.446151  0.957311  -0.578352
    O   O119  0.553850  0.001549  0.957311  -0.578440
    O   O120  0.998451  0.553850  0.957311  -0.578528
    O   O121  0.550857  0.095219  0.323744  -0.373872
    O   O122  0.587974  0.477903  0.974975  -0.476468
    O   O123  0.904781  0.550857  0.323744  -0.373951
    O   O124  0.449143  0.904780  0.323744  -0.373883
    O   O125  0.095220  0.449143  0.323743  -0.374100
    O   O126  0.050857  0.595219  0.823744  -0.373860
    O   O127  0.404780  0.050857  0.823744  -0.373869
    O   O128  0.949143  0.404780  0.823744  -0.373859
    O   O129  0.595219  0.949143  0.823744  -0.373906
    O   O130  0.987722  0.392680  0.674928  -0.368697
    O   O131  0.607320  0.987722  0.674928  -0.368509
    O   O132  0.012278  0.607320  0.674928  -0.368528
    O   O133  0.522097  0.587974  0.974975  -0.476276
    O   O134  0.392680  0.012278  0.674928  -0.368693
    O   O135  0.487722  0.892680  0.174928  -0.368596
    O   O136  0.107320  0.487722  0.174928  -0.368574
    O   O137  0.512278  0.107320  0.174928  -0.368691
    O   O138  0.892680  0.512278  0.174928  -0.368715
    O   O139  0.893601  0.337719  0.706413  -0.287537
    O   O140  0.976294  0.285665  0.724031  -0.267621
    O   O141  0.662281  0.893601  0.706413  -0.287512
    O   O142  0.714334  0.976294  0.724031  -0.267628
    O   O143  0.106398  0.662281  0.706413  -0.287679
    O   O144  0.412026  0.522096  0.974975  -0.476301
    O   O145  0.023706  0.714334  0.724031  -0.267675
    O   O146  0.337719  0.106399  0.706413  -0.287532
    O   O147  0.285665  0.023706  0.724031  -0.267621
    O   O148  0.393601  0.837719  0.206413  -0.287479
    O   O149  0.476294  0.785665  0.224031  -0.267556
    O   O150  0.162281  0.393601  0.206413  -0.287487
    O   O151  0.214335  0.476294  0.224031  -0.267570
    O   O152  0.606399  0.162281  0.206413  -0.287517
    O   O153  0.523706  0.214335  0.224031  -0.267557
    O   O154  0.837719  0.606399  0.206413  -0.287509
    O   O155  0.477904  0.412026  0.974975  -0.476334
    O   O156  0.785665  0.523706  0.224031  -0.267593
    O   O157  0.152756  0.563048  0.597654  -0.353129
    O   O158  0.082107  0.604883  0.568022  -0.325421
    O   O159  0.436952  0.152755  0.597653  -0.353349
    O   O160  0.395116  0.082107  0.568022  -0.325451
    O   O161  0.847245  0.436952  0.597653  -0.353350
    O   O162  0.917893  0.395116  0.568022  -0.325496
    O   O163  0.563049  0.847244  0.597654  -0.353086
    O   O164  0.604884  0.917893  0.568022  -0.325265
    O   O165  0.652755  0.063048  0.097653  -0.353372
    O   O166  0.089608  0.013907  0.521921  -0.467066
    O   O167  0.582107  0.104884  0.068022  -0.325503
    O   O168  0.936952  0.652755  0.097653  -0.353336
    O   O169  0.895116  0.582107  0.068022  -0.325435
    O   O170  0.347244  0.936952  0.097654  -0.353080
    O   O171  0.417893  0.895116  0.068022  -0.325297
    O   O172  0.063048  0.347244  0.097654  -0.353075
    O   O173  0.104884  0.417893  0.068022  -0.325333
    O   O174  0.105177  0.250712  0.560208  -0.340192
    O   O175  0.091606  0.150342  0.547561  -0.365837
    O   O176  0.749288  0.105177  0.560208  -0.340203
