# generated using pymatgen
data_Zn3H17C41O19
_symmetry_space_group_name_H-M   'P 1'
_cell_length_a   27.33270100
_cell_length_b   27.68510700
_cell_length_c   27.35993900
_cell_angle_alpha   109.70974900
_cell_angle_beta   110.61562000
_cell_angle_gamma   108.31878600
_symmetry_Int_Tables_number   1
_chemical_formula_structural   Zn3H17C41O19
_chemical_formula_sum   'Zn6 H34 C82 O38'
_cell_volume   15887.22259847
_cell_formula_units_Z   2
loop_
 _symmetry_equiv_pos_site_id
 _symmetry_equiv_pos_as_xyz
  1  'x, y, z'
loop_
 _atom_site_type_symbol
 _atom_site_label
 _atom_site_symmetry_multiplicity
 _atom_site_fract_x
 _atom_site_fract_y
 _atom_site_fract_z
 _atom_site_occupancy
  Zn  Zn1  1  0.00249200  0.04931400  0.54939000  1
  Zn  Zn2  1  0.99847700  0.95051400  0.45341100  1
  Zn  Zn3  1  0.42745600  0.96193300  0.98211000  1
  Zn  Zn4  1  0.52165400  0.03953300  0.96808800  1
  Zn  Zn5  1  0.55715500  0.50318100  0.55935800  1
  Zn  Zn6  1  0.45785700  0.49459300  0.45538600  1
  H  H1  1  0.17056800  0.15582700  0.40220700  1
  H  H2  1  0.24920500  0.23099800  0.40333100  1
  H  H3  1  0.34345000  0.32681700  0.59592400  1
  H  H4  1  0.26480800  0.25163300  0.59477900  1
  H  H5  1  0.64578500  0.90469000  0.14888300  1
  H  H6  1  0.74685500  0.09110900  0.24464800  1
  H  H7  1  0.82431700  0.08896100  0.32256200  1
  H  H8  1  0.84822800  0.76206000  0.53222700  1
  H  H9  1  0.77280400  0.68526400  0.53220000  1
  H  H10  1  0.55469100  0.82637600  0.82532100  1
  H  H11  1  0.38402500  0.63574100  0.65429000  1
  H  H12  1  0.51793000  0.28391000  0.16635800  1
  H  H13  1  0.54576800  0.26406900  0.34455200  1
  H  H14  1  0.59923000  0.85183700  0.54131600  1
  H  H15  1  0.56624700  0.77721000  0.52686800  1
  H  H16  1  0.55864200  0.79088500  0.46484200  1
  H  H17  1  0.79671600  0.98352700  0.53281500  1
  H  H18  1  0.71714800  0.93892700  0.50104900  1
  H  H19  1  0.75036600  0.92609600  0.45427900  1
  H  H20  1  0.66102600  0.70634800  0.70990100  1
  H  H21  1  0.68865200  0.75138700  0.78922200  1
  H  H22  1  0.67880000  0.78251100  0.74000100  1
  H  H23  1  0.21487200  0.59005000  0.60936100  1
  H  H24  1  0.23364400  0.66623700  0.64781700  1
  H  H25  1  0.24030100  0.62686000  0.68901300  1
  H  H26  1  0.57100200  0.51114100  0.34882500  1
  H  H27  1  0.50304000  0.46368200  0.27554500  1
  H  H28  1  0.57580500  0.48935800  0.28128200  1
  H  H29  1  0.56890900  0.07325400  0.19393700  1
  H  H30  1  0.51361300  0.06164600  0.21660700  1
  H  H31  1  0.59300400  0.10912900  0.27331500  1
  H  H32  1  0.61855100  0.74646700  0.11951100  1
  H  H33  1  0.65416200  0.77514500  0.20010400  1
  H  H34  1  0.69817600  0.77393300  0.16351500  1
  C  C1  1  0.08214900  0.07798400  0.49889200  1
  C  C2  1  0.08543100  0.00115500  0.58699400  1
  C  C3  1  0.91901000  0.92185500  0.50410600  1
  C  C4  1  0.91553600  0.99868100  0.41578000  1
  C  C5  1  0.13259300  0.00126500  0.63394700  1
  C  C6  1  0.17196700  0.00139100  0.67319900  1
  C  C7  1  0.21830100  0.00152500  0.71945400  1
  C  C8  1  0.25761200  0.00163300  0.75875100  1
  C  C9  1  0.30386400  0.00173900  0.80505400  1
  C  C10  1  0.34302400  0.00170500  0.84435100  1
  C  C11  1  0.25278800  0.23534900  0.44539500  1
  C  C12  1  0.30120400  0.28325800  0.49969100  1
  C  C13  1  0.30563200  0.28907500  0.55336900  1
  C  C14  1  0.26153700  0.24699000  0.55273100  1
  C  C15  1  0.21300800  0.19920300  0.49843200  1
  C  C16  1  0.20868700  0.19326200  0.44476100  1
  C  C17  1  0.34619400  0.32788700  0.50031700  1
  C  C18  1  0.16666000  0.15608800  0.49789900  1
  C  C19  1  0.12789200  0.12025100  0.49798900  1
  C  C20  1  0.38351900  0.36591100  0.50093800  1
  C  C21  1  0.68539300  0.94480200  0.18736100  1
  C  C22  1  0.69104800  0.99768300  0.19143700  1
  C  C23  1  0.74144400  0.04928600  0.24053200  1
  C  C24  1  0.78524000  0.04797500  0.28463400  1
  C  C25  1  0.78002800  0.99527700  0.28109900  1
  C  C26  1  0.72900800  0.94270500  0.23142000  1
  C  C27  1  0.64471300  0.99874200  0.14479700  1
  C  C28  1  0.82816100  0.99714200  0.32904200  1
  C  C29  1  0.86808700  0.99822500  0.36873900  1
  C  C30  1  0.60593000  0.99940800  0.10573700  1
  C  C31  1  0.76350200  0.71744500  0.52308300  1
  C  C32  1  0.70928100  0.71508500  0.51133800  1
  C  C33  1  0.69706400  0.75641900  0.49996900  1
  C  C34  1  0.73994600  0.80007900  0.50010800  1
  C  C35  1  0.79436500  0.80186600  0.51206400  1
  C  C36  1  0.80594100  0.76074600  0.52356900  1
  C  C37  1  0.66687800  0.67021700  0.51302600  1
  C  C38  1  0.83820900  0.84415700  0.50920500  1
  C  C39  1  0.87504400  0.87961700  0.50680200  1
  C  C40  1  0.63102800  0.63200900  0.51361200  1
  C  C41  1  0.45962800  0.90643900  0.89261000  1
  C  C42  1  0.38970000  0.00137300  0.89132400  1
  C  C43  1  0.48980700  0.09510200  0.05781000  1
  C  C44  1  0.55938100  0.00006300  0.05889200  1
  C  C45  1  0.52067400  0.42430600  0.43183000  1
  C  C46  1  0.42723900  0.41196800  0.50184100  1
  C  C47  1  0.49442100  0.57354500  0.58294400  1
  C  C48  1  0.58771400  0.58579200  0.51288700  1
  C  C49  1  0.52744700  0.74479100  0.75074700  1
  C  C50  1  0.47800900  0.69141600  0.70250400  1
  C  C51  1  0.42112000  0.67782600  0.69241600  1
  C  C52  1  0.41159700  0.71702100  0.72954600  1
  C  C53  1  0.46094600  0.77069000  0.77723600  1
  C  C54  1  0.51780100  0.78390300  0.78766900  1
  C  C55  1  0.48340000  0.64933600  0.66054800  1
  C  C56  1  0.45610700  0.81586300  0.81622800  1
  C  C57  1  0.45577100  0.85623200  0.85041700  1
  C  C58  1  0.48812700  0.61436800  0.62499700  1
  C  C59  1  0.53148700  0.32416700  0.25539000  1
  C  C60  1  0.53767700  0.31653500  0.30434700  1
  C  C61  1  0.54088700  0.26834800  0.30551600  1
  C  C62  1  0.53655500  0.22586000  0.25733000  1
  C  C63  1  0.52691900  0.23183700  0.20694500  1
  C  C64  1  0.52519300  0.28074800  0.20636500  1
  C  C65  1  0.53398400  0.35438800  0.35155900  1
  C  C66  1  0.51364000  0.18556600  0.15268200  1
  C  C67  1  0.50215400  0.14503600  0.10808500  1
  C  C68  1  0.52866900  0.38597800  0.38937700  1
  C  C69  1  0.64040100  0.75557300  0.49115200  1
  C  C70  1  0.58873800  0.80630000  0.51298000  1
  C  C71  1  0.72684100  0.84190200  0.48371800  1
  C  C72  1  0.75738300  0.93872700  0.50023200  1
  C  C73  1  0.58973800  0.76214800  0.76408500  1
  C  C74  1  0.66055100  0.74247800  0.74311700  1
  C  C75  1  0.34954200  0.70027800  0.71638500  1
  C  C76  1  0.24545700  0.63258300  0.65256800  1
  C  C77  1  0.52927900  0.37595700  0.25303700  1
  C  C78  1  0.55032300  0.47483600  0.30212600  1
  C  C79  1  0.54017400  0.17477600  0.26043400  1
  C  C80  1  0.55748700  0.09424100  0.22740000  1
  C  C81  1  0.71904000  0.88414400  0.22328600  1
  C  C82  1  0.66011000  0.78022700  0.16372900  1
  O  O1  1  0.06545900  0.09749300  0.53735000  1
  O  O2  1  0.06004600  0.02188100  0.46207500  1
  O  O3  1  0.06752200  0.03966500  0.60318200  1
  O  O4  1  0.06224900  0.96257400  0.52986200  1
  O  O5  1  0.94100400  0.97796100  0.54081400  1
  O  O6  1  0.93559900  0.90234000  0.46554900  1
  O  O7  1  0.93871300  0.03723500  0.47291800  1
  O  O8  1  0.93343500  0.96016400  0.39963800  1
  O  O9  1  0.42578000  0.89841100  0.91621600  1
  O  O10  1  0.49973900  0.95816500  0.90803400  1
  O  O11  1  0.37384100  0.97025000  0.91574600  1
  O  O12  1  0.44617400  0.03187300  0.90757700  1
  O  O13  1  0.44966400  0.04335400  0.04241500  1
  O  O14  1  0.52363300  0.10305800  0.03422000  1
  O  O15  1  0.50287800  0.96958600  0.04262500  1
  O  O16  1  0.57529300  0.03119900  0.03444400  1
  O  O17  1  0.55673200  0.44594100  0.48945600  1
  O  O18  1  0.47908200  0.43770400  0.41050700  1
  O  O19  1  0.48413800  0.43500900  0.54147800  1
  O  O20  1  0.40791000  0.43004300  0.46421700  1
  O  O21  1  0.53607400  0.56020500  0.60432600  1
  O  O22  1  0.45840400  0.55193600  0.52533900  1
  O  O23  1  0.60710300  0.56773500  0.55055600  1
  O  O24  1  0.53084200  0.56277500  0.47328500  1
  O  O25  1  0.59285100  0.70948300  0.45711400  1
  O  O26  1  0.64098300  0.80596700  0.52082500  1
  O  O27  1  0.67887900  0.82425600  0.43995200  1
  O  O28  1  0.76804000  0.89964200  0.51634600  1
  O  O29  1  0.63048500  0.81042900  0.80682100  1
  O  O30  1  0.60268700  0.72583600  0.73032400  1
  O  O31  1  0.33917900  0.73086200  0.75084500  1
  O  O32  1  0.30351900  0.64968100  0.66586200  1
  O  O33  1  0.50891400  0.37385800  0.20444400  1
  O  O34  1  0.55210400  0.42655200  0.30406900  1
  O  O35  1  0.53325800  0.16394500  0.29794000  1
  O  O36  1  0.55389600  0.14158400  0.22449600  1
  O  O37  1  0.75333200  0.87916200  0.26165200  1
  O  O38  1  0.67082500  0.83520300  0.17266500  1
