# generated using pymatgen
data_Cu3H34C70(ClO3)4
_symmetry_space_group_name_H-M   'P 1'
_cell_length_a   37.69570300
_cell_length_b   21.60355100
_cell_length_c   21.52065100
_cell_angle_alpha   90.00000000
_cell_angle_beta   122.90396500
_cell_angle_gamma   90.00000000
_symmetry_Int_Tables_number   1
_chemical_formula_structural   Cu3H34C70(ClO3)4
_chemical_formula_sum   'Cu12 H136 C280 Cl16 O48'
_cell_volume   14714.16611623
_cell_formula_units_Z   4
loop_
 _symmetry_equiv_pos_site_id
 _symmetry_equiv_pos_as_xyz
  1  'x, y, z'
loop_
 _atom_site_type_symbol
 _atom_site_label
 _atom_site_symmetry_multiplicity
 _atom_site_fract_x
 _atom_site_fract_y
 _atom_site_fract_z
 _atom_site_occupancy
  Cu  Cu1  1  0.00000000  0.06164400  0.50000000  1
  Cu  Cu2  1  0.50000000  0.56164400  0.50000000  1
  Cu  Cu3  1  0.00000000  0.94098800  0.50000000  1
  Cu  Cu4  1  0.50000000  0.44098800  0.50000000  1
  Cu  Cu5  1  0.49796300  0.99196500  0.05859600  1
  Cu  Cu6  1  0.50203700  0.99196500  0.94140400  1
  Cu  Cu7  1  0.99796300  0.49196500  0.05859600  1
  Cu  Cu8  1  0.00203700  0.49196500  0.94140400  1
  Cu  Cu9  1  0.04137400  0.99170200  0.03622800  1
  Cu  Cu10  1  0.95862600  0.99170200  0.96377200  1
  Cu  Cu11  1  0.54137400  0.49170200  0.03622800  1
  Cu  Cu12  1  0.45862600  0.49170200  0.96377200  1
  H  H1  1  0.72327800  0.08047400  0.29124300  1
  H  H2  1  0.27672200  0.08047400  0.70875700  1
  H  H3  1  0.22327800  0.58047400  0.29124300  1
  H  H4  1  0.77672200  0.58047400  0.70875700  1
  H  H5  1  0.72464100  0.89887000  0.26574300  1
  H  H6  1  0.27535900  0.89887000  0.73425700  1
  H  H7  1  0.22464100  0.39887000  0.26574300  1
  H  H8  1  0.77535900  0.39887000  0.73425700  1
  H  H9  1  0.77772300  0.91463900  0.21170900  1
  H  H10  1  0.22227700  0.91463900  0.78829100  1
  H  H11  1  0.27772300  0.41463900  0.21170900  1
  H  H12  1  0.72227700  0.41463900  0.78829100  1
  H  H13  1  0.77471700  0.09650800  0.23236400  1
  H  H14  1  0.22528300  0.09650800  0.76763600  1
  H  H15  1  0.27471700  0.59650800  0.23236400  1
  H  H16  1  0.72528300  0.59650800  0.76763600  1
  H  H17  1  0.07204600  0.17772400  0.77172500  1
  H  H18  1  0.92795400  0.17772400  0.22827500  1
  H  H19  1  0.57204600  0.67772400  0.77172500  1
  H  H20  1  0.42795400  0.67772400  0.22827500  1
  H  H21  1  0.93988000  0.91986900  0.57748500  1
  H  H22  1  0.06012000  0.91986900  0.42251500  1
  H  H23  1  0.43988000  0.41986900  0.57748500  1
  H  H24  1  0.56012000  0.41986900  0.42251500  1
  H  H25  1  0.91560300  0.82059700  0.72047300  1
  H  H26  1  0.08439700  0.82059700  0.27952700  1
  H  H27  1  0.41560300  0.32059700  0.72047300  1
  H  H28  1  0.58439700  0.32059700  0.27952700  1
  H  H29  1  0.95524200  0.89401500  0.81680900  1
  H  H30  1  0.04475800  0.89401500  0.18319100  1
  H  H31  1  0.45524200  0.39401500  0.81680900  1
  H  H32  1  0.54475800  0.39401500  0.18319100  1
  H  H33  1  0.02735300  0.09488000  0.89405400  1
  H  H34  1  0.97264700  0.09488000  0.10594600  1
  H  H35  1  0.52735300  0.59488000  0.89405400  1
  H  H36  1  0.47264700  0.59488000  0.10594600  1
  H  H37  1  0.04257700  0.09613400  0.68297400  1
  H  H38  1  0.95742300  0.09613400  0.31702600  1
  H  H39  1  0.54257700  0.59613400  0.68297400  1
  H  H40  1  0.45742300  0.59613400  0.31702600  1
  H  H41  1  0.40349700  0.18600500  0.06484900  1
  H  H42  1  0.59650300  0.18600500  0.93515100  1
  H  H43  1  0.90349700  0.68600500  0.06484900  1
  H  H44  1  0.09650300  0.68600500  0.93515100  1
  H  H45  1  0.55687800  0.12939600  0.97324200  1
  H  H46  1  0.44312200  0.12939600  0.02675800  1
  H  H47  1  0.05687800  0.62939600  0.97324200  1
  H  H48  1  0.94312200  0.62939600  0.02675800  1
  H  H49  1  0.09059700  0.79888200  0.92245900  1
  H  H50  1  0.90940300  0.79888200  0.07754100  1
  H  H51  1  0.59059700  0.29888200  0.92245900  1
  H  H52  1  0.40940300  0.29888200  0.07754100  1
  H  H53  1  0.04603400  0.85497200  0.95028600  1
  H  H54  1  0.95396600  0.85497200  0.04971400  1
  H  H55  1  0.54603400  0.35497200  0.95028600  1
  H  H56  1  0.45396600  0.35497200  0.04971400  1
  H  H57  1  0.59185300  0.79783200  0.24987800  1
  H  H58  1  0.40814700  0.79783200  0.75012200  1
  H  H59  1  0.09185300  0.29783200  0.24987800  1
  H  H60  1  0.90814700  0.29783200  0.75012200  1
  H  H61  1  0.44711100  0.85457800  0.86366100  1
  H  H62  1  0.55288900  0.85457800  0.13633900  1
  H  H63  1  0.94711100  0.35457800  0.86366100  1
  H  H64  1  0.05288900  0.35457800  0.13633900  1
  H  H65  1  0.91169200  0.18454000  0.74975000  1
  H  H66  1  0.08830800  0.18454000  0.25025000  1
  H  H67  1  0.41169200  0.68454000  0.74975000  1
  H  H68  1  0.58830800  0.68454000  0.25025000  1
  H  H69  1  0.95342200  0.12838200  0.86329000  1
  H  H70  1  0.04657800  0.12838200  0.13671000  1
  H  H71  1  0.45342200  0.62838200  0.86329000  1
  H  H72  1  0.54657800  0.62838200  0.13671000  1
  H  H73  1  0.75607800  0.89502900  0.39433600  1
  H  H74  1  0.78762900  0.88683200  0.52745100  1
  H  H75  1  0.84590200  0.06290400  0.55956700  1
  H  H76  1  0.81319500  0.07270500  0.42558600  1
  H  H77  1  0.24392200  0.89502900  0.60566400  1
  H  H78  1  0.21237100  0.88683200  0.47254900  1
  H  H79  1  0.15409800  0.06290400  0.44043300  1
  H  H80  1  0.18680500  0.07270500  0.57441400  1
  H  H81  1  0.25607800  0.39502900  0.39433600  1
  H  H82  1  0.28762900  0.38683200  0.52745100  1
  H  H83  1  0.34590200  0.56290400  0.55956700  1
  H  H84  1  0.31319500  0.57270500  0.42558600  1
  H  H85  1  0.74392200  0.39502900  0.60566400  1
  H  H86  1  0.71237100  0.38683200  0.47254900  1
  H  H87  1  0.65409800  0.56290400  0.44043300  1
  H  H88  1  0.68680500  0.57270500  0.57441400  1
  H  H89  1  0.04563200  0.26356900  0.81030700  1
  H  H90  1  0.07256800  0.34799600  0.90058400  1
  H  H91  1  0.11925300  0.21745300  0.07622900  1
  H  H92  1  0.09384000  0.13259800  0.98730800  1
  H  H93  1  0.95436800  0.26356900  0.18969300  1
  H  H94  1  0.92743200  0.34799600  0.09941600  1
  H  H95  1  0.88074700  0.21745300  0.92377100  1
  H  H96  1  0.90616000  0.13259800  0.01269200  1
  H  H97  1  0.54563200  0.76356900  0.81030700  1
  H  H98  1  0.57256800  0.84799600  0.90058400  1
  H  H99  1  0.61925300  0.71745300  0.07622900  1
  H  H100  1  0.59384000  0.63259800  0.98730800  1
  H  H101  1  0.45436800  0.76356900  0.18969300  1
  H  H102  1  0.42743200  0.84799600  0.09941600  1
  H  H103  1  0.38074700  0.71745300  0.92377100  1
  H  H104  1  0.40616000  0.63259800  0.01269200  1
  H  H105  1  0.74098400  0.93102200  0.08322700  1
  H  H106  1  0.71017400  0.95002700  0.95165400  1
  H  H107  1  0.65948200  0.12099400  0.96753300  1
  H  H108  1  0.69012400  0.10238700  0.09971200  1
  H  H109  1  0.25901600  0.93102200  0.91677300  1
  H  H110  1  0.28982600  0.95002700  0.04834600  1
  H  H111  1  0.34051800  0.12099400  0.03246700  1
  H  H112  1  0.30987600  0.10238600  0.90028800  1
  H  H113  1  0.24098400  0.43102200  0.08322700  1
  H  H114  1  0.21017400  0.45002700  0.95165400  1
  H  H115  1  0.15948200  0.62099400  0.96753300  1
  H  H116  1  0.19012400  0.60238700  0.09971200  1
  H  H117  1  0.75901600  0.43102200  0.91677300  1
  H  H118  1  0.78982600  0.45002700  0.04834600  1
  H  H119  1  0.84051800  0.62099400  0.03246700  1
  H  H120  1  0.80987600  0.60238600  0.90028800  1
  H  H121  1  0.85095100  0.81582100  0.60712500  1
  H  H122  1  0.80571900  0.74645900  0.50456100  1
  H  H123  1  0.89290300  0.75080400  0.43705700  1
  H  H124  1  0.93920500  0.81903400  0.54028500  1
  H  H125  1  0.14904900  0.81582100  0.39287500  1
  H  H126  1  0.19428100  0.74645900  0.49543900  1
  H  H127  1  0.10709700  0.75080400  0.56294300  1
  H  H128  1  0.06079500  0.81903400  0.45971500  1
  H  H129  1  0.35095100  0.31582100  0.60712500  1
  H  H130  1  0.30571900  0.24645900  0.50456100  1
  H  H131  1  0.39290300  0.25080400  0.43705700  1
  H  H132  1  0.43920500  0.31903400  0.54028500  1
  H  H133  1  0.64904900  0.31582100  0.39287500  1
  H  H134  1  0.69428100  0.24645900  0.49543900  1
  H  H135  1  0.60709700  0.25080400  0.56294300  1
  H  H136  1  0.56079500  0.31903400  0.45971500  1
  C  C1  1  0.99581500  0.00155400  0.61348500  1
  C  C2  1  0.00418500  0.00155400  0.38651500  1
  C  C3  1  0.49581500  0.50155400  0.61348500  1
  C  C4  1  0.50418500  0.50155400  0.38651500  1
  C  C5  1  0.92024900  0.00122300  0.41731000  1
  C  C6  1  0.07975100  0.00122300  0.58269000  1
  C  C7  1  0.42024900  0.50122300  0.41731000  1
  C  C8  1  0.57975100  0.50122300  0.58269000  1
  C  C9  1  0.73583700  0.04349100  0.27262000  1
  C  C10  1  0.26416300  0.04349100  0.72738000  1
  C  C11  1  0.23583700  0.54349100  0.27262000  1
  C  C12  1  0.76416300  0.54349100  0.72738000  1
  C  C13  1  0.76406300  0.99053700  0.31975600  1
  C  C14  1  0.23593700  0.99053700  0.68024400  1
  C  C15  1  0.26406300  0.49053700  0.31975600  1
  C  C16  1  0.73593700  0.49053700  0.68024400  1
  C  C17  1  0.87497700  0.00098900  0.37096400  1
  C  C18  1  0.12502300  0.00098900  0.62903600  1
  C  C19  1  0.37497700  0.50098900  0.37096400  1
  C  C20  1  0.62502300  0.50098900  0.62903600  1
  C  C21  1  0.62513700  0.99417200  0.12877600  1
  C  C22  1  0.37486300  0.99417200  0.87122400  1
  C  C23  1  0.12513700  0.49417200  0.12877600  1
  C  C24  1  0.87486300  0.49417200  0.87122400  1
  C  C25  1  0.76308800  0.05209400  0.24063400  1
  C  C26  1  0.23691200  0.05209400  0.75936600  1
  C  C27  1  0.26308800  0.55209400  0.24063400  1
  C  C28  1  0.73691200  0.55209400  0.75936600  1
  C  C29  1  0.79072100  0.99904200  0.28807200  1
  C  C30  1  0.20927900  0.99904200  0.71192800  1
  C  C31  1  0.29072100  0.49904200  0.28807200  1
  C  C32  1  0.70927900  0.49904200  0.71192800  1
  C  C33  1  0.73608300  0.00515500  0.18087800  1
  C  C34  1  0.26391700  0.00515500  0.81912200  1
  C  C35  1  0.23608300  0.50515500  0.18087800  1
  C  C36  1  0.76391700  0.50515500  0.81912200  1
  C  C37  1  0.70939400  0.99670600  0.21247500  1
  C  C38  1  0.29060600  0.99670600  0.78752500  1
  C  C39  1  0.20939400  0.49670600  0.21247500  1
  C  C40  1  0.79060600  0.49670600  0.78752500  1
  C  C41  1  0.76430600  0.95217900  0.22797200  1
  C  C42  1  0.23569400  0.95217900  0.77202800  1
  C  C43  1  0.26430600  0.45217900  0.22797200  1
  C  C44  1  0.73569400  0.45217900  0.77202800  1
  C  C45  1  0.73703200  0.94354600  0.25996200  1
  C  C46  1  0.26296800  0.94354600  0.74003800  1
  C  C47  1  0.23703200  0.44354600  0.25996200  1
  C  C48  1  0.76296800  0.44354600  0.74003800  1
  C  C49  1  0.83693600  0.00019100  0.33290500  1
  C  C50  1  0.16306400  0.00019100  0.66709500  1
  C  C51  1  0.33693600  0.50019100  0.33290500  1
  C  C52  1  0.66306400  0.50019100  0.66709500  1
  C  C53  1  0.66317700  0.99531400  0.16714700  1
  C  C54  1  0.33682300  0.99531400  0.83285300  1
  C  C55  1  0.16317700  0.49531400  0.16714700  1
  C  C56  1  0.83682300  0.49531400  0.83285300  1
  C  C57  1  0.94591600  0.91361700  0.63202000  1
  C  C58  1  0.05408400  0.91361700  0.36798000  1
  C  C59  1  0.44591600  0.41361700  0.63202000  1
  C  C60  1  0.55408400  0.41361700  0.36798000  1
  C  C61  1  0.92541000  0.86563900  0.64227400  1
  C  C62  1  0.07459000  0.86563900  0.35772600  1
  C  C63  1  0.42541000  0.36563900  0.64227400  1
  C  C64  1  0.57459000  0.36563900  0.35772600  1
  C  C65  1  0.93014000  0.85881600  0.71000500  1
  C  C66  1  0.06986000  0.85881600  0.28999500  1
  C  C67  1  0.43014000  0.35881600  0.71000500  1
  C  C68  1  0.56986000  0.35881600  0.28999500  1
  C  C69  1  0.95330400  0.90108700  0.76544700  1
  C  C70  1  0.04669600  0.90108700  0.23455300  1
  C  C71  1  0.45330400  0.40108700  0.76544700  1
  C  C72  1  0.54669600  0.40108700  0.23455300  1
  C  C73  1  0.97299500  0.95038900  0.75464200  1
  C  C74  1  0.02700500  0.95038900  0.24535800  1
  C  C75  1  0.47299500  0.45038900  0.75464200  1
  C  C76  1  0.52700500  0.45038900  0.24535800  1
  C  C77  1  0.97121500  0.95490400  0.68888500  1
  C  C78  1  0.02878500  0.95490400  0.31111500  1
  C  C79  1  0.47121500  0.45490400  0.68888500  1
  C  C80  1  0.52878500  0.45490400  0.31111500  1
  C  C81  1  0.99410900  0.99520900  0.80876500  1
  C  C82  1  0.00589100  0.99520900  0.19123500  1
  C  C83  1  0.49410900  0.49520900  0.80876500  1
  C  C84  1  0.50589100  0.49520900  0.19123500  1
  C  C85  1  0.01320000  0.04467800  0.79692800  1
  C  C86  1  0.98680000  0.04467800  0.20307200  1
  C  C87  1  0.51320000  0.54467800  0.79692800  1
  C  C88  1  0.48680000  0.54467800  0.20307200  1
  C  C89  1  0.01461200  0.04675300  0.73409800  1
  C  C90  1  0.98538700  0.04675300  0.26590200  1
  C  C91  1  0.51461200  0.54675300  0.73409800  1
  C  C92  1  0.48538700  0.54675300  0.26590200  1
  C  C93  1  0.99366500  0.00142800  0.67968800  1
  C  C94  1  0.00633500  0.00142800  0.32031200  1
  C  C95  1  0.49366500  0.50142800  0.67968800  1
  C  C96  1  0.50633500  0.50142800  0.32031200  1
  C  C97  1  0.03078400  0.09258500  0.84786600  1
  C  C98  1  0.96921600  0.09258500  0.15213400  1
  C  C99  1  0.53078400  0.59258500  0.84786600  1
  C  C100  1  0.46921600  0.59258500  0.15213400  1
  C  C101  1  0.05095000  0.14120900  0.83854100  1
  C  C102  1  0.94904900  0.14120900  0.16145900  1
  C  C103  1  0.55095000  0.64120900  0.83854100  1
  C  C104  1  0.44904900  0.64120900  0.16145900  1
  C  C105  1  0.05490200  0.14121500  0.77871000  1
  C  C106  1  0.94509800  0.14121500  0.22129000  1
  C  C107  1  0.55490200  0.64121500  0.77871000  1
  C  C108  1  0.44509800  0.64121500  0.22129000  1
  C  C109  1  0.03746700  0.09408200  0.72749700  1
  C  C110  1  0.96253300  0.09408200  0.27250300  1
  C  C111  1  0.53746700  0.59408200  0.72749700  1
  C  C112  1  0.46253300  0.59408200  0.27250300  1
  C  C113  1  0.50000000  0.10934700  0.00000000  1
  C  C114  1  0.00000000  0.60934700  0.00000000  1
  C  C115  1  0.57985800  0.99277700  0.08212400  1
  C  C116  1  0.42014200  0.99277700  0.91787600  1
  C  C117  1  0.07985800  0.49277700  0.08212400  1
  C  C118  1  0.92014200  0.49277700  0.91787600  1
  C  C119  1  0.50000000  0.87451200  0.00000000  1
  C  C120  1  0.00000000  0.37451200  0.00000000  1
  C  C121  1  0.00000000  0.10938800  0.00000000  1
  C  C122  1  0.50000000  0.60938800  0.00000000  1
  C  C123  1  0.99569900  0.99143800  0.87811700  1
  C  C124  1  0.00430100  0.99143800  0.12188300  1
  C  C125  1  0.49569900  0.49143800  0.87811700  1
  C  C126  1  0.50430100  0.49143800  0.12188300  1
  C  C127  1  0.00000000  0.87410700  0.00000000  1
  C  C128  1  0.50000000  0.37410700  0.00000000  1
  C  C129  1  0.55256100  0.17880600  0.96797500  1
  C  C130  1  0.44743900  0.17880600  0.03202500  1
  C  C131  1  0.05256100  0.67880600  0.96797500  1
  C  C132  1  0.94743900  0.67880600  0.03202500  1
  C  C133  1  0.57590000  0.21074600  0.94692800  1
  C  C134  1  0.42410000  0.21074600  0.05307200  1
  C  C135  1  0.07590000  0.71074600  0.94692800  1
  C  C136  1  0.92410000  0.71074600  0.05307200  1
  C  C137  1  0.07270800  0.77386100  0.94007000  1
  C  C138  1  0.92729200  0.77386100  0.05993000  1
  C  C139  1  0.57270800  0.27386100  0.94007000  1
  C  C140  1  0.42729200  0.27386100  0.05993000  1
  C  C141  1  0.04727500  0.80544700  0.95673000  1
  C  C142  1  0.95272500  0.80544700  0.04327000  1
  C  C143  1  0.54727500  0.30544700  0.95673000  1
  C  C144  1  0.45272500  0.30544700  0.04327000  1
  C  C145  1  0.02424100  0.77398600  0.97992400  1
  C  C146  1  0.97575900  0.77398600  0.02007600  1
  C  C147  1  0.52424100  0.27398600  0.97992400  1
  C  C148  1  0.47575900  0.27398600  0.02007600  1
  C  C149  1  0.52538100  0.20982100  0.98234100  1
  C  C150  1  0.47461900  0.20982100  0.01765900  1
  C  C151  1  0.02538100  0.70982100  0.98234100  1
  C  C152  1  0.97461900  0.70982100  0.01765900  1
  C  C153  1  0.00000000  0.80616800  0.00000000  1
  C  C154  1  0.50000000  0.30616800  0.00000000  1
  C  C155  1  0.50000000  0.17745900  0.00000000  1
  C  C156  1  0.00000000  0.67745900  0.00000000  1
  C  C157  1  0.45045300  0.80500300  0.86704400  1
  C  C158  1  0.54954700  0.80500300  0.13295600  1
  C  C159  1  0.95045300  0.30500300  0.86704400  1
  C  C160  1  0.04954700  0.30500300  0.13295600  1
  C  C161  1  0.42759800  0.77300300  0.80153300  1
  C  C162  1  0.57240200  0.77300300  0.19846700  1
  C  C163  1  0.92759800  0.27300300  0.80153300  1
  C  C164  1  0.07240200  0.27300300  0.19846700  1
  C  C165  1  0.92946800  0.20968300  0.80133200  1
  C  C166  1  0.07053200  0.20968300  0.19866800  1
  C  C167  1  0.42946800  0.70968300  0.80133200  1
  C  C168  1  0.57053200  0.70968300  0.19866800  1
  C  C169  1  0.95343800  0.17807600  0.86683300  1
  C  C170  1  0.04656100  0.17807600  0.13316700  1
  C  C171  1  0.45343800  0.67807600  0.86683300  1
  C  C172  1  0.54656100  0.67807600  0.13316700  1
  C  C173  1  0.97647700  0.20965600  0.93370900  1
  C  C174  1  0.02352300  0.20965600  0.06629100  1
  C  C175  1  0.47647700  0.70965600  0.93370900  1
  C  C176  1  0.52352300  0.70965600  0.06629100  1
  C  C177  1  0.47594600  0.77388800  0.93371600  1
  C  C178  1  0.52405400  0.77388800  0.06628400  1
  C  C179  1  0.97594600  0.27388800  0.93371600  1
  C  C180  1  0.02405400  0.27388800  0.06628400  1
  C  C181  1  0.00000000  0.17742400  0.00000000  1
  C  C182  1  0.50000000  0.67742400  0.00000000  1
  C  C183  1  0.50000000  0.80630100  0.00000000  1
  C  C184  1  0.00000000  0.30630100  0.00000000  1
  C  C185  1  0.78265000  0.98452200  0.40088100  1
  C  C186  1  0.77557000  0.93236600  0.42983400  1
  C  C187  1  0.79348900  0.92746700  0.50505700  1
  C  C188  1  0.81900800  0.97407100  0.55173900  1
  C  C189  1  0.82601100  0.02620700  0.52303800  1
  C  C190  1  0.80761200  0.03162600  0.44774300  1
  C  C191  1  0.21735000  0.98452200  0.59911900  1
  C  C192  1  0.22443000  0.93236600  0.57016600  1
  C  C193  1  0.20651100  0.92746700  0.49494300  1
  C  C194  1  0.18099200  0.97407100  0.44826100  1
  C  C195  1  0.17398900  0.02620700  0.47696200  1
  C  C196  1  0.19238800  0.03162600  0.55225700  1
  C  C197  1  0.28265000  0.48452200  0.40088100  1
  C  C198  1  0.27557000  0.43236600  0.42983400  1
  C  C199  1  0.29348900  0.42746700  0.50505700  1
  C  C200  1  0.31900800  0.47407100  0.55173900  1
  C  C201  1  0.32601100  0.52620700  0.52303800  1
  C  C202  1  0.30761200  0.53162600  0.44774300  1
  C  C203  1  0.71735000  0.48452200  0.59911900  1
  C  C204  1  0.72443000  0.43236600  0.57016600  1
  C  C205  1  0.70651100  0.42746700  0.49494300  1
  C  C206  1  0.68099200  0.47407100  0.44826100  1
  C  C207  1  0.67398900  0.52620700  0.47696200  1
  C  C208  1  0.69238800  0.53162600  0.55225700  1
  C  C209  1  0.06789700  0.19208200  0.89237600  1
  C  C210  1  0.06236500  0.25283400  0.86864800  1
  C  C211  1  0.07714300  0.30053600  0.91933600  1
  C  C212  1  0.09762900  0.28779800  0.99385000  1
  C  C213  1  0.10317400  0.22742900  0.01776500  1
  C  C214  1  0.08844800  0.17970300  0.96730900  1
  C  C215  1  0.93210300  0.19208200  0.10762400  1
  C  C216  1  0.93763500  0.25283400  0.13135200  1
  C  C217  1  0.92285700  0.30053600  0.08066400  1
  C  C218  1  0.90237100  0.28779800  0.00615000  1
  C  C219  1  0.89682600  0.22742900  0.98223500  1
  C  C220  1  0.91155200  0.17970300  0.03269100  1
  C  C221  1  0.56789700  0.69208200  0.89237600  1
  C  C222  1  0.56236500  0.75283400  0.86864800  1
  C  C223  1  0.57714300  0.80053600  0.91933600  1
  C  C224  1  0.59762900  0.78779800  0.99385000  1
  C  C225  1  0.60317400  0.72742900  0.01776500  1
  C  C226  1  0.58844800  0.67970300  0.96730900  1
  C  C227  1  0.43210300  0.69208200  0.10762400  1
  C  C228  1  0.43763500  0.75283400  0.13135200  1
  C  C229  1  0.42285700  0.80053600  0.08066400  1
  C  C230  1  0.40237100  0.78779800  0.00615000  1
  C  C231  1  0.39682600  0.72742900  0.98223500  1
  C  C232  1  0.41155200  0.67970300  0.03269100  1
  C  C233  1  0.71772400  0.01568700  0.10048100  1
  C  C234  1  0.72327800  0.97300600  0.05864000  1
  C  C235  1  0.70585800  0.98352700  0.98430700  1
  C  C236  1  0.68294100  0.03664700  0.95156400  1
  C  C237  1  0.67738500  0.07929000  0.99315800  1
  C  C238  1  0.69468700  0.06880600  0.06743000  1
  C  C239  1  0.28227600  0.01568700  0.89951900  1
  C  C240  1  0.27672200  0.97300500  0.94136000  1
  C  C241  1  0.29414200  0.98352700  0.01569300  1
  C  C242  1  0.31705900  0.03664700  0.04843600  1
  C  C243  1  0.32261500  0.07929000  0.00684200  1
  C  C244  1  0.30531300  0.06880600  0.93257000  1
  C  C245  1  0.21772400  0.51568700  0.10048100  1
  C  C246  1  0.22327800  0.47300600  0.05864000  1
  C  C247  1  0.20585800  0.48352700  0.98430700  1
  C  C248  1  0.18294100  0.53664700  0.95156400  1
  C  C249  1  0.17738500  0.57929000  0.99315800  1
  C  C250  1  0.19468700  0.56880600  0.06743000  1
  C  C251  1  0.78227600  0.51568700  0.89951900  1
  C  C252  1  0.77672200  0.47300500  0.94136000  1
  C  C253  1  0.79414200  0.48352700  0.01569300  1
  C  C254  1  0.81705900  0.53664700  0.04843600  1
  C  C255  1  0.82261500  0.57929000  0.00684200  1
  C  C256  1  0.80531300  0.56880600  0.93257000  1
  C  C257  1  0.89838700  0.82286400  0.58120300  1
  C  C258  1  0.86100700  0.80127400  0.57101200  1
  C  C259  1  0.83512000  0.76248100  0.51268100  1
  C  C260  1  0.84647000  0.74450400  0.46442400  1
  C  C261  1  0.88382800  0.76521900  0.47462600  1
  C  C262  1  0.90971500  0.80424500  0.53270500  1
  C  C263  1  0.10161300  0.82286400  0.41879700  1
  C  C264  1  0.13899300  0.80127400  0.42898800  1
  C  C265  1  0.16488000  0.76248100  0.48731900  1
  C  C266  1  0.15353000  0.74450400  0.53557600  1
  C  C267  1  0.11617200  0.76521900  0.52537400  1
  C  C268  1  0.09028500  0.80424500  0.46729500  1
  C  C269  1  0.39838700  0.32286400  0.58120300  1
  C  C270  1  0.36100700  0.30127400  0.57101200  1
  C  C271  1  0.33512000  0.26248100  0.51268100  1
  C  C272  1  0.34647000  0.24450400  0.46442400  1
  C  C273  1  0.38382800  0.26521900  0.47462600  1
  C  C274  1  0.40971500  0.30424500  0.53270500  1
  C  C275  1  0.60161300  0.32286400  0.41879700  1
  C  C276  1  0.63899300  0.30127400  0.42898800  1
  C  C277  1  0.66488000  0.26248100  0.48731900  1
  C  C278  1  0.65353000  0.24450400  0.53557600  1
  C  C279  1  0.61617200  0.26521900  0.52537400  1
  C  C280  1  0.59028500  0.30424500  0.46729500  1
  Cl  Cl1  1  0.84237300  0.96719100  0.64738300  1
  Cl  Cl2  1  0.15762700  0.96719100  0.35261700  1
  Cl  Cl3  1  0.34237300  0.46719100  0.64738300  1
  Cl  Cl4  1  0.65762700  0.46719100  0.35261700  1
  Cl  Cl5  1  0.11712000  0.34808700  0.05837600  1
  Cl  Cl6  1  0.88288000  0.34808700  0.94162400  1
  Cl  Cl7  1  0.61712000  0.84808700  0.05837600  1
  Cl  Cl8  1  0.38288000  0.84808700  0.94162400  1
  Cl  Cl9  1  0.66087800  0.04993500  0.85717200  1
  Cl  Cl10  1  0.33912200  0.04993500  0.14282800  1
  Cl  Cl11  1  0.16087800  0.54993500  0.85717200  1
  Cl  Cl12  1  0.83912200  0.54993500  0.14282800  1
  Cl  Cl13  1  0.81348500  0.69533900  0.39027500  1
  Cl  Cl14  1  0.18651500  0.69533900  0.60972500  1
  Cl  Cl15  1  0.31348500  0.19533900  0.39027500  1
  Cl  Cl16  1  0.68651500  0.19533900  0.60972500  1
  O  O1  1  0.98432700  0.05214400  0.57235900  1
  O  O2  1  0.01567300  0.05214400  0.42764100  1
  O  O3  1  0.48432700  0.55214400  0.57235900  1
  O  O4  1  0.51567300  0.55214400  0.42764100  1
  O  O5  1  0.00881100  0.95054200  0.59762100  1
  O  O6  1  0.99118900  0.95054200  0.40237900  1
  O  O7  1  0.50881100  0.45054200  0.59762100  1
  O  O8  1  0.49118900  0.45054200  0.40237900  1
  O  O9  1  0.94062000  0.05218200  0.42054100  1
  O  O10  1  0.05938000  0.05218200  0.57945900  1
  O  O11  1  0.44062000  0.55218200  0.42054100  1
  O  O12  1  0.55938000  0.55218200  0.57945900  1
  O  O13  1  0.93924400  0.95041500  0.45496900  1
  O  O14  1  0.06075600  0.95041500  0.54503100  1
  O  O15  1  0.43924400  0.45041500  0.45496900  1
  O  O16  1  0.56075600  0.45041500  0.54503100  1
  O  O17  1  0.51019600  0.08018900  0.06161100  1
  O  O18  1  0.48980400  0.08018900  0.93838900  1
  O  O19  1  0.01019600  0.58018900  0.06161100  1
  O  O20  1  0.98980400  0.58018900  0.93838900  1
  O  O21  1  0.55846200  0.97470900  0.11124100  1
  O  O22  1  0.44153800  0.97470900  0.88875900  1
  O  O23  1  0.05846200  0.47470900  0.11124100  1
  O  O24  1  0.94153800  0.47470900  0.88875900  1
  O  O25  1  0.56186900  0.00937900  0.01219400  1
  O  O26  1  0.43813100  0.00937900  0.98780600  1
  O  O27  1  0.06186900  0.50937900  0.01219400  1
  O  O28  1  0.93813100  0.50937900  0.98780600  1
  O  O29  1  0.48639200  0.90371300  0.03726600  1
  O  O30  1  0.51360800  0.90371300  0.96273400  1
  O  O31  1  0.98639200  0.40371300  0.03726600  1
  O  O32  1  0.01360800  0.40371300  0.96273400  1
  O  O33  1  0.03450500  0.08028700  0.01448600  1
  O  O34  1  0.96549500  0.08028700  0.98551400  1
  O  O35  1  0.53450500  0.58028700  0.01448600  1
  O  O36  1  0.46549500  0.58028700  0.98551400  1
  O  O37  1  0.03183700  0.97590300  0.93887700  1
  O  O38  1  0.96816300  0.97590300  0.06112300  1
  O  O39  1  0.53183700  0.47590300  0.93887700  1
  O  O40  1  0.46816300  0.47590300  0.06112300  1
  O  O41  1  0.96174600  0.00749500  0.87741300  1
  O  O42  1  0.03825400  0.00749500  0.12258800  1
  O  O43  1  0.46174600  0.50749500  0.87741300  1
  O  O44  1  0.53825400  0.50749500  0.12258800  1
  O  O45  1  0.03558700  0.90314800  0.04701000  1
  O  O46  1  0.96441300  0.90314800  0.95299000  1
  O  O47  1  0.53558700  0.40314800  0.04701000  1
  O  O48  1  0.46441300  0.40314800  0.95299000  1
