# generated using pymatgen
data_VH2C15O5F4
_symmetry_space_group_name_H-M   'P 1'
_cell_length_a   23.73250000
_cell_length_b   6.81800000
_cell_length_c   20.02490300
_cell_angle_alpha   90.00000000
_cell_angle_beta   94.70129000
_cell_angle_gamma   90.00000000
_symmetry_Int_Tables_number   1
_chemical_formula_structural   VH2C15O5F4
_chemical_formula_sum   'V4 H8 C60 O20 F16'
_cell_volume   3229.29171443
_cell_formula_units_Z   4
loop_
 _symmetry_equiv_pos_site_id
 _symmetry_equiv_pos_as_xyz
  1  'x, y, z'
loop_
 _atom_site_type_symbol
 _atom_site_label
 _atom_site_symmetry_multiplicity
 _atom_site_fract_x
 _atom_site_fract_y
 _atom_site_fract_z
 _atom_site_occupancy
  V  V1  1  0.24973800  0.17931700  0.23885500  1
  V  V2  1  0.75026200  0.82068300  0.76114500  1
  V  V3  1  0.25026200  0.67931700  0.26114500  1
  V  V4  1  0.74973800  0.32068400  0.73885600  1
  H  H1  1  0.37630400  0.67709200  0.41555400  1
  H  H2  1  0.62369600  0.32290800  0.58444600  1
  H  H3  1  0.12369600  0.17709300  0.08444600  1
  H  H4  1  0.87630400  0.82290900  0.91555500  1
  H  H5  1  0.43925000  0.52580800  0.50022400  1
  H  H6  1  0.56075000  0.47419000  0.49977500  1
  H  H7  1  0.06075000  0.02581000  0.99977600  1
  H  H8  1  0.93925000  0.97419100  0.00022400  1
  C  C1  1  0.16736800  0.46152700  0.16577000  1
  C  C2  1  0.83263200  0.53847300  0.83423000  1
  C  C3  1  0.33263200  0.96152800  0.33423000  1
  C  C4  1  0.66736800  0.03847300  0.66577000  1
  C  C5  1  0.32717300  0.46213500  0.17279500  1
  C  C6  1  0.67282700  0.53786400  0.82720500  1
  C  C7  1  0.17282700  0.96213600  0.32720500  1
  C  C8  1  0.82717300  0.03786200  0.67279500  1
  C  C9  1  0.97682300  0.17684900  0.51665300  1
  C  C10  1  0.02317700  0.82315100  0.48334700  1
  C  C11  1  0.52317700  0.67684900  0.98334700  1
  C  C12  1  0.47682300  0.32315100  0.01665300  1
  C  C13  1  0.95610700  0.00649800  0.54363600  1
  C  C14  1  0.04389300  0.99350300  0.45636500  1
  C  C15  1  0.54389300  0.50649800  0.95636400  1
  C  C16  1  0.45610700  0.49350200  0.04363500  1
  C  C17  1  0.97986700  0.82954800  0.52641600  1
  C  C18  1  0.02013300  0.17045300  0.47358400  1
  C  C19  1  0.52013200  0.32954800  0.97358400  1
  C  C20  1  0.47986700  0.67045200  0.02641600  1
  C  C21  1  0.91050100  0.01376200  0.58917700  1
  C  C22  1  0.08949900  0.98623800  0.41082300  1
  C  C23  1  0.58949900  0.51376300  0.91082300  1
  C  C24  1  0.41050100  0.48623800  0.08917600  1
  C  C25  1  0.12744600  0.97771500  0.37282800  1
  C  C26  1  0.87255400  0.02228500  0.62717200  1
  C  C27  1  0.37255400  0.47771500  0.12717100  1
  C  C28  1  0.62744600  0.52228500  0.87282800  1
  C  C29  1  0.41247500  0.14873400  0.39341300  1
  C  C30  1  0.58752500  0.85126300  0.60658700  1
  C  C31  1  0.08752500  0.64873700  0.10658800  1
  C  C32  1  0.91247500  0.35126600  0.89341300  1
  C  C33  1  0.38214400  0.97570000  0.38422300  1
  C  C34  1  0.61785600  0.02430100  0.61577600  1
  C  C35  1  0.11785500  0.47570000  0.11577700  1
  C  C36  1  0.88214400  0.52430000  0.88422300  1
  C  C37  1  0.39950300  0.81312800  0.42208400  1
  C  C38  1  0.60049700  0.18687300  0.57791600  1
  C  C39  1  0.10049700  0.31312700  0.07791600  1
  C  C40  1  0.89950300  0.68687200  0.92208400  1
  C  C41  1  0.44624900  0.82320200  0.46843100  1
  C  C42  1  0.55375100  0.17679800  0.53156900  1
  C  C43  1  0.05375100  0.32320200  0.03156900  1
  C  C44  1  0.94624900  0.67679800  0.96843100  1
  C  C45  1  0.47648000  0.99530200  0.47698500  1
  C  C46  1  0.52352000  0.00469700  0.52301400  1
  C  C47  1  0.02352000  0.49530300  0.02301500  1
  C  C48  1  0.97647900  0.50469800  0.97698500  1
  C  C49  1  0.45960500  0.15789800  0.43939500  1
  C  C50  1  0.54039500  0.84210000  0.56060400  1
  C  C51  1  0.04039500  0.65790000  0.06060500  1
  C  C52  1  0.95960500  0.34210200  0.93939600  1
  C  C53  1  0.46295700  0.66088800  0.50634900  1
  C  C54  1  0.53704300  0.33911300  0.49365100  1
  C  C55  1  0.03704300  0.16088800  0.99365100  1
  C  C56  1  0.96295700  0.83911200  0.00634900  1
  C  C57  1  0.50979300  0.67023900  0.55223000  1
  C  C58  1  0.49020600  0.32976200  0.44776900  1
  C  C59  1  0.99020600  0.17023800  0.94776900  1
  C  C60  1  0.00979300  0.82976100  0.05223100  1
  O  O1  1  0.30940200  0.63001500  0.19930100  1
  O  O2  1  0.69059800  0.36998500  0.80069900  1
  O  O3  1  0.19059800  0.13001400  0.30069900  1
  O  O4  1  0.80940200  0.86998500  0.69930100  1
  O  O5  1  0.19000000  0.28266100  0.17379000  1
  O  O6  1  0.81000000  0.71733800  0.82621000  1
  O  O7  1  0.31000000  0.78266200  0.32621000  1
  O  O8  1  0.69000000  0.21733900  0.67379000  1
  O  O9  1  0.30507800  0.28288300  0.17902100  1
  O  O10  1  0.69492200  0.71711600  0.82097700  1
  O  O11  1  0.19492200  0.78288400  0.32097800  1
  O  O12  1  0.80507800  0.21711500  0.67902100  1
  O  O13  1  0.31351600  0.12996900  0.30621600  1
  O  O14  1  0.68648400  0.87002900  0.69378400  1
  O  O15  1  0.18648400  0.62997000  0.19378400  1
  O  O16  1  0.81351600  0.37003000  0.80621700  1
  O  O17  1  0.25156100  0.45056100  0.29090500  1
  O  O18  1  0.74843800  0.54943900  0.70909500  1
  O  O19  1  0.24843800  0.95056300  0.20909500  1
  O  O20  1  0.75156200  0.04943800  0.79090500  1
  F  F1  1  0.03926100  0.33975800  0.44814200  1
  F  F2  1  0.96074000  0.66024200  0.55185800  1
  F  F3  1  0.46073900  0.83975800  0.05185800  1
  F  F4  1  0.53926000  0.16024200  0.94814100  1
  F  F5  1  0.95465000  0.35237100  0.53242500  1
  F  F6  1  0.04535000  0.64763000  0.46757500  1
  F  F7  1  0.54535000  0.85237000  0.96757500  1
  F  F8  1  0.45465000  0.14762900  0.03242400  1
  F  F9  1  0.39653800  0.30927900  0.35670500  1
  F  F10  1  0.60346200  0.69072200  0.64329400  1
  F  F11  1  0.10346200  0.80927800  0.14329400  1
  F  F12  1  0.89653800  0.19072100  0.85670500  1
  F  F13  1  0.52560400  0.51019000  0.58927400  1
  F  F14  1  0.47439600  0.48980900  0.41072500  1
  F  F15  1  0.97439600  0.01019100  0.91072600  1
  F  F16  1  0.02560300  0.98981000  0.08927500  1
