data_DB0-m3_o96_o159_f0_fsc.sym.30_repeat
_audit_creation_date              2024-02-23
_audit_creation_method            'Materials Studio'
_symmetry_space_group_name_H-M    'P1'
_symmetry_Int_Tables_number       1
_symmetry_cell_setting            triclinic
loop_
_symmetry_equiv_pos_as_xyz
  x,y,z
_cell_length_a                    13.3709
_cell_length_b                    13.3227
_cell_length_c                    16.2088
_cell_angle_alpha                 94.7390
_cell_angle_beta                  90.0465
_cell_angle_gamma                 90.6167
loop_
_atom_site_label
_atom_site_type_symbol
_atom_site_fract_x
_atom_site_fract_y
_atom_site_fract_z
_atom_site_U_iso_or_equiv
_atom_site_adp_type
_atom_site_occupancy
C1     C     0.81817   0.02796   0.21441   0.00000  Uiso   1.00
C2     C     0.75760   0.06982   0.15961   0.00000  Uiso   1.00
C3     C     0.80862   0.07057   0.08615   0.00000  Uiso   1.00
N1     N     0.90160   0.03406   0.09532   0.00000  Uiso   1.00
C4     C     0.90799   0.00928   0.17468   0.00000  Uiso   1.00
C5     C     0.76731   0.09551   0.01546   0.00000  Uiso   1.00
C6     C     0.80930   0.07231   0.93241   0.00000  Uiso   1.00
C7     C     0.75329   0.05725   0.86087   0.00000  Uiso   1.00
C8     C     0.81710   0.03333   0.79700   0.00000  Uiso   1.00
C9     C     0.91270   0.03526   0.83150   0.00000  Uiso   1.00
N2     N     0.90668   0.06042   0.91398   0.00000  Uiso   1.00
C10    C     0.00748   0.01885   0.78662   0.00000  Uiso   1.00
C11    C     0.09073   0.98782   0.82256   0.00000  Uiso   1.00
C12    C     0.18073   0.96940   0.78289   0.00000  Uiso   1.00
C13    C     0.24185   0.92913   0.83822   0.00000  Uiso   1.00
C14    C     0.19096   0.92890   0.91178   0.00000  Uiso   1.00
N3     N     0.09765   0.96443   0.90229   0.00000  Uiso   1.00
C15    C     0.23262   0.90503   0.98270   0.00000  Uiso   1.00
C16    C     0.19038   0.92758   0.06580   0.00000  Uiso   1.00
C17    C     0.24614   0.94255   0.13749   0.00000  Uiso   1.00
C18    C     0.18209   0.96545   0.20155   0.00000  Uiso   1.00
C19    C     0.08633   0.96258   0.16666   0.00000  Uiso   1.00
N4     N     0.09291   0.93826   0.08410   0.00000  Uiso   1.00
C20    C     0.99055   0.97680   0.21054   0.00000  Uiso   1.00
H1     H     0.69136   0.12196   0.01744   0.00000  Uiso   1.00
H2     H     0.00778   0.02783   0.72086   0.00000  Uiso   1.00
H3     H     0.30877   0.87921   0.98080   0.00000  Uiso   1.00
H4     H     0.98823   0.96461   0.27558   0.00000  Uiso   1.00
H5     H     0.96559   0.07566   0.95522   0.00000  Uiso   1.00
H6     H     0.03421   0.92265   0.04271   0.00000  Uiso   1.00
C21    C     0.34739   0.93592   0.14901   0.00000  Uiso   1.00
C22    C     0.38405   0.95194   0.22847   0.00000  Uiso   1.00
C23    C     0.32185   0.97878   0.29501   0.00000  Uiso   1.00
C24    C     0.21860   0.98593   0.28209   0.00000  Uiso   1.00
C25    C     0.78448   0.00676   0.29156   0.00000  Uiso   1.00
C26    C     0.68750   0.03407   0.31179   0.00000  Uiso   1.00
C27    C     0.62902   0.08361   0.25750   0.00000  Uiso   1.00
C28    C     0.66247   0.09974   0.17975   0.00000  Uiso   1.00
C29    C     0.65218   0.06452   0.84910   0.00000  Uiso   1.00
C30    C     0.61590   0.04809   0.76951   0.00000  Uiso   1.00
C31    C     0.67841   0.02063   0.70323   0.00000  Uiso   1.00
C32    C     0.78149   0.01307   0.71645   0.00000  Uiso   1.00
C33    C     0.21455   0.99061   0.70573   0.00000  Uiso   1.00
C34    C     0.31226   0.96493   0.68615   0.00000  Uiso   1.00
C35    C     0.37103   0.91642   0.74085   0.00000  Uiso   1.00
C36    C     0.33743   0.90030   0.81853   0.00000  Uiso   1.00
H7     H     0.39793   0.91652   0.09843   0.00000  Uiso   1.00
H8     H     0.83040   0.96985   0.33455   0.00000  Uiso   1.00
H9     H     0.55401   0.10624   0.27474   0.00000  Uiso   1.00
H10    H     0.61398   0.13482   0.13758   0.00000  Uiso   1.00
H11    H     0.60159   0.08466   0.89949   0.00000  Uiso   1.00
H12    H     0.83173   0.99462   0.66537   0.00000  Uiso   1.00
H13    H     0.16823   0.02666   0.66248   0.00000  Uiso   1.00
H14    H     0.44641   0.89474   0.72399   0.00000  Uiso   1.00
H15    H     0.38631   0.86633   0.86106   0.00000  Uiso   1.00
H16    H     0.46311   0.94325   0.23903   0.00000  Uiso   1.00
H17    H     0.53697   0.05719   0.75861   0.00000  Uiso   1.00
O1     O     0.39048   0.07878   0.41344   0.00000  Uiso   1.00
O2     O     0.41310   0.90755   0.40028   0.00000  Uiso   1.00
C37    C     0.37062   0.98871   0.37701   0.00000  Uiso   1.00
O3     O     0.61951   0.92359   0.40649   0.00000  Uiso   1.00
O4     O     0.59747   0.09543   0.42621   0.00000  Uiso   1.00
C38    C     0.64117   0.01654   0.39009   0.00000  Uiso   1.00
O5     O     0.61013   0.92038   0.58482   0.00000  Uiso   1.00
O6     O     0.58785   0.09203   0.59775   0.00000  Uiso   1.00
C39    C     0.63028   0.01067   0.62102   0.00000  Uiso   1.00
O7     O     0.38124   0.07547   0.59185   0.00000  Uiso   1.00
O8     O     0.40298   0.90403   0.57191   0.00000  Uiso   1.00
C40    C     0.35914   0.98268   0.60806   0.00000  Uiso   1.00
Zn1    Zn    0.51487   0.88850   0.48925   0.00000  Uiso   1.00
Zn2    Zn    0.48569   0.11076   0.50899   0.00000  Uiso   1.00
C41    C     0.56583   0.29273   0.52901   0.00000  Uiso   1.00
N5     N     0.47800   0.24257   0.51898   0.00000  Uiso   1.00
C42    C     0.39441   0.29248   0.50292   0.00000  Uiso   1.00
C43    C     0.39788   0.39507   0.49570   0.00000  Uiso   1.00
C44    C     0.48843   0.44813   0.50355   0.00000  Uiso   1.00
C45    C     0.57237   0.39497   0.52195   0.00000  Uiso   1.00
C46    C     0.41878   0.60987   0.47320   0.00000  Uiso   1.00
C47    C     0.49850   0.55131   0.49320   0.00000  Uiso   1.00
C48    C     0.59119   0.59865   0.50377   0.00000  Uiso   1.00
C49    C     0.67357   0.54403   0.52305   0.00000  Uiso   1.00
C50    C     0.66430   0.44256   0.53141   0.00000  Uiso   1.00
C51    C     0.43181   0.71126   0.46750   0.00000  Uiso   1.00
N6     N     0.52191   0.75659   0.47926   0.00000  Uiso   1.00
C52    C     0.60167   0.70152   0.49711   0.00000  Uiso   1.00
H18    H     0.32441   0.25196   0.49299   0.00000  Uiso   1.00
H19    H     0.67325   0.73827   0.50923   0.00000  Uiso   1.00
H20    H     0.74593   0.58041   0.53143   0.00000  Uiso   1.00
H21    H     0.72982   0.40046   0.54578   0.00000  Uiso   1.00
H22    H     0.32800   0.42939   0.48223   0.00000  Uiso   1.00
H23    H     0.34393   0.58116   0.46352   0.00000  Uiso   1.00
H24    H     0.63358   0.25209   0.53887   0.00000  Uiso   1.00
H25    H     0.36602   0.75462   0.45737   0.00000  Uiso   1.00
N7     N     0.15314   0.01143   0.34968   0.00000  Uiso   1.00
H26    H     0.16148   0.95787   0.39263   0.00000  Uiso   1.00
H27    H     0.17536   0.08171   0.37731   0.00000  Uiso   1.00
