# Generated by REPEAT Assigner based on pymatgen
data_DB0-m3_o9_o19_f0_nbo.sym.106
_audit_creation_date              2022-05-24
_audit_creation_method            REPEAT_Assigner
_cell_length_a                    19.429756
_cell_length_b                    19.200449
_cell_length_c                    19.738914
_cell_angle_alpha                 111.625972
_cell_angle_beta                  112.061659
_cell_angle_gamma                 103.850272
_cell_volume                      5701.668919
_symmetry_space_group_name_H-M    P1
_symmetry_Int_Tables_number       1
loop_
    _symmetry_equiv_pos_site_id
    _symmetry_equiv_pos_as_xyz
    1  x,y,z
loop_
    _atom_site_type_symbol
    _atom_site_label
    _atom_site_fract_x
    _atom_site_fract_y
    _atom_site_fract_z
    _atom_type_partial_charge
    O   O1   0.912888  0.477294  0.058373  -0.648768
    O   O2   0.912200  0.369520  0.954349  -0.683352
    C   C1   0.885440  0.397726  0.005741  0.838844
    O   O3   0.910172  0.559265  0.965111  -0.657593
    O   O4   0.912265  0.452584  0.862713  -0.630196
    C   C2   0.884108  0.507437  0.885452  0.494164
    Zn  Zn1  0.998517  0.574899  0.073022  1.292155
    Zn  Zn2  0.999442  0.432718  0.939097  1.286340
    O   O5   0.086632  0.638071  0.058667  -0.681077
    O   O6   0.084105  0.530229  0.952741  -0.671850
    O   O7   0.084891  0.554250  0.149435  -0.620745
    O   O8   0.088842  0.449524  0.047026  -0.647528
    C   C3   0.112436  0.609610  0.006289  0.848251
    C   C4   0.114419  0.500689  0.126636  0.475084
    H   H1   0.063194  0.883047  0.056301  0.067662
    C   C5   0.934574  0.803655  0.993197  -0.136477
    H   H2   0.921777  0.851761  0.028616  0.116633
    C   C6   0.871472  0.724991  0.931929  -0.216206
    H   H3   0.809341  0.711826  0.919628  0.129051
    C   C7   0.887587  0.663082  0.886999  0.329367
    C   C8   0.967001  0.681014  0.902328  -0.168833
    H   H4   0.979862  0.633774  0.865719  0.099395
    C   C9   0.029878  0.760012  0.963018  -0.114079
    H   H5   0.091748  0.774316  0.974297  0.117501
    C   C10  0.013806  0.821183  0.008765  -0.052543
    C   C11  0.755379  0.576786  0.753032  -0.182795
    H   H6   0.756636  0.633620  0.753683  0.122382
    C   C12  0.689609  0.501362  0.686605  0.162378
    C   C13  0.687978  0.428387  0.686183  -0.121097
    C   C14  0.752925  0.432615  0.751258  -0.265757
    H   H7   0.752398  0.375818  0.750243  0.140756
    C   C15  0.818318  0.508021  0.817909  0.307871
    C   C16  0.819248  0.581015  0.819198  -0.239574
    C   C17  0.580940  0.292119  0.635600  -0.159757
    H   H8   0.596369  0.312077  0.700402  0.127511
    C   C18  0.520020  0.213240  0.571390  -0.151700
    H   H9   0.488226  0.171786  0.586052  0.130404
    C   C19  0.499818  0.187053  0.488546  -0.122702
    H   H10  0.452276  0.125093  0.438279  0.095182
    C   C20  0.540693  0.239746  0.469941  -0.073475
    H   H11  0.525474  0.218931  0.405092  0.054610
    C   C21  0.601251  0.318807  0.534042  -0.094290
    H   H12  0.633527  0.359505  0.519180  0.091848
    C   C22  0.621159  0.345682  0.617081  0.191458
    C   C23  0.823533  0.338046  0.004636  -0.177838
    C   C24  0.772178  0.286976  0.003420  0.040362
    C   C25  0.712879  0.226342  0.002113  0.017884
    C   C26  0.663072  0.174097  0.001268  -0.155941
    H   H13  0.937170  0.504864  0.321171  0.091825
    C   C27  0.065586  0.568720  0.367635  -0.110487
    H   H14  0.077253  0.618590  0.425502  0.112250
    C   C28  0.129342  0.568662  0.352574  -0.235911
    H   H15  0.190797  0.618791  0.398802  0.130744
    C   C29  0.114619  0.505530  0.278356  0.318517
    C   C30  0.035983  0.441266  0.220257  -0.144667
    H   H16  0.024178  0.390243  0.163106  0.096067
    C   C31  0.972405  0.441157  0.235716  -0.116160
    H   H17  0.911070  0.390660  0.190495  0.117008
    C   C32  0.987082  0.505034  0.309160  -0.101982
    C   C33  0.250152  0.505303  0.324414  -0.184057
    H   H18  0.250232  0.507261  0.379872  0.135554
    C   C34  0.316851  0.504072  0.315016  0.216032
    C   C35  0.316426  0.501380  0.243658  -0.139049
    C   C36  0.249055  0.499012  0.182928  -0.278816
    H   H19  0.248643  0.496121  0.127038  0.151190
    C   C37  0.182608  0.500791  0.192580  0.319981
    C   C38  0.183540  0.504791  0.264578  -0.265122
    C   C39  0.425392  0.557608  0.217608  -0.177903
    H   H20  0.410702  0.609747  0.224320  0.127013
    C   C40  0.486608  0.552436  0.199566  -0.184370
    H   H21  0.519661  0.600373  0.192132  0.134950
    C   C41  0.505268  0.485864  0.190405  -0.060023
    H   H22  0.552952  0.481545  0.175792  0.086071
    C   C42  0.462554  0.424365  0.199079  -0.105364
    H   H23  0.476403  0.371573  0.190534  0.072057
    C   C43  0.401864  0.429867  0.217970  -0.156965
    H   H24  0.367804  0.380864  0.223550  0.107499
    C   C44  0.383594  0.496962  0.227996  0.249627
    C   C45  0.174087  0.668438  0.006605  -0.170276
    C   C46  0.225059  0.717814  0.005953  0.025354
    C   C47  0.283662  0.775977  0.004406  0.014393
    C   C48  0.332888  0.826135  0.002755  -0.139552
    O   O9   0.556127  0.463797  0.412201  -0.567371
    O   O10  0.461961  0.365884  0.413520  -0.634595
    C   C49  0.510690  0.386350  0.385629  0.428116
    O   O11  0.641183  0.550565  0.591329  -0.677577
    O   O12  0.545828  0.453643  0.592708  -0.637706
    C   C50  0.622188  0.501551  0.620059  0.620640
    Zn  Zn3  0.566800  0.568403  0.501492  1.241910
    Zn  Zn4  0.441120  0.439135  0.500549  1.293624
    O   O13  0.544476  0.641717  0.586865  -0.621297
    O   O14  0.453208  0.543830  0.591208  -0.665751
    O   O15  0.461976  0.552498  0.408047  -0.603468
    O   O16  0.366659  0.458548  0.412366  -0.704324
    C   C51  0.497264  0.621303  0.616088  0.604512
    C   C52  0.385475  0.504933  0.381276  0.592709
    O   O17  0.444165  0.909082  0.860223  -0.629262
    O   O18  0.554351  0.908415  0.959769  -0.600278
    C   C53  0.498919  0.880277  0.880727  0.412040
    O   O19  0.525677  0.087459  0.952775  -0.665320
    O   O20  0.633896  0.081602  0.049447  -0.670729
    C   C54  0.604879  0.111521  0.000998  0.829962
    Zn  Zn5  0.426965  0.000531  0.934752  1.282529
    Zn  Zn6  0.568428  0.996987  0.066429  1.285980
    O   O21  0.440437  0.088558  0.041304  -0.624669
    O   O22  0.551676  0.088884  0.141094  -0.657339
    O   O23  0.361389  0.915584  0.951384  -0.668344
    O   O24  0.469777  0.910662  0.049062  -0.665263
    C   C55  0.495857  0.116412  0.120223  0.483780
    C   C56  0.390633  0.886485  0.000637  0.839139
    H   H25  0.883052  0.563337  0.537519  0.104254
    C   C57  0.764361  0.523440  0.433490  -0.041801
    H   H26  0.781991  0.580293  0.431717  0.087697
    C   C58  0.685354  0.460255  0.376137  -0.269194
    H   H27  0.641519  0.467383  0.328863  0.137482
    C   C59  0.662235  0.388019  0.379001  0.334910
    C   C60  0.720052  0.377388  0.436142  -0.166618
    H   H28  0.703321  0.319575  0.436300  0.085132
    C   C61  0.799030  0.440600  0.493593  -0.124975
    H   H29  0.843830  0.432502  0.539067  0.111085
    C   C62  0.821053  0.513869  0.492649  -0.136317
    C   C63  0.573922  0.250378  0.252613  -0.262724
    H   H30  0.629171  0.250611  0.251499  0.149758
    C   C64  0.498318  0.183990  0.188693  0.290682
    C   C65  0.427380  0.185002  0.189212  -0.233057
    C   C66  0.433848  0.251551  0.254607  -0.162595
    H   H31  0.378630  0.251075  0.255903  0.092678
    C   C67  0.509196  0.318902  0.317612  0.402137
    C   C68  0.579921  0.319004  0.315399  -0.197457
    C   C69  0.282937  0.131450  0.079170  -0.165155
    H   H32  0.295872  0.193365  0.088660  0.104012
    C   C70  0.204194  0.067970  0.021129  -0.168811
    H   H33  0.155778  0.080220  0.985350  0.119760
    C   C71  0.186996  0.989120  0.009359  -0.010963
    H   H34  0.125083  0.939487  0.964436  0.062123
    C   C72  0.248590  0.973797  0.055618  -0.173519
    H   H35  0.234570  0.912337  0.047448  0.121792
    C   C73  0.327674  0.036962  0.112927  -0.094346
    H   H36  0.375347  0.024770  0.149960  0.076327
    C   C74  0.345193  0.115978  0.124513  0.270599
    H   H37  0.460675  0.781148  0.409342  0.108366
    C   C75  0.542469  0.822162  0.539059  -0.123178
    H   H38  0.594934  0.862870  0.543087  0.110545
    C   C76  0.550804  0.816146  0.608926  -0.174444
    H   H39  0.609941  0.851840  0.667464  0.084716
    C   C77  0.483931  0.764040  0.603904  0.275014
    C   C78  0.408814  0.717723  0.528559  -0.047295
    H   H40  0.356317  0.676830  0.524341  0.059536
    C   C79  0.400409  0.724295  0.458923  -0.211275
    H   H41  0.341395  0.688687  0.400216  0.138361
    C   C80  0.467254  0.776316  0.464086  -0.114453
    C   C81  0.493087  0.820076  0.742701  -0.258617
    C   C82  0.497878  0.813517  0.812062  0.346538
    C   C83  0.502796  0.743950  0.816040  -0.295805
    C   C84  0.501226  0.681831  0.750949  -0.160490
    H   H42  0.504552  0.627728  0.754363  0.124241
    C   C85  0.496194  0.688041  0.682166  0.128506
    C   C86  0.492432  0.757586  0.678028  -0.132703
    C   C87  0.574552  0.724441  0.935003  -0.275615
    H   H43  0.625151  0.730733  0.923307  0.145975
    C   C88  0.577833  0.709302  0.998929  -0.069086
    H   H44  0.630890  0.703882  0.037189  0.098255
    C   C89  0.513115  0.700248  0.013496  -0.148621
    H   H45  0.515335  0.687671  0.063151  0.111037
    C   C90  0.445130  0.706291  0.964074  -0.118796
    H   H46  0.393855  0.697684  0.974642  0.116148
    C   C91  0.442184  0.722467  0.900763  -0.144161
    H   H47  0.388219  0.726029  0.861453  0.078806
    C   C92  0.507270  0.732203  0.886490  0.387821
    C   C93  0.489610  0.893284  0.737153  0.403080
    C   C94  0.560584  0.967132  0.782970  0.003705
    Cl  Cl1  0.656146  0.974635  0.848480  -0.071831
    C   C95  0.556668  0.035221  0.776242  -0.113561
    C   C96  0.482052  0.030128  0.724611  0.026787
    Cl  Cl2  0.477305  0.117073  0.717047  -0.095732
    C   C97  0.411246  0.956592  0.678888  -0.055867
    C   C98  0.415050  0.888195  0.684915  -0.307276
    H   H48  0.612233  0.092732  0.811518  0.118971
    H   H49  0.352741  0.952515  0.638221  0.103311
    H   H50  0.359458  0.830545  0.648962  0.146193
