# generated using pymatgen
data_ZnH26C21O4
_symmetry_space_group_name_H-M   'P 1'
_cell_length_a   27.62350900
_cell_length_b   27.60440600
_cell_length_c   27.62352900
_cell_angle_alpha   109.44332200
_cell_angle_beta   109.47132900
_cell_angle_gamma   109.48445200
_symmetry_Int_Tables_number   1
_chemical_formula_structural   ZnH26C21O4
_chemical_formula_sum   'Zn6 H156 C126 O24'
_cell_volume   16217.82037755
_cell_formula_units_Z   6
loop_
 _symmetry_equiv_pos_site_id
 _symmetry_equiv_pos_as_xyz
  1  'x, y, z'
loop_
 _atom_site_type_symbol
 _atom_site_label
 _atom_site_symmetry_multiplicity
 _atom_site_fract_x
 _atom_site_fract_y
 _atom_site_fract_z
 _atom_site_occupancy
  Zn  Zn1  1  0.49863800  0.45241600  0.45057400  1
  Zn  Zn2  1  0.50011900  0.54810000  0.54655200  1
  Zn  Zn3  1  0.95336400  0.45550700  0.99978200  1
  Zn  Zn4  1  0.04882300  0.54774000  0.99748100  1
  Zn  Zn5  1  0.95351200  0.00007900  0.45208700  1
  Zn  Zn6  1  0.04814700  0.00003100  0.54737900  1
  H  H1  1  0.72016600  0.41221900  0.74125600  1
  H  H2  1  0.26260800  0.59793300  0.26867400  1
  H  H3  1  0.66926300  0.40658700  0.65517900  1
  H  H4  1  0.32998500  0.59501500  0.33555700  1
  H  H5  1  0.65945900  0.45598200  0.74030500  1
  H  H6  1  0.34600300  0.54055200  0.26280700  1
  H  H7  1  0.73731200  0.48663300  0.82953600  1
  H  H8  1  0.27797800  0.54360800  0.19448800  1
  H  H9  1  0.77534200  0.56188300  0.84514900  1
  H  H10  1  0.23499500  0.46424900  0.15094600  1
  H  H11  1  0.77148900  0.59642300  0.76698200  1
  H  H12  1  0.22787800  0.40419300  0.24064400  1
  H  H13  1  0.84326000  0.53929100  0.75318100  1
  H  H14  1  0.14266200  0.44293300  0.22027500  1
  H  H15  1  0.73329400  0.44803100  0.65317000  1
  H  H16  1  0.27955800  0.56079500  0.35608800  1
  H  H17  1  0.85022700  0.59217800  0.81733900  1
  H  H18  1  0.16371500  0.40780300  0.17063000  1
  H  H19  1  0.15450200  0.20636500  0.42230100  1
  H  H20  1  0.84577700  0.79350000  0.57689000  1
  H  H21  1  0.22708900  0.26210100  0.41188400  1
  H  H22  1  0.77251700  0.73779400  0.58661100  1
  H  H23  1  0.29257100  0.35840300  0.57343100  1
  H  H24  1  0.70777700  0.64199800  0.42513100  1
  H  H25  1  0.23313700  0.32887000  0.50065600  1
  H  H26  1  0.76675400  0.67112300  0.49803400  1
  H  H27  1  0.17556300  0.26892900  0.52158300  1
  H  H28  1  0.82512900  0.73112300  0.47774600  1
  H  H29  1  0.23812600  0.28385600  0.58479000  1
  H  H30  1  0.76305900  0.71665500  0.41440300  1
  H  H31  1  0.34371900  0.25083500  0.51460100  1
  H  H32  1  0.65694300  0.74995700  0.48364200  1
  H  H33  1  0.26355700  0.21940500  0.41768900  1
  H  H34  1  0.73648600  0.78085100  0.58076600  1
  H  H35  1  0.17897600  0.15325800  0.40805400  1
  H  H36  1  0.82159700  0.84686100  0.59107700  1
  H  H37  1  0.28045300  0.21798100  0.57331000  1
  H  H38  1  0.72123300  0.78297000  0.42580800  1
  H  H39  1  0.01387200  0.17313800  0.76957000  1
  H  H40  1  0.99826000  0.83831700  0.23525200  1
  H  H41  1  0.06495400  0.34462800  0.78440200  1
  H  H42  1  0.94084400  0.65981300  0.21845700  1
  H  H43  1  0.09239700  0.32539500  0.83952200  1
  H  H44  1  0.91065200  0.67465200  0.16016500  1
  H  H45  1  0.08840400  0.24685500  0.77264300  1
  H  H46  1  0.91702800  0.75770700  0.22381200  1
  H  H47  1  0.07157200  0.27399700  0.72192200  1
  H  H48  1  0.92900800  0.73043900  0.27501600  1
  H  H49  1  0.90591800  0.25022400  0.72439800  1
  H  H50  1  0.09862900  0.75780700  0.27480900  1
  H  H51  1  0.96072200  0.30858000  0.72514100  1
  H  H52  1  0.04752800  0.69531800  0.27308600  1
  H  H53  1  0.90800400  0.18451500  0.64868600  1
  H  H54  1  0.09330300  0.81466800  0.35312400  1
  H  H55  1  0.93638200  0.21747900  0.79519200  1
  H  H56  1  0.06472900  0.78552200  0.20180900  1
  H  H57  1  0.96931200  0.24426100  0.65820400  1
  H  H58  1  0.02894700  0.75234000  0.33630200  1
  H  H59  1  0.86215800  0.37144200  0.71134300  1
  H  H60  1  0.81392300  0.35342200  0.63709200  1
  H  H61  1  0.89024600  0.41233800  0.67848500  1
  H  H62  1  0.82167000  0.45147800  0.67672300  1
  H  H63  1  0.87198800  0.47086300  0.75102000  1
  H  H64  1  0.79527700  0.39010600  0.74725900  1
  H  H65  1  0.74616900  0.36315600  0.67154300  1
  H  H66  1  0.12778400  0.60690700  0.32316100  1
  H  H67  1  0.19177200  0.67286200  0.34268500  1
  H  H68  1  0.12022600  0.64458500  0.28099600  1
  H  H69  1  0.18801700  0.62034800  0.24938200  1
  H  H70  1  0.11979900  0.55580300  0.22507700  1
  H  H71  1  0.16684600  0.53019800  0.29197900  1
  H  H72  1  0.22595400  0.60487600  0.34235800  1
  H  H73  1  0.48254900  0.38686000  0.68584300  1
  H  H74  1  0.43848000  0.36165700  0.71756700  1
  H  H75  1  0.48930100  0.33569000  0.71109800  1
  H  H76  1  0.38757700  0.25841800  0.63393300  1
  H  H77  1  0.42955500  0.28576500  0.60126700  1
  H  H78  1  0.38959300  0.35627200  0.60521700  1
  H  H79  1  0.34169200  0.31907400  0.62685400  1
  H  H80  1  0.56329300  0.63991600  0.28073900  1
  H  H81  1  0.51864100  0.61472200  0.31197400  1
  H  H82  1  0.51262900  0.66621700  0.28693600  1
  H  H83  1  0.57172100  0.71567100  0.39677200  1
  H  H84  1  0.61428600  0.74302300  0.36457200  1
  H  H85  1  0.65961100  0.68195400  0.37176000  1
  H  H86  1  0.61110500  0.64468800  0.39283400  1
  H  H87  1  0.26006700  0.04978700  0.48271500  1
  H  H88  1  0.30055700  0.07663600  0.44881800  1
  H  H89  1  0.33900700  0.07759200  0.51674500  1
  H  H90  1  0.35827000  0.17745500  0.53751600  1
  H  H91  1  0.31470900  0.15032200  0.56900700  1
  H  H92  1  0.22341900  0.11600400  0.47588300  1
  H  H93  1  0.26973800  0.15248300  0.45241200  1
  H  H94  1  0.70254800  0.92559400  0.54990900  1
  H  H95  1  0.74138600  0.95080200  0.51402700  1
  H  H96  1  0.66259200  0.92332200  0.48158400  1
  H  H97  1  0.68686900  0.85007800  0.42953000  1
  H  H98  1  0.64319100  0.82386600  0.46130500  1
  H  H99  1  0.73089000  0.84799500  0.54621800  1
  H  H100  1  0.77810500  0.88488500  0.52376100  1
  H  H101  1  0.08249600  0.22598200  0.94478100  1
  H  H102  1  0.03558200  0.25119200  0.96462100  1
  H  H103  1  0.01904400  0.17566700  0.94288300  1
  H  H104  1  0.95221200  0.18279000  0.86227400  1
  H  H105  1  0.99678500  0.15380200  0.84235300  1
  H  H106  1  0.06633300  0.25027800  0.86254300  1
  H  H107  1  0.03143100  0.28446300  0.89419500  1
  H  H108  1  0.94533600  0.74733200  0.03162500  1
  H  H109  1  0.91558000  0.78806000  0.06635700  1
  H  H110  1  0.97514200  0.82540200  0.05540800  1
  H  H111  1  0.01309300  0.85032400  0.15951000  1
  H  H112  1  0.04184100  0.80828200  0.12496400  1
  H  H113  1  0.96213900  0.71599200  0.10521500  1
  H  H114  1  0.93555800  0.75767900  0.14254600  1
  H  H115  1  0.65410400  0.61882300  0.85163000  1
  H  H116  1  0.58286800  0.55396600  0.79346600  1
  H  H117  1  0.61245300  0.56735000  0.86853900  1
  H  H118  1  0.62340000  0.48870900  0.80408000  1
  H  H119  1  0.69379000  0.55239100  0.86517000  1
  H  H120  1  0.70824900  0.59091600  0.80008100  1
  H  H121  1  0.63409200  0.53476400  0.74081300  1
  H  H122  1  0.37146900  0.39488100  0.18195800  1
  H  H123  1  0.30478500  0.36888800  0.11515100  1
  H  H124  1  0.37654100  0.41750800  0.12866400  1
  H  H125  1  0.32432400  0.47215200  0.14894100  1
  H  H126  1  0.39092500  0.49818300  0.21556000  1
  H  H127  1  0.33304700  0.43583900  0.24363600  1
  H  H128  1  0.26555100  0.40657200  0.17756700  1
  H  H129  1  0.81123800  0.04983000  0.61063500  1
  H  H130  1  0.81673800  0.02175400  0.66184300  1
  H  H131  1  0.76936100  0.05346800  0.64853200  1
  H  H132  1  0.85923400  0.12448000  0.74346500  1
  H  H133  1  0.85816000  0.15054800  0.69132000  1
  H  H134  1  0.91506500  0.09164800  0.66972500  1
  H  H135  1  0.92837400  0.09562800  0.73819800  1
  H  H136  1  0.19358400  0.97987200  0.35589700  1
  H  H137  1  0.14352300  0.98741700  0.30048400  1
  H  H138  1  0.16256600  0.02618800  0.37682500  1
  H  H139  1  0.06165000  0.93662800  0.31393800  1
  H  H140  1  0.11193900  0.93363200  0.37383000  1
  H  H141  1  0.12532500  0.86423300  0.30893800  1
  H  H142  1  0.10211800  0.88372100  0.25357900  1
  H  H143  1  0.81323300  0.63070000  0.63729100  1
  H  H144  1  0.73330200  0.58326600  0.59491200  1
  H  H145  1  0.76572900  0.66274400  0.63664400  1
  H  H146  1  0.72852400  0.61272100  0.68691700  1
  H  H147  1  0.80744200  0.66306400  0.73043400  1
  H  H148  1  0.83026600  0.58650700  0.70500200  1
  H  H149  1  0.75608700  0.53113100  0.64679800  1
  H  H150  1  0.17779800  0.41242200  0.38144700  1
  H  H151  1  0.15943900  0.34292300  0.32287600  1
  H  H152  1  0.22199000  0.37779200  0.39596400  1
  H  H153  1  0.25157600  0.39188100  0.32320800  1
  H  H154  1  0.27496300  0.46065200  0.38667900  1
  H  H155  1  0.20356700  0.47788300  0.33134900  1
  H  H156  1  0.15679400  0.40130200  0.27697000  1
  C  C1  1  0.41624500  0.41963500  0.49865700  1
  C  C2  1  0.58258100  0.58088100  0.49853900  1
  C  C3  1  0.58004300  0.49901600  0.58038400  1
  C  C4  1  0.41867500  0.50149300  0.41674300  1
  C  C5  1  0.71436100  0.44606800  0.68237300  1
  C  C6  1  0.28622400  0.55669100  0.31791800  1
  C  C7  1  0.69561700  0.50126800  0.75830300  1
  C  C8  1  0.30292200  0.49976400  0.24150500  1
  C  C9  1  0.75062500  0.51457600  0.81022500  1
  C  C10  1  0.25642900  0.50261600  0.19582000  1
  C  C11  1  0.87427700  0.50203800  0.87226100  1
  C  C12  1  0.12769900  0.50188600  0.12581100  1
  C  C13  1  0.71034700  0.50167200  0.70945300  1
  C  C14  1  0.28715200  0.49963400  0.28966600  1
  C  C15  1  0.75145100  0.44008400  0.73221300  1
  C  C16  1  0.23911000  0.55909800  0.27221500  1
  C  C17  1  0.79063300  0.50123900  0.78805200  1
  C  C18  1  0.20935500  0.50299900  0.21212300  1
  C  C19  1  0.81843300  0.54967300  0.77503400  1
  C  C20  1  0.18092700  0.44651100  0.21391500  1
  C  C21  1  0.77024200  0.55711800  0.73708000  1
  C  C22  1  0.22625900  0.44489000  0.26213500  1
  C  C23  1  0.83660900  0.50184100  0.83427700  1
  C  C24  1  0.16465200  0.50258500  0.16495200  1
  C  C25  1  0.66326300  0.49956000  0.66282900  1
  C  C26  1  0.33437500  0.50086300  0.33526700  1
  C  C27  1  0.62492100  0.49861100  0.62479400  1
  C  C28  1  0.37330900  0.50160700  0.37250200  1
  C  C29  1  0.24380600  0.24266700  0.43817900  1
  C  C30  1  0.75624200  0.75748800  0.56040700  1
  C  C31  1  0.25989000  0.31741300  0.52998200  1
  C  C32  1  0.74039600  0.68285000  0.46870700  1
  C  C33  1  0.21931000  0.27138800  0.53742500  1
  C  C34  1  0.78150300  0.72891700  0.46170200  1
  C  C35  1  0.12747200  0.12887200  0.50143500  1
  C  C36  1  0.87410000  0.87135700  0.49811800  1
  C  C37  1  0.29025900  0.29145300  0.50145300  1
  C  C38  1  0.70995600  0.70895100  0.49698500  1
  C  C39  1  0.19285000  0.19955300  0.43837900  1
  C  C40  1  0.80763200  0.80056600  0.56066900  1
  C  C41  1  0.21191500  0.21161600  0.50140500  1
  C  C42  1  0.78909700  0.78878600  0.49778700  1
  C  C43  1  0.27074700  0.21266600  0.52901200  1
  C  C44  1  0.73050700  0.78809500  0.46996600  1
  C  C45  1  0.31947900  0.26573000  0.53527900  1
  C  C46  1  0.68132300  0.73502500  0.46320400  1
  C  C47  1  0.16556100  0.16644500  0.50159200  1
  C  C48  1  0.83582400  0.83389800  0.49790200  1
  C  C49  1  0.33444100  0.33712300  0.49966600  1
  C  C50  1  0.66525700  0.66331800  0.49832200  1
  C  C51  1  0.37146400  0.37477000  0.49885600  1
  C  C52  1  0.62779400  0.62571500  0.49874500  1
  C  C53  1  0.99772700  0.41665500  0.91665500  1
  C  C54  1  0.00452400  0.58659400  0.08067500  1
  C  C55  1  0.91881800  0.50172100  0.91719700  1
  C  C56  1  0.08335300  0.50153300  0.08006700  1
  C  C57  1  0.00191800  0.91969800  0.41751200  1
  C  C58  1  0.99980300  0.08047900  0.58195400  1
  C  C59  1  0.08219600  0.08367900  0.50084000  1
  C  C60  1  0.91944600  0.91643100  0.49863300  1
  C  C61  1  0.97970700  0.22992500  0.79759800  1
  C  C62  1  0.02182500  0.77240200  0.20099900  1
  C  C63  1  0.05654900  0.30788100  0.79434700  1
  C  C64  1  0.94727700  0.69457300  0.20569900  1
  C  C65  1  0.05682300  0.25852300  0.74937900  1
  C  C66  1  0.94645000  0.74504300  0.24857200  1
  C  C67  1  0.99815100  0.12421400  0.62645600  1
  C  C68  1  0.00430400  0.87670200  0.37306700  1
  C  C69  1  0.99633000  0.28475100  0.79005600  1
  C  C70  1  0.00690900  0.71796000  0.20887600  1
  C  C71  1  0.97780300  0.18099000  0.74824300  1
  C  C72  1  0.02849500  0.82274500  0.25280300  1
  C  C73  1  0.99488700  0.20465400  0.70995800  1
  C  C74  1  0.00889500  0.79788200  0.28947600  1
  C  C75  1  0.95279600  0.22339600  0.68164800  1
  C  C76  1  0.04889100  0.77681000  0.31703600  1
  C  C77  1  0.95071000  0.26835500  0.72947400  1
  C  C78  1  0.05397100  0.73545300  0.26925100  1
  C  C79  1  0.99663600  0.16062300  0.66402100  1
  C  C80  1  0.00669400  0.84120100  0.33553700  1
  C  C81  1  0.99654300  0.33190200  0.83482300  1
  C  C82  1  0.00645600  0.67112400  0.16350700  1
  C  C83  1  0.99696200  0.37064900  0.87199400  1
  C  C84  1  0.00571100  0.63254900  0.12582100  1
  C  C85  1  0.78088000  0.40415800  0.71439300  1
  C  C86  1  0.83329100  0.43439800  0.70732700  1
  C  C87  1  0.85094000  0.38986600  0.68187000  1
  C  C88  1  0.19783100  0.57016100  0.29490600  1
  C  C89  1  0.16281900  0.59351500  0.26379600  1
  C  C90  1  0.14992200  0.63199100  0.30555500  1
  C  C91  1  0.36437400  0.31292500  0.60086500  1
  C  C92  1  0.40933600  0.29666200  0.62890900  1
  C  C93  1  0.45804200  0.34871100  0.68982300  1
  C  C94  1  0.63668500  0.68809900  0.39748800  1
  C  C95  1  0.59213100  0.70472800  0.36935000  1
  C  C96  1  0.54355300  0.65291400  0.30826700  1
  C  C97  1  0.26641100  0.15412100  0.49172100  1
  C  C98  1  0.31448900  0.14515000  0.52736700  1
  C  C99  1  0.30262800  0.08319600  0.49145900  1
  C  C100  1  0.73485200  0.84666400  0.50726200  1
  C  C101  1  0.68707500  0.85576700  0.47127400  1
  C  C102  1  0.69931900  0.91799200  0.50664600  1
  C  C103  1  0.02311300  0.24361400  0.85880000  1
  C  C104  1  0.99774300  0.19376000  0.87084600  1
  C  C105  1  0.03632600  0.21305000  0.93502400  1
  C  C106  1  0.97579100  0.75929000  0.14147800  1
  C  C107  1  0.00154300  0.80626300  0.12623900  1
  C  C108  1  0.95634800  0.79062200  0.06592800  1
  C  C109  1  0.67357000  0.54413000  0.77877500  1
  C  C110  1  0.65467800  0.53621300  0.82268000  1
  C  C111  1  0.62402000  0.57143700  0.83477400  1
  C  C112  1  0.30954400  0.44654700  0.21129500  1
  C  C113  1  0.34555500  0.46047500  0.18158500  1
  C  C114  1  0.34980000  0.40684800  0.14979000  1
  C  C115  1  0.92120500  0.11911100  0.71324400  1
  C  C116  1  0.86270600  0.11725700  0.70308000  1
  C  C117  1  0.81175900  0.05652900  0.65271700  1
  C  C118  1  0.09238100  0.87494700  0.28655600  1
  C  C119  1  0.10163500  0.93245200  0.33097100  1
  C  C120  1  0.15377800  0.98480300  0.34161500  1
  C  C121  1  0.78292800  0.57067700  0.69168100  1
  C  C122  1  0.77158400  0.62045800  0.68966500  1
  C  C123  1  0.77097700  0.62447500  0.63608600  1
  C  C124  1  0.20351600  0.43788100  0.30461800  1
  C  C125  1  0.23654700  0.42024400  0.34544100  1
  C  C126  1  0.19613900  0.38609300  0.36242100  1
  O  O1  1  0.43465900  0.40273700  0.46143600  1
  O  O2  1  0.56413100  0.59778100  0.53572400  1
  O  O3  1  0.43737900  0.47529700  0.53647400  1
  O  O4  1  0.56140400  0.52522400  0.46068400  1
  O  O5  1  0.56126100  0.46408700  0.52454200  1
  O  O6  1  0.43749000  0.53640700  0.47258300  1
  O  O7  1  0.56063000  0.53502000  0.59793500  1
  O  O8  1  0.43809800  0.46548400  0.39918700  1
  O  O9  1  0.96084300  0.40116100  0.93578500  1
  O  O10  1  0.04137700  0.60209400  0.06150800  1
  O  O11  1  0.03560300  0.47198100  0.93654000  1
  O  O12  1  0.96661800  0.53126700  0.06075400  1
  O  O13  1  0.90147000  0.46490200  0.93590500  1
  O  O14  1  0.10073700  0.53838100  0.06138800  1
  O  O15  1  0.97466600  0.53793600  0.93706100  1
  O  O16  1  0.02751600  0.46533300  0.06021300  1
  O  O17  1  0.96632200  0.93961100  0.40023800  1
  O  O18  1  0.03536800  0.06053400  0.59922500  1
  O  O19  1  0.03644600  0.93803200  0.47332500  1
  O  O20  1  0.96524800  0.06212000  0.52613800  1
  O  O21  1  0.02672200  0.06272600  0.46265900  1
  O  O22  1  0.97492800  0.93738200  0.53680200  1
  O  O23  1  0.09854900  0.06492500  0.53793100  1
  O  O24  1  0.90311800  0.93519400  0.46155000  1
