# generated using pymatgen
data_Fe2H13C35NO16
_symmetry_space_group_name_H-M   'P 1'
_cell_length_a   15.29147500
_cell_length_b   9.30538500
_cell_length_c   16.12788400
_cell_angle_alpha   92.05769000
_cell_angle_beta   103.05270600
_cell_angle_gamma   107.45446300
_symmetry_Int_Tables_number   1
_chemical_formula_structural   Fe2H13C35NO16
_chemical_formula_sum   'Fe2 H13 C35 N1 O16'
_cell_volume   2119.34985955
_cell_formula_units_Z   1
loop_
 _symmetry_equiv_pos_site_id
 _symmetry_equiv_pos_as_xyz
  1  'x, y, z'
loop_
 _atom_site_type_symbol
 _atom_site_label
 _atom_site_symmetry_multiplicity
 _atom_site_fract_x
 _atom_site_fract_y
 _atom_site_fract_z
 _atom_site_occupancy
  Fe  Fe1  1  0.49183600  0.98946600  0.81285800  1
  Fe  Fe2  1  0.50894900  0.01565300  0.18833000  1
  H  H1  1  0.80818100  0.08561200  0.21040100  1
  H  H2  1  0.95991800  0.09709800  0.18212400  1
  H  H3  1  0.82894700  0.98683000  0.91581000  1
  H  H4  1  0.05771400  0.10616100  0.08073500  1
  H  H5  1  0.94154200  0.88518000  0.92053300  1
  H  H6  1  0.03851200  0.88657700  0.81956200  1
  H  H7  1  0.19025000  0.89929300  0.79080000  1
  H  H8  1  0.17213500  0.01187900  0.08472400  1
  H  H9  1  0.49811900  0.45023000  0.77953100  1
  H  H10  1  0.50878900  0.56839400  0.22270200  1
  H  H11  1  0.48012700  0.24798200  0.53761700  1
  H  H12  1  0.50498900  0.28333200  0.41975800  1
  H  H13  1  0.50444400  0.87340800  0.46166500  1
  C  C1  1  0.81198400  0.06434000  0.14518800  1
  C  C2  1  0.89759000  0.06951800  0.12941100  1
  C  C3  1  0.90319800  0.03359300  0.04759500  1
  C  C4  1  0.82328700  0.00251300  0.98068300  1
  C  C5  1  0.73685600  0.99867400  0.99553100  1
  C  C6  1  0.73080300  0.02458000  0.07938700  1
  C  C7  1  0.99555700  0.03629100  0.03376900  1
  C  C8  1  0.00391400  0.95499800  0.96734100  1
  C  C9  1  0.10132700  0.91769100  0.87190900  1
  C  C10  1  0.18695400  0.92350300  0.85586900  1
  C  C11  1  0.26875000  0.96830700  0.92106100  1
  C  C12  1  0.26344900  0.99860200  0.00468400  1
  C  C13  1  0.17695300  0.99329100  0.01983500  1
  C  C14  1  0.09627700  0.95757400  0.95338200  1
  C  C15  1  0.48261100  0.19448800  0.69419500  1
  C  C16  1  0.35906700  0.99388200  0.89799400  1
  C  C17  1  0.65669600  0.97865200  0.92069800  1
  C  C18  1  0.49726500  0.72363000  0.73959600  1
  C  C19  1  0.50764700  0.28951000  0.25805800  1
  C  C20  1  0.34472000  0.02472700  0.07925600  1
  C  C21  1  0.64047000  0.00196200  0.10202900  1
  C  C22  1  0.51779200  0.81471800  0.30917800  1
  C  C23  1  0.49825300  0.46351900  0.71331100  1
  C  C24  1  0.49099700  0.33979400  0.66017900  1
  C  C25  1  0.48826600  0.35093000  0.57506000  1
  C  C26  1  0.49903200  0.59909300  0.68114800  1
  C  C27  1  0.50001600  0.61247600  0.59552700  1
  C  C28  1  0.49711700  0.48940400  0.54202100  1
  C  C29  1  0.50158100  0.50799600  0.45682400  1
  C  C30  1  0.50338800  0.39173100  0.40054600  1
  C  C31  1  0.50511600  0.41237400  0.31656900  1
  C  C32  1  0.50482600  0.76486200  0.48262900  1
  C  C33  1  0.50596600  0.64805200  0.42762900  1
  C  C34  1  0.50879500  0.66862200  0.34309400  1
  C  C35  1  0.50594200  0.54998900  0.28792900  1
  N  N1  1  0.50279400  0.74515800  0.56427200  1
  O  O1  1  0.53051800  0.19163000  0.77229100  1
  O  O2  1  0.42832400  0.12036800  0.92830100  1
  O  O3  1  0.42251600  0.06939800  0.64931300  1
  O  O4  1  0.36666300  0.90292100  0.83767300  1
  O  O5  1  0.57858600  0.00271900  0.92857600  1
  O  O6  1  0.66725800  0.95319600  0.84359800  1
  O  O7  1  0.49564400  0.85556400  0.71423400  1
  O  O8  1  0.49504600  0.70142800  0.81910200  1
  O  O9  1  0.50770900  0.15756300  0.28450600  1
  O  O10  1  0.50955500  0.31087500  0.17840700  1
  O  O11  1  0.42275100  0.99976900  0.07193400  1
  O  O12  1  0.33512400  0.05545000  0.15610100  1
  O  O13  1  0.58761100  0.93587100  0.34749500  1
  O  O14  1  0.63457100  0.09319600  0.16315800  1
  O  O15  1  0.46646300  0.81739900  0.23248000  1
  O  O16  1  0.56957500  0.87797900  0.07058700  1
