# Generated by REPEAT Assigner based on pymatgen
data_DB0-m2_o6_o17_f0_pcu.sym.49
_audit_creation_date              2022-05-24
_audit_creation_method            REPEAT_Assigner
_cell_length_a                    16.049413
_cell_length_b                    14.617790
_cell_length_c                    14.954001
_cell_angle_alpha                 90.000000
_cell_angle_beta                  89.999810
_cell_angle_gamma                 90.000000
_cell_volume                      3508.312547
_symmetry_space_group_name_H-M    P1
_symmetry_Int_Tables_number       1
loop_
    _symmetry_equiv_pos_site_id
    _symmetry_equiv_pos_as_xyz
    1  x,y,z
loop_
    _atom_site_type_symbol
    _atom_site_label
    _atom_site_fract_x
    _atom_site_fract_y
    _atom_site_fract_z
    _atom_type_partial_charge
    O   O1   0.371606  0.578372  0.504180  -0.563244
    O   O2   0.613355  0.421098  0.504460  -0.555341
    O   O3   0.613768  0.578440  0.504592  -0.539216
    O   O4   0.371196  0.421017  0.504042  -0.543899
    C   C1   0.332607  0.499805  0.501649  0.662130
    C   C2   0.652365  0.499660  0.502198  0.606920
    O   O5   0.495785  0.578411  0.371660  -0.544781
    O   O6   0.489167  0.420893  0.631248  -0.546655
    O   O7   0.495405  0.578268  0.631381  -0.551551
    O   O8   0.489554  0.421352  0.371522  -0.572432
    C   C3   0.492691  0.499922  0.329840  0.561920
    C   C4   0.492190  0.499551  0.673028  0.612691
    Cu  Cu1  0.492694  0.591275  0.501525  0.929514
    Cu  Cu2  0.492278  0.408192  0.501363  0.947501
    C   C5   0.502240  0.580243  0.816438  -0.467635
    C   C6   0.478928  0.419857  0.186490  -0.503121
    C   C7   0.491898  0.499559  0.770632  0.223568
    C   C8   0.492387  0.499992  0.232268  0.280365
    C   C9   0.481101  0.419010  0.816590  -0.452220
    C   C10  0.505295  0.580177  0.186345  -0.464663
    C   C11  0.478325  0.418803  0.909065  0.359712
    C   C12  0.503355  0.581295  0.093855  0.338759
    C   C13  0.491382  0.499856  0.955247  -0.075766
    C   C14  0.491496  0.500020  0.047680  -0.075003
    C   C15  0.504389  0.580750  0.908881  0.375025
    C   C16  0.479747  0.418872  0.094033  0.387560
    C   C17  0.464695  0.337892  0.955612  -0.324652
    C   C18  0.515552  0.662505  0.047313  -0.288686
    C   C19  0.466435  0.337800  0.047813  -0.415695
    C   C20  0.517180  0.661961  0.955077  -0.419675
    H   H1   0.508939  0.642358  0.778488  0.205592
    H   H2   0.467164  0.358674  0.224498  0.220993
    H   H3   0.474702  0.356761  0.778774  0.189263
    H   H4   0.517794  0.641249  0.224242  0.193139
    C   C21  0.949127  0.581712  0.508458  -0.351579
    C   C22  0.035835  0.417388  0.502593  -0.353822
    C   C23  0.035585  0.581886  0.508706  -0.335946
    C   C24  0.949369  0.417190  0.503138  -0.344406
    C   C25  0.906401  0.499386  0.505579  0.615947
    C   C26  0.078570  0.499734  0.505252  0.605932
    C   C27  0.816805  0.499328  0.504725  -0.399323
    C   C28  0.168167  0.499924  0.504208  -0.370516
    C   C29  0.243263  0.499989  0.503100  0.046551
    C   C30  0.741709  0.499421  0.503692  0.081279
    H   H5   0.623645  0.084150  0.523038  0.139480
    H   H6   0.361524  0.915335  0.479894  0.171668
    H   H7   0.361315  0.083635  0.479429  0.145013
    H   H8   0.623841  0.915835  0.523617  0.132493
    C   C31  0.566171  0.952702  0.513851  -0.161373
    C   C32  0.419001  0.046758  0.489067  -0.117448
    C   C33  0.419123  0.952429  0.489314  -0.233657
    C   C34  0.566054  0.047038  0.513561  -0.151152
    C   C35  0.492706  0.905407  0.501675  0.252479
    C   C36  0.492460  0.094063  0.501211  0.197824
    C   C37  0.492808  0.807244  0.501717  0.152735
    C   C38  0.492279  0.192222  0.501202  0.168739
    N   N1   0.492159  0.271371  0.501237  -0.242723
    N   N2   0.492831  0.728094  0.501692  -0.234333
    C   C39  0.449373  0.250908  0.908943  0.942081
    O   O9   0.388617  0.242660  0.860550  -0.533673
    O   O10  0.500802  0.179192  0.922178  -0.478959
    C   C40  0.486080  0.096568  0.881739  0.134038
    H   H9   0.535331  0.047417  0.901600  0.072434
    H   H10  0.487092  0.104924  0.807999  -0.009436
    H   H11  0.424669  0.069624  0.903326  0.054970
    C   C41  0.529027  0.749825  0.094049  0.922734
    O   O11  0.474423  0.781458  0.141679  -0.541891
    O   O12  0.600413  0.796767  0.081332  -0.468585
    C   C42  0.612570  0.880481  0.120583  0.165375
    H   H12  0.674841  0.906950  0.101550  0.059347
    H   H13  0.609489  0.873663  0.194400  -0.005881
    H   H14  0.564258  0.929121  0.097072  0.035611
    C   C43  0.450737  0.251391  0.095195  0.971978
    O   O13  0.383450  0.213300  0.087709  -0.546122
    O   O14  0.511286  0.213215  0.145397  -0.418170
    C   C44  0.498115  0.131984  0.189049  0.030152
    H   H15  0.555471  0.112351  0.225670  0.057886
    H   H16  0.482807  0.077726  0.139858  0.063274
    H   H17  0.446261  0.139745  0.237521  0.035327
    C   C45  0.531023  0.748737  0.907569  0.984959
    O   O15  0.482083  0.811927  0.916733  -0.565553
    O   O16  0.598810  0.759048  0.855203  -0.438553
    C   C46  0.613561  0.839738  0.811210  0.101039
    H   H18  0.672020  0.833637  0.772120  0.068103
    H   H19  0.620313  0.896066  0.860384  0.029356
    H   H20  0.561290  0.854680  0.764904  0.004256
    C   C47  0.081900  0.668873  0.508700  0.783315
    O   O17  0.139175  0.680885  0.561049  -0.501586
    O   O18  0.060209  0.736198  0.451583  -0.313591
    C   C48  0.100821  0.818717  0.452291  0.004621
    H   H21  0.073329  0.863893  0.400553  0.078901
    H   H22  0.167858  0.808316  0.437336  0.062572
    H   H23  0.093576  0.851545  0.518728  0.049666
    C   C49  0.902979  0.330458  0.497145  0.799740
    O   O19  0.845928  0.314622  0.548798  -0.511703
    O   O20  0.924331  0.267544  0.435263  -0.326718
    C   C50  0.883712  0.185159  0.430450  0.023728
    H   H24  0.910886  0.143868  0.375504  0.076414
    H   H25  0.816587  0.196608  0.416719  0.056036
    H   H26  0.891327  0.147562  0.494380  0.044280
    C   C51  0.902470  0.668161  0.515558  0.798655
    O   O21  0.845947  0.684948  0.463525  -0.512786
    O   O22  0.922870  0.729650  0.579158  -0.317757
    C   C52  0.881480  0.811441  0.585795  0.012015
    H   H27  0.907905  0.851485  0.642022  0.077315
    H   H28  0.814369  0.798930  0.598715  0.063644
    H   H29  0.889186  0.850870  0.522949  0.046852
    C   C53  0.082450  0.330623  0.503456  0.818017
    O   O23  0.138976  0.317763  0.450367  -0.515863
    O   O24  0.061866  0.264458  0.562325  -0.327609
    C   C54  0.102911  0.182191  0.562839  0.029101
    H   H30  0.076390  0.138090  0.616049  0.071258
    H   H31  0.170101  0.193377  0.576450  0.055984
    H   H32  0.094916  0.147750  0.497283  0.045122
