# Generated by REPEAT Assigner based on pymatgen
data_DB0-m2_o16_o18_f0_pcu.sym.61_sqe
_audit_creation_date              2022-05-24
_audit_creation_method            REPEAT_Assigner
_cell_length_a                    12.158433
_cell_length_b                    13.434540
_cell_length_c                    14.454017
_cell_angle_alpha                 91.809239
_cell_angle_beta                  107.417479
_cell_angle_gamma                 116.254497
_cell_volume                      1982.872096
_symmetry_space_group_name_H-M    P1
_symmetry_Int_Tables_number       1
loop_
    _symmetry_equiv_pos_site_id
    _symmetry_equiv_pos_as_xyz
    1  x,y,z
loop_
    _atom_site_type_symbol
    _atom_site_label
    _atom_site_fract_x
    _atom_site_fract_y
    _atom_site_fract_z
    _atom_type_partial_charge
    O   O1   0.545919  0.678953  0.538043  -0.616270
    O   O2   0.687605  0.633246  0.497236  -0.548017
    C   C1   0.653898  0.708169  0.518854  0.710262
    O   O3   0.516572  0.533961  0.663826  -0.583873
    O   O4   0.653111  0.477719  0.626366  -0.551389
    C   C2   0.612895  0.508794  0.690527  0.658903
    Cu  Cu1  0.415861  0.522604  0.525877  0.914405
    Cu  Cu2  0.585721  0.469980  0.484408  0.796405
    O   O5   0.314492  0.359567  0.515248  -0.583280
    O   O6   0.454402  0.313295  0.469466  -0.604233
    O   O7   0.345358  0.511588  0.383983  -0.591207
    O   O8   0.487426  0.461345  0.346904  -0.558502
    C   C3   0.345638  0.284896  0.487571  0.702754
    C   C4   0.388145  0.482951  0.320221  0.652301
    C   C5   0.684450  0.521496  0.795987  -0.102758
    C   C6   0.321796  0.475591  0.214840  -0.043686
    C   C7   0.724964  0.577314  0.965471  -0.232218
    C   C8   0.653336  0.562021  0.867588  -0.094942
    C   C9   0.787608  0.496476  0.823546  -0.073633
    C   C10  0.865238  0.516284  0.922676  -0.023735
    C   C11  0.829755  0.555127  0.992716  0.277330
    C   C12  0.975960  0.498130  0.953841  0.135615
    C   C13  0.042919  0.512105  0.054507  -0.070679
    C   C14  0.003574  0.552147  0.122028  -0.081483
    C   C15  0.899413  0.573515  0.091156  -0.324625
    C   C16  0.023522  0.469781  0.886444  -0.321456
    C   C17  0.130343  0.450331  0.915984  0.078701
    C   C18  0.194088  0.460386  0.015916  -0.070348
    C   C19  0.149991  0.489433  0.085497  0.171399
    C   C20  0.302697  0.442195  0.047064  -0.103290
    C   C21  0.366275  0.450643  0.145314  -0.115628
    C   C22  0.213796  0.493592  0.184959  -0.177713
    H   H1   0.872643  0.605366  0.145797  0.152969
    H   H2   0.179734  0.507588  0.241849  0.110025
    H   H3   0.450425  0.436342  0.166432  0.101129
    H   H4   0.699368  0.608528  0.021310  0.119328
    H   H5   0.573487  0.582122  0.848185  0.113092
    H   H6   0.802993  0.459556  0.765047  0.068804
    H   H7   0.053348  0.572605  0.200539  0.116162
    H   H8   0.981666  0.466900  0.809487  0.179905
    H   H9   0.342384  0.421498  0.996504  0.079394
    C   C23  0.151008  0.977420  0.380545  -0.272677
    H   H10  0.328706  0.110076  0.377283  0.115520
    H   H11  0.944012  0.781477  0.324636  0.152785
    H   H12  0.151370  0.917144  0.329451  0.127916
    C   C24  0.248988  0.165003  0.469190  -0.126892
    C   C25  0.740293  0.904386  0.595040  -0.045434
    C   C26  0.832781  0.016013  0.620577  -0.110361
    C   C27  0.934271  0.055035  0.585042  -0.227789
    C   C28  0.942563  0.983447  0.518570  0.084131
    C   C29  0.843973  0.870715  0.488612  0.202834
    C   C30  0.046405  0.021264  0.481270  -0.065082
    C   C31  0.048500  0.945648  0.415344  0.285769
    C   C32  0.945804  0.838221  0.380458  -0.282949
    C   C33  0.843090  0.802174  0.414146  -0.199088
    C   C34  0.148175  0.132483  0.506634  -0.040034
    C   C35  0.251801  0.086285  0.408056  -0.058584
    C   C36  0.745925  0.829687  0.531296  -0.211406
    H   H13  0.152291  0.197229  0.554952  0.043728
    H   H14  0.666169  0.875687  0.628819  0.100655
    H   H15  0.004078  0.142895  0.611702  0.178564
    H   H16  0.828303  0.073252  0.671843  0.099057
    H   H17  0.761679  0.720104  0.377947  0.142482
    C   C37  0.247251  0.670337  0.659305  -0.214963
    H   H18  0.436806  0.693236  0.675724  0.149945
    H   H19  0.069923  0.704664  0.694522  0.135155
    H   H20  0.283860  0.738567  0.720295  0.108469
    N   N1   0.288700  0.561393  0.558650  -0.137325
    C   C38  0.663484  0.345023  0.379400  0.028364
    C   C39  0.742636  0.311877  0.351827  -0.175511
    C   C40  0.875731  0.368304  0.399861  -0.110288
    C   C41  0.930985  0.458808  0.477705  0.073835
    C   C42  0.846807  0.488820  0.504614  0.182075
    C   C43  0.067421  0.520428  0.529424  -0.133327
    C   C44  0.115285  0.608681  0.606864  0.341871
    C   C45  0.032211  0.636051  0.633594  -0.283049
    C   C46  0.900660  0.577499  0.583469  -0.105558
    C   C47  0.159112  0.497906  0.506929  0.012079
    C   C48  0.333201  0.645178  0.634326  -0.020547
    N   N2   0.714834  0.433043  0.453908  -0.144491
    H   H21  0.131436  0.430997  0.448270  0.120164
    H   H22  0.559194  0.300062  0.339793  0.135849
    H   H23  0.931341  0.337775  0.373868  0.122960
    H   H24  0.700037  0.241348  0.291559  0.119887
    H   H25  0.844072  0.605173  0.609715  0.157276
    C   C49  0.176220  0.417575  0.839703  0.233775
    O   O9   0.096406  0.406334  0.743639  -0.486050
    H   H26  0.174399  0.335019  0.847503  -0.015584
    H   H27  0.277465  0.482910  0.850405  0.037024
    H   H28  0.044507  0.323692  0.718612  0.308904
