# Generated by REPEAT Assigner based on pymatgen
data_DB0-m3_o52_o23_f0_fsc.sym.30_sqe
_audit_creation_date              2022-05-24
_audit_creation_method            REPEAT_Assigner
_cell_length_a                    14.250074
_cell_length_b                    8.581961
_cell_length_c                    14.963328
_cell_angle_alpha                 90.000000
_cell_angle_beta                  90.968834
_cell_angle_gamma                 90.000000
_cell_volume                      1829.657281
_symmetry_space_group_name_H-M    P1
_symmetry_Int_Tables_number       1
loop_
    _symmetry_equiv_pos_site_id
    _symmetry_equiv_pos_as_xyz
    1  x,y,z
loop_
    _atom_site_type_symbol
    _atom_site_label
    _atom_site_fract_x
    _atom_site_fract_y
    _atom_site_fract_z
    _atom_type_partial_charge
    H   H1   0.039725  0.994688  0.561693  0.093016
    H   H2   0.959872  0.996516  0.438849  0.100261
    C   C1   0.018747  0.136169  0.675488  -0.195278
    C   C2   0.979260  0.137135  0.324353  -0.118660
    C   C3   0.012893  0.139652  0.767416  0.394428
    C   C4   0.985609  0.139064  0.232530  0.204065
    C   C5   0.005408  0.999424  0.814129  -0.784483
    C   C6   0.994760  0.999105  0.186774  -0.443898
    C   C7   0.001534  0.857808  0.767946  0.431504
    C   C8   0.000153  0.858922  0.233305  0.231495
    C   C9   0.016494  0.857006  0.676569  -0.215285
    C   C10  0.984748  0.858260  0.324399  -0.125662
    C   C11  0.028098  0.995848  0.632397  0.087785
    C   C12  0.971459  0.997127  0.368149  0.023002
    N   N1   0.077955  0.952521  0.959575  -0.384116
    N   N2   0.075456  0.951118  0.047791  -0.155522
    C   C13  0.997935  0.999560  0.089544  0.610882
    C   C14  0.002616  0.000501  0.911608  1.232331
    N   N3   0.922783  0.048269  0.041688  -0.136457
    N   N4   0.924743  0.047397  0.953458  -0.399177
    O   O1   0.089524  0.664961  0.584346  -0.540189
    O   O2   0.910852  0.666748  0.415945  -0.552226
    O   O3   0.929086  0.660070  0.600875  -0.674735
    O   O4   0.071308  0.659870  0.399310  -0.684722
    C   C15  0.012358  0.714976  0.621929  0.755386
    C   C16  0.988291  0.715938  0.378513  0.766604
    O   O5   0.909681  0.329541  0.415648  -0.639927
    O   O6   0.089045  0.327603  0.583660  -0.651274
    O   O7   0.070234  0.334001  0.398855  -0.594325
    O   O8   0.928549  0.334026  0.600506  -0.603433
    C   C17  0.986258  0.279025  0.378441  0.751212
    C   C18  0.012218  0.277531  0.620655  0.769871
    Zn  Zn1  0.895785  0.497788  0.508308  1.001443
    Zn  Zn2  0.103775  0.496526  0.491515  1.006381
    C   C19  0.550260  0.412088  0.588186  0.017308
    C   C20  0.449535  0.411138  0.411874  0.014535
    C   C21  0.557883  0.414634  0.415256  -0.128342
    C   C22  0.441908  0.414203  0.584725  -0.125528
    H   H3   0.424957  0.484564  0.355592  0.119973
    H   H4   0.574397  0.486121  0.644395  0.118295
    N   N5   0.226518  0.496133  0.484307  0.042453
    N   N6   0.773039  0.498909  0.515550  0.046778
    C   C23  0.589462  0.492185  0.504447  0.292873
    C   C24  0.410079  0.491142  0.495474  0.277244
    C   C25  0.445977  0.659678  0.491449  -0.016609
    C   C26  0.552924  0.660358  0.508243  -0.022698
    C   C27  0.307591  0.494295  0.488125  -0.076686
    C   C28  0.691959  0.496464  0.511778  -0.090042
    H   H5   0.570466  0.704219  0.575742  0.082027
    H   H6   0.428319  0.703010  0.423856  0.078770
    N   N7   0.022907  0.285992  0.812519  0.281026
    O   O9   0.071910  0.396111  0.776122  -0.211254
    O   O10  0.990607  0.307276  0.892257  -0.232949
    N   N8   0.980779  0.284202  0.186023  0.439367
    O   O11  0.932283  0.398203  0.219001  -0.257379
    O   O12  0.021157  0.302175  0.109433  -0.277880
    N   N9   0.981010  0.714695  0.813086  0.232505
    O   O13  0.001574  0.695793  0.897320  -0.221005
    O   O14  0.934620  0.605597  0.771455  -0.211305
    N   N10  0.017243  0.715925  0.187501  0.391870
    O   O15  0.984671  0.693522  0.106826  -0.265328
    O   O16  0.067567  0.607929  0.225845  -0.258689
    N   N11  0.400630  0.259230  0.593855  0.474477
    O   O17  0.336884  0.238925  0.653886  -0.233569
    O   O18  0.433201  0.137935  0.552861  -0.203477
    N   N12  0.599785  0.260126  0.406179  0.487358
    O   O19  0.663291  0.240247  0.345868  -0.241890
    O   O20  0.567962  0.138694  0.447570  -0.206211
    N   N13  0.589367  0.258368  0.608344  0.466869
    O   O21  0.671822  0.220640  0.579297  -0.319864
    O   O22  0.559677  0.187309  0.679271  -0.253529
    N   N14  0.411063  0.256835  0.392064  0.477169
    O   O23  0.328785  0.218331  0.421239  -0.324464
    O   O24  0.440940  0.185764  0.321222  -0.254680
    N   N15  0.590737  0.506641  0.339462  0.387757
    O   O25  0.551411  0.483385  0.261482  -0.263781
    O   O26  0.676938  0.556500  0.340571  -0.241183
    N   N16  0.408609  0.505924  0.660448  0.392701
    O   O27  0.447791  0.482751  0.738500  -0.263825
    O   O28  0.322258  0.555070  0.659183  -0.248781
    N   N17  0.602645  0.761876  0.446453  0.536651
    O   O29  0.689550  0.798305  0.464247  -0.331804
    O   O30  0.559244  0.832947  0.381073  -0.318872
    N   N18  0.395796  0.760828  0.553083  0.532246
    O   O31  0.308903  0.796895  0.534992  -0.329877
    O   O32  0.438538  0.830738  0.619258  -0.319046
