# generated using pymatgen
data_ZnH6C13NO6
_symmetry_space_group_name_H-M   'P 1'
_cell_length_a   6.60977700
_cell_length_b   11.23306800
_cell_length_c   12.43482000
_cell_angle_alpha   100.67525700
_cell_angle_beta   79.99762600
_cell_angle_gamma   95.40245200
_symmetry_Int_Tables_number   1
_chemical_formula_structural   ZnH6C13NO6
_chemical_formula_sum   'Zn2 H12 C26 N2 O12'
_cell_volume   891.65814491
_cell_formula_units_Z   2
loop_
 _symmetry_equiv_pos_site_id
 _symmetry_equiv_pos_as_xyz
  1  'x, y, z'
loop_
 _atom_site_type_symbol
 _atom_site_label
 _atom_site_symmetry_multiplicity
 _atom_site_fract_x
 _atom_site_fract_y
 _atom_site_fract_z
 _atom_site_occupancy
  Zn  Zn1  1  0.47225700  0.86872400  0.49168000  1
  Zn  Zn2  1  0.53151800  0.13794700  0.51254800  1
  H  H1  1  0.52558200  0.97429000  0.84214700  1
  H  H2  1  0.47817600  0.03240300  0.16212100  1
  H  H3  1  0.64433100  0.96772900  0.01294900  1
  H  H4  1  0.35943300  0.03899300  0.99132300  1
  H  H5  1  0.26083900  0.04541800  0.85727700  1
  H  H6  1  0.74292200  0.96131800  0.14700100  1
  H  H7  1  0.24550400  0.31176200  0.55771800  1
  H  H8  1  0.75791600  0.69371300  0.44357300  1
  H  H9  1  0.08455300  0.49615900  0.56027700  1
  H  H10  1  0.91922100  0.51109500  0.44530100  1
  H  H11  1  0.07303000  0.14081400  0.49373900  1
  H  H12  1  0.77311200  0.73934400  0.60304000  1
  C  C1  1  0.68700400  0.99337700  0.84699000  1
  C  C2  1  0.31675900  0.01330700  0.15727200  1
  C  C3  1  0.75610200  0.98905000  0.94422500  1
  C  C4  1  0.24766000  0.01766000  0.06004400  1
  C  C5  1  0.96342200  0.00866300  0.95085800  1
  C  C6  1  0.04033800  0.99805900  0.05341300  1
  C  C7  1  0.09777400  0.03399300  0.85779300  1
  C  C8  1  0.90598600  0.97273000  0.14647900  1
  C  C9  1  0.02891900  0.03701500  0.75961000  1
  C  C10  1  0.97485500  0.96968400  0.24465100  1
  C  C11  1  0.82105800  0.01751000  0.75465800  1
  C  C12  1  0.18270500  0.98914200  0.24959400  1
  C  C13  1  0.26877000  0.99267900  0.35068200  1
  C  C14  1  0.73494900  0.01398500  0.65358000  1
  C  C15  1  0.82106900  0.97762800  0.34503600  1
  C  C16  1  0.18275500  0.02906400  0.65923900  1
  C  C17  1  0.23367300  0.53864400  0.53325100  1
  C  C18  1  0.76994300  0.46824100  0.47142100  1
  C  C19  1  0.25117800  0.65717500  0.51557700  1
  C  C20  1  0.75274200  0.35007500  0.49002000  1
  C  C21  1  0.60890600  0.64901100  0.46705400  1
  C  C22  1  0.39452600  0.35711500  0.53572600  1
  C  C23  1  0.59573000  0.53085400  0.48483300  1
  C  C24  1  0.40769300  0.47555100  0.51866200  1
  C  C25  1  0.93871600  0.28379600  0.47389500  1
  C  C26  1  0.06638600  0.72518100  0.53552700  1
  N  N1  1  0.56569200  0.29563500  0.51965800  1
  N  N2  1  0.43806000  0.71102200  0.48450000  1
  O  O1  1  0.35220800  0.09716500  0.39363200  1
  O  O2  1  0.65168500  0.90945700  0.61054800  1
  O  O3  1  0.29646100  0.88957800  0.38000200  1
  O  O4  1  0.70698800  0.11712100  0.62439000  1
  O  O5  1  0.71814300  0.87842900  0.37153900  1
  O  O6  1  0.28552900  0.12826900  0.63263700  1
  O  O7  1  0.76960600  0.08691700  0.39303900  1
  O  O8  1  0.23439800  0.91978400  0.61132900  1
  O  O9  1  0.10257400  0.32786900  0.43221100  1
  O  O10  1  0.93106700  0.17310800  0.50977300  1
  O  O11  1  0.07119200  0.82049300  0.50135400  1
  O  O12  1  0.88375500  0.67985400  0.59227900  1
