# generated using pymatgen
data_ZnH25C24NO4
_symmetry_space_group_name_H-M   'P 1'
_cell_length_a   8.92521000
_cell_length_b   17.76780200
_cell_length_c   16.60230500
_cell_angle_alpha   90.00046200
_cell_angle_beta   97.76827700
_cell_angle_gamma   90.00441600
_symmetry_Int_Tables_number   1
_chemical_formula_structural   ZnH25C24NO4
_chemical_formula_sum   'Zn2 H50 C48 N2 O8'
_cell_volume   2608.65436505
_cell_formula_units_Z   2
loop_
 _symmetry_equiv_pos_site_id
 _symmetry_equiv_pos_as_xyz
  1  'x, y, z'
loop_
 _atom_site_type_symbol
 _atom_site_label
 _atom_site_symmetry_multiplicity
 _atom_site_fract_x
 _atom_site_fract_y
 _atom_site_fract_z
 _atom_site_occupancy
  Zn  Zn1  1  0.52352900  0.49333600  0.59324900  1
  Zn  Zn2  1  0.52001600  0.49485400  0.40970700  1
  H  H1  1  0.00141800  0.49475400  0.40817100  1
  H  H2  1  0.04212800  0.49339500  0.59477800  1
  H  H3  1  0.70623800  0.87330500  0.43720100  1
  H  H4  1  0.71081400  0.11503500  0.58965100  1
  H  H5  1  0.31290900  0.54555400  0.70424900  1
  H  H6  1  0.72746900  0.55230200  0.29868200  1
  H  H7  1  0.73600200  0.43818200  0.73713900  1
  H  H8  1  0.30946300  0.44014000  0.26585900  1
  H  H9  1  0.73638900  0.43754100  0.88515400  1
  H  H10  1  0.30988700  0.43887500  0.11796800  1
  H  H11  1  0.48508400  0.88212900  0.69713200  1
  H  H12  1  0.46987000  0.97438300  0.65110200  1
  H  H13  1  0.32441100  0.94160900  0.70744500  1
  H  H14  1  0.26764600  0.93501500  0.54919000  1
  H  H15  1  0.22326900  0.85817300  0.60882700  1
  H  H16  1  0.47259800  0.10608200  0.30033000  1
  H  H17  1  0.46040600  0.01383600  0.34464500  1
  H  H18  1  0.31076000  0.04649900  0.26946800  1
  H  H19  1  0.26364300  0.05310300  0.42108200  1
  H  H20  1  0.21523500  0.12992800  0.35554500  1
  H  H21  1  0.43152200  0.68379600  0.68566400  1
  H  H22  1  0.33327500  0.77053000  0.69767300  1
  H  H23  1  0.23057600  0.68308500  0.69084900  1
  H  H24  1  0.18107500  0.74943700  0.55840700  1
  H  H25  1  0.27339300  0.66454100  0.55021100  1
  H  H26  1  0.42108000  0.30358100  0.30499500  1
  H  H27  1  0.31967900  0.21743600  0.28006800  1
  H  H28  1  0.21909200  0.30546800  0.27377200  1
  H  H29  1  0.17606700  0.23885300  0.40033100  1
  H  H30  1  0.26957500  0.32371300  0.42029500  1
  H  H31  1  0.83490400  0.80462400  0.35486200  1
  H  H32  1  0.92577000  0.79719300  0.46000300  1
  H  H33  1  0.96011500  0.72768300  0.38570500  1
  H  H34  1  0.79131500  0.67372200  0.46848000  1
  H  H35  1  0.68629200  0.69270700  0.36946100  1
  H  H36  1  0.84486200  0.18380800  0.68875800  1
  H  H37  1  0.92977800  0.19136300  0.59489500  1
  H  H38  1  0.96846600  0.26086300  0.67392000  1
  H  H39  1  0.79391900  0.31465700  0.56904600  1
  H  H40  1  0.69457600  0.29572100  0.65499800  1
  H  H41  1  0.13282300  0.45534900  0.83425900  1
  H  H42  1  0.23160000  0.45884600  0.93671500  1
  H  H43  1  0.06820900  0.51779700  0.90837200  1
  H  H44  1  0.30742100  0.59203700  0.91324100  1
  H  H45  1  0.20084900  0.58878400  0.81344000  1
  H  H46  1  0.63408900  0.63212000  0.05213400  1
  H  H47  1  0.68388800  0.67559400  0.15058500  1
  H  H48  1  0.82453000  0.66537500  0.08250200  1
  H  H49  1  0.86459600  0.57180400  0.19145100  1
  H  H50  1  0.81007900  0.52543900  0.09577900  1
  C  C1  1  0.52126900  0.34673700  0.50000900  1
  C  C2  1  0.52174500  0.64146700  0.50290900  1
  C  C3  1  0.22599200  0.49418200  0.48113400  1
  C  C4  1  0.81755300  0.49396000  0.52181600  1
  C  C5  1  0.06030400  0.49428100  0.46967600  1
  C  C6  1  0.98324100  0.49384300  0.53327300  1
  C  C7  1  0.42282600  0.84234900  0.54642100  1
  C  C8  1  0.41946700  0.14583800  0.44368800  1
  C  C9  1  0.41590200  0.76362600  0.54309700  1
  C  C10  1  0.41267300  0.22456000  0.44607100  1
  C  C11  1  0.52066400  0.72418600  0.50369500  1
  C  C12  1  0.52016000  0.26403400  0.49908300  1
  C  C13  1  0.62817000  0.76257800  0.46627500  1
  C  C14  1  0.63042400  0.22570900  0.55044200  1
  C  C15  1  0.62892800  0.84041900  0.46734600  1
  C  C16  1  0.63125700  0.14787100  0.54948400  1
  C  C17  1  0.52827300  0.87950000  0.50707500  1
  C  C18  1  0.52778700  0.10873800  0.49672500  1
  C  C19  1  0.53052400  0.96023600  0.50367300  1
  C  C20  1  0.53037500  0.02800400  0.50044600  1
  C  C21  1  0.40162600  0.52177600  0.82766100  1
  C  C22  1  0.63936100  0.52812800  0.17516800  1
  C  C23  1  0.40587200  0.52197400  0.74480100  1
  C  C24  1  0.63603300  0.52732000  0.25814100  1
  C  C25  1  0.64160900  0.46201100  0.76281900  1
  C  C26  1  0.40281600  0.46494400  0.24014300  1
  C  C27  1  0.64179100  0.46139000  0.84589400  1
  C  C28  1  0.40278200  0.46431200  0.15712700  1
  C  C29  1  0.52133500  0.49145300  0.87871100  1
  C  C30  1  0.52172800  0.49581900  0.12423800  1
  C  C31  1  0.52281000  0.49243700  0.96529200  1
  C  C32  1  0.52265200  0.49377900  0.03785000  1
  C  C33  1  0.31876200  0.88968300  0.58988100  1
  C  C34  1  0.40561700  0.92415800  0.66599600  1
  C  C35  1  0.31235100  0.09845600  0.38675800  1
  C  C36  1  0.39485100  0.06401400  0.32145200  1
  C  C37  1  0.29124400  0.72148400  0.57651400  1
  C  C38  1  0.32397000  0.71452200  0.66843300  1
  C  C39  1  0.28571600  0.26669300  0.39633900  1
  C  C40  1  0.31337300  0.27348600  0.30830900  1
  C  C41  1  0.74235600  0.71855200  0.42644500  1
  C  C42  1  0.87368600  0.76569900  0.40563500  1
  C  C43  1  0.74741700  0.26983600  0.60501700  1
  C  C44  1  0.88063200  0.22278400  0.64278700  1
  C  C45  1  0.26891900  0.55472500  0.86097400  1
  C  C46  1  0.16932800  0.49253400  0.88691600  1
  C  C47  1  0.77005600  0.56303100  0.14174800  1
  C  C48  1  0.72480500  0.63885500  0.10415200  1
  N  N1  1  0.52463200  0.49230700  0.71376000  1
  N  N2  1  0.51890800  0.49594300  0.28920200  1
  O  O1  1  0.52328300  0.38139700  0.56996700  1
  O  O2  1  0.52051800  0.60678700  0.43303300  1
  O  O3  1  0.51981800  0.38252000  0.43071600  1
  O  O4  1  0.52333400  0.60566500  0.57218400  1
  O  O5  1  0.29803700  0.49350200  0.55539200  1
  O  O6  1  0.74550700  0.49446500  0.44755800  1
  O  O7  1  0.29492000  0.49479600  0.41615100  1
  O  O8  1  0.74862200  0.49351100  0.58679700  1
