# Generated by REPEAT Assigner based on pymatgen
data_DB0-m3_o23_o27_f0_pcu.sym.60_sqe
_audit_creation_date              2022-05-24
_audit_creation_method            REPEAT_Assigner
_cell_length_a                    15.962812
_cell_length_b                    14.809583
_cell_length_c                    19.337169
_cell_angle_alpha                 90.000000
_cell_angle_beta                  90.006275
_cell_angle_gamma                 90.000000
_cell_volume                      4571.356548
_symmetry_space_group_name_H-M    P1
_symmetry_Int_Tables_number       1
loop_
    _symmetry_equiv_pos_site_id
    _symmetry_equiv_pos_as_xyz
    1  x,y,z
loop_
    _atom_site_type_symbol
    _atom_site_label
    _atom_site_fract_x
    _atom_site_fract_y
    _atom_site_fract_z
    _atom_type_partial_charge
    O   O1   0.385379  0.579141  0.496949  -0.694325
    O   O2   0.385000  0.423181  0.497045  -0.678903
    C   C1   0.346312  0.501290  0.497278  0.888343
    O   O3   0.510037  0.578600  0.393934  -0.615209
    O   O4   0.509655  0.422785  0.394040  -0.627513
    C   C2   0.510054  0.500654  0.361607  0.612328
    Zn  Zn1  0.510284  0.603704  0.496978  1.092435
    Zn  Zn2  0.509843  0.398183  0.497157  1.087677
    O   O5   0.635061  0.578712  0.496820  -0.711549
    O   O6   0.634698  0.422746  0.496920  -0.710249
    O   O7   0.510237  0.579078  0.600043  -0.636970
    O   O8   0.509854  0.423304  0.600144  -0.637893
    C   C3   0.673782  0.500625  0.497142  0.955694
    C   C4   0.510347  0.501217  0.632484  0.639457
    C   C5   0.510666  0.581147  0.249659  -0.173098
    C   C6   0.508597  0.420060  0.249643  -0.183567
    H   H1   0.511555  0.645121  0.276508  0.110612
    H   H2   0.507745  0.356074  0.276488  0.120253
    C   C7   0.510515  0.581189  0.178368  0.162578
    C   C8   0.508437  0.420070  0.178338  0.165598
    H   H3   0.511302  0.645270  0.151688  0.011467
    H   H4   0.507517  0.356017  0.151619  0.005450
    C   C9   0.509453  0.500649  0.142193  -0.537108
    C   C10  0.509787  0.500601  0.285752  0.068011
    N   N1   0.508816  0.422306  0.031167  -0.340003
    N   N2   0.510268  0.579263  0.031298  -0.344377
    N   N3   0.508950  0.422413  0.962808  -0.345722
    N   N4   0.510393  0.579371  0.962941  -0.342788
    C   C11  0.509747  0.500946  0.927840  0.910933
    C   C12  0.509478  0.500734  0.066267  0.912164
    C   C13  0.510496  0.581661  0.815800  0.153381
    C   C14  0.509581  0.420538  0.815704  0.151856
    H   H5   0.510788  0.645702  0.842545  0.012913
    H   H6   0.509162  0.356436  0.842360  0.013928
    C   C15  0.510653  0.581719  0.744495  -0.165582
    C   C16  0.509764  0.420636  0.744410  -0.162843
    H   H7   0.511071  0.645716  0.717674  0.112377
    H   H8   0.509464  0.356676  0.717538  0.111635
    C   C17  0.510279  0.501212  0.708346  0.054293
    C   C18  0.509939  0.501057  0.851914  -0.528299
    C   C19  0.056187  0.581071  0.540963  -0.120728
    C   C20  0.057632  0.414233  0.529873  0.163704
    C   C21  0.962619  0.418182  0.534878  -0.294627
    C   C22  0.961504  0.585150  0.533467  -0.178038
    H   H9   0.932545  0.589831  0.585467  0.037374
    H   H10  0.944176  0.422221  0.590075  0.046905
    H   H11  0.071073  0.566352  0.595807  0.035396
    H   H12  0.083393  0.410086  0.583011  -0.032087
    H   H13  0.933371  0.357246  0.512042  0.063848
    H   H14  0.942299  0.644702  0.502593  0.030084
    C   C23  0.763657  0.500425  0.497070  -0.277327
    C   C24  0.089223  0.502176  0.497108  0.370663
    C   C25  0.930731  0.500981  0.497172  0.668612
    C   C26  0.962392  0.500695  0.423261  -0.178013
    C   C27  0.056876  0.509878  0.423271  0.027930
    C   C28  0.839127  0.500497  0.497067  -0.289984
    C   C29  0.181013  0.502097  0.497066  -0.266179
    C   C30  0.256491  0.501662  0.497131  -0.239771
    H   H15  0.074616  0.575692  0.400496  -0.005335
    H   H16  0.084707  0.456789  0.390089  -0.012427
    H   H17  0.934468  0.557920  0.394344  0.031534
    H   H18  0.944249  0.436592  0.397704  0.023570
    C   C31  0.425403  0.053752  0.453899  0.029638
    C   C32  0.416800  0.950992  0.466266  -0.062989
    C   C33  0.502547  0.051105  0.565303  -0.163569
    C   C34  0.516158  0.949967  0.564130  -0.133812
    H   H19  0.372640  0.944782  0.510199  0.001277
    H   H20  0.371157  0.086178  0.479670  -0.004435
    H   H21  0.552988  0.083457  0.595982  0.071349
    H   H22  0.581129  0.934316  0.580563  0.042622
    H   H23  0.441331  0.066811  0.589612  0.042612
    H   H24  0.471944  0.916998  0.600453  0.058847
    N   N5   0.508937  0.738642  0.495278  -0.089022
    N   N6   0.508139  0.263238  0.495852  -0.093095
    C   C35  0.504129  0.086397  0.491726  0.526365
    C   C36  0.502015  0.915262  0.491269  0.605945
    C   C37  0.572489  0.949931  0.445641  -0.160849
    C   C38  0.582744  0.050330  0.457090  -0.109826
    C   C39  0.505728  0.816639  0.493369  -0.213764
    C   C40  0.506489  0.185188  0.494227  -0.164328
    H   H25  0.595431  0.084368  0.407191  0.040962
    H   H26  0.558827  0.936414  0.390466  0.041927
    H   H27  0.637264  0.062306  0.491447  0.035879
    H   H28  0.631772  0.915352  0.459497  0.065613
    C   C41  0.424802  0.085777  0.377952  -0.179185
    C   C42  0.340477  0.127782  0.360156  0.257197
    C   C43  0.336352  0.147366  0.283311  -0.386244
    H   H29  0.388500  0.192875  0.268412  0.104835
    H   H30  0.340968  0.083356  0.253788  0.086857
    H   H31  0.275847  0.180573  0.271182  0.083216
    H   H32  0.288071  0.082463  0.374389  -0.030505
    H   H33  0.333440  0.192173  0.388891  -0.008348
    H   H34  0.471545  0.139681  0.369306  0.061397
    H   H35  0.441121  0.031689  0.340943  0.024173
    C   C44  0.378161  0.897039  0.405835  -0.161164
    C   C45  0.332268  0.811744  0.429101  0.194720
    C   C46  0.249282  0.803863  0.391443  -0.276631
    H   H36  0.207010  0.859671  0.407152  0.053763
    H   H37  0.259874  0.806049  0.334770  0.054397
    H   H38  0.219548  0.738577  0.405033  0.055144
    H   H39  0.370471  0.751831  0.415572  0.024234
    H   H40  0.320072  0.811633  0.485499  -0.021799
    H   H41  0.330526  0.938712  0.379691  0.074898
    H   H42  0.426375  0.878001  0.367290  0.050630
    C   C47  0.085290  0.329188  0.490687  -0.174250
    C   C48  0.081539  0.247222  0.537969  0.230067
    C   C49  0.106703  0.163336  0.498124  -0.197193
    H   H43  0.062928  0.152593  0.454357  0.038825
    H   H44  0.171408  0.171084  0.478074  0.016101
    H   H45  0.104213  0.103993  0.533044  0.029326
    H   H46  0.125513  0.256456  0.581809  -0.034615
    H   H47  0.017261  0.237869  0.558392  -0.046947
    H   H48  0.044652  0.317374  0.445090  0.041557
    H   H49  0.150645  0.335270  0.472182  0.055916
    C   C50  0.095106  0.673058  0.523152  -0.022141
    C   C51  0.072123  0.742993  0.577623  0.145659
    C   C52  0.114607  0.831946  0.561050  -0.301600
    H   H50  0.183588  0.823184  0.561528  0.075827
    H   H51  0.094286  0.855918  0.509378  0.067129
    H   H52  0.096858  0.882776  0.600523  0.068275
    H   H53  0.003516  0.754193  0.578892  -0.013298
    H   H54  0.093431  0.719747  0.629220  -0.018660
    H   H55  0.164306  0.669275  0.522263  0.056040
    H   H56  0.073285  0.697179  0.472006  0.032563
