# generated using pymatgen
data_ZnH6C19NO4F
_symmetry_space_group_name_H-M   'P 1'
_cell_length_a   15.80453000
_cell_length_b   10.79780000
_cell_length_c   12.77196900
_cell_angle_alpha   90.00000000
_cell_angle_beta   96.45746500
_cell_angle_gamma   90.00000000
_symmetry_Int_Tables_number   1
_chemical_formula_structural   ZnH6C19NO4F
_chemical_formula_sum   'Zn2 H12 C38 N2 O8 F2'
_cell_volume   2165.76142323
_cell_formula_units_Z   2
loop_
 _symmetry_equiv_pos_site_id
 _symmetry_equiv_pos_as_xyz
  1  'x, y, z'
loop_
 _atom_site_type_symbol
 _atom_site_label
 _atom_site_symmetry_multiplicity
 _atom_site_fract_x
 _atom_site_fract_y
 _atom_site_fract_z
 _atom_site_occupancy
  Zn  Zn1  1  0.48930100  0.49998700  0.88256900  1
  Zn  Zn2  1  0.51070000  0.50001300  0.11743100  1
  H  H1  1  0.35508300  0.90277900  0.93763600  1
  H  H2  1  0.64491700  0.09722100  0.06236500  1
  H  H3  1  0.64493400  0.90276000  0.06240100  1
  H  H4  1  0.35506700  0.09724000  0.93760000  1
  H  H5  1  0.24830400  0.60346500  0.08652100  1
  H  H6  1  0.75169700  0.39653500  0.91348000  1
  H  H7  1  0.75166600  0.60351800  0.91336300  1
  H  H8  1  0.24833400  0.39648200  0.08663700  1
  H  H9  1  0.12119500  0.71536100  0.10093800  1
  H  H10  1  0.87880600  0.28463900  0.89906300  1
  H  H11  1  0.87877900  0.71541300  0.89896300  1
  H  H12  1  0.12122100  0.28458700  0.10103700  1
  C  C1  1  0.07767600  0.93631900  0.00674300  1
  C  C2  1  0.92232400  0.06368100  0.99325800  1
  C  C3  1  0.92232000  0.93632600  0.99323300  1
  C  C4  1  0.07768000  0.06367400  0.00676700  1
  C  C5  1  0.99999700  0.87295700  0.99997500  1
  C  C6  1  0.00000400  0.12704300  0.00002600  1
  C  C7  1  0.22733600  0.93517800  0.98206900  1
  C  C8  1  0.77266500  0.06482200  0.01793100  1
  C  C9  1  0.77266400  0.93518100  0.01792000  1
  C  C10  1  0.22733600  0.06481900  0.98208100  1
  C  C11  1  0.29971800  0.86474500  0.96768900  1
  C  C12  1  0.70028200  0.13525500  0.03231200  1
  C  C13  1  0.70028700  0.86474100  0.03230800  1
  C  C14  1  0.29971400  0.13525900  0.96769300  1
  C  C15  1  0.30496400  0.74267500  0.00015300  1
  C  C16  1  0.69503600  0.25732500  0.99984700  1
  C  C17  1  0.69503000  0.74268400  0.99980800  1
  C  C18  1  0.30497000  0.25731600  0.00019300  1
  C  C19  1  0.24106700  0.69369500  0.05091800  1
  C  C20  1  0.75893400  0.30630500  0.94908200  1
  C  C21  1  0.75891300  0.69372900  0.94899900  1
  C  C22  1  0.24108700  0.30627100  0.05100100  1
  C  C23  1  0.16691700  0.75720100  0.05533700  1
  C  C24  1  0.83308400  0.24279900  0.94466400  1
  C  C25  1  0.83306500  0.75723300  0.94458800  1
  C  C26  1  0.16693500  0.24276600  0.05541300  1
  C  C27  1  0.15617700  0.87492500  0.01263500  1
  C  C28  1  0.84382400  0.12507500  0.98736600  1
  C  C29  1  0.84381700  0.87493700  0.98732700  1
  C  C30  1  0.15618400  0.12506200  0.01267400  1
  C  C31  1  0.38145900  0.33283200  0.99709700  1
  C  C32  1  0.61854200  0.66716800  0.00290400  1
  C  C33  1  0.61854300  0.33283200  0.00292800  1
  C  C34  1  0.38145800  0.66716800  0.99707300  1
  C  C35  1  0.48520200  0.49998200  0.65469800  1
  C  C36  1  0.51479800  0.50001800  0.34530200  1
  C  C37  1  0.49519500  0.49999400  0.54615500  1
  C  C38  1  0.50480500  0.50000600  0.45384500  1
  N  N1  1  0.47950300  0.49997500  0.74424600  1
  N  N2  1  0.52049800  0.50002500  0.25575500  1
  O  O1  1  0.40299900  0.36996400  0.90568400  1
  O  O2  1  0.59700200  0.63003600  0.09431600  1
  O  O3  1  0.59700300  0.36998600  0.09433300  1
  O  O4  1  0.40299800  0.63001400  0.90566700  1
  O  O5  1  0.41681500  0.37639400  0.08732900  1
  O  O6  1  0.58318500  0.62360600  0.91267200  1
  O  O7  1  0.58318600  0.37637300  0.91268800  1
  O  O8  1  0.41681400  0.62362700  0.08731300  1
  F  F1  1  0.99999300  0.74784300  0.99994700  1
  F  F2  1  0.00000800  0.25215700  0.00005400  1
