# generated using pymatgen
data_ZnH11C31N(ClO2)2
_symmetry_space_group_name_H-M   'P 1'
_cell_length_a   17.61283900
_cell_length_b   10.83401800
_cell_length_c   15.74755900
_cell_angle_alpha   90.00000000
_cell_angle_beta   95.96481800
_cell_angle_gamma   90.00000000
_symmetry_Int_Tables_number   1
_chemical_formula_structural   ZnH11C31N(ClO2)2
_chemical_formula_sum   'Zn2 H22 C62 N2 Cl4 O8'
_cell_volume   2988.64586504
_cell_formula_units_Z   2
loop_
 _symmetry_equiv_pos_site_id
 _symmetry_equiv_pos_as_xyz
  1  'x, y, z'
loop_
 _atom_site_type_symbol
 _atom_site_label
 _atom_site_symmetry_multiplicity
 _atom_site_fract_x
 _atom_site_fract_y
 _atom_site_fract_z
 _atom_site_occupancy
  Zn  Zn1  1  0.08525700  0.49082000  0.50545300  1
  Zn  Zn2  1  0.91474100  0.50918100  0.49454700  1
  H  H1  1  0.93500000  0.19573800  0.98773300  1
  H  H2  1  0.06499800  0.80426200  0.01226600  1
  H  H3  1  0.02763900  0.08816900  0.63734000  1
  H  H4  1  0.97235800  0.91183100  0.36265900  1
  H  H5  1  0.01156800  0.09760500  0.36535800  1
  H  H6  1  0.98843000  0.90239500  0.63464200  1
  H  H7  1  0.96855900  0.41187000  0.76280800  1
  H  H8  1  0.03143900  0.58813000  0.23719200  1
  H  H9  1  0.94914500  0.41578300  0.22155000  1
  H  H10  1  0.05085300  0.58421700  0.77844900  1
  H  H11  1  0.96896200  0.30750100  0.89358100  1
  H  H12  1  0.03103600  0.69249900  0.10641800  1
  H  H13  1  0.95001200  0.30751700  0.09252500  1
  H  H14  1  0.04998500  0.69248300  0.90747500  1
  H  H15  1  0.31726800  0.18707000  0.47722100  1
  H  H16  1  0.68273000  0.81293000  0.52277900  1
  H  H17  1  0.68190800  0.20331500  0.45457900  1
  H  H18  1  0.31808900  0.79668500  0.54542000  1
  H  H19  1  0.43075400  0.08698200  0.45388000  1
  H  H20  1  0.56924400  0.91301800  0.54612000  1
  H  H21  1  0.56813800  0.09332100  0.44517800  1
  H  H22  1  0.43186000  0.90667900  0.55482100  1
  C  C1  1  0.99048500  0.05916200  0.92056200  1
  C  C2  1  0.00951300  0.94083900  0.07943700  1
  C  C3  1  0.98290200  0.06046100  0.07456300  1
  C  C4  1  0.01709600  0.93953900  0.92543700  1
  C  C5  1  0.96914400  0.11443800  0.99426900  1
  C  C6  1  0.03085400  0.88556200  0.00573000  1
  C  C7  1  0.00338800  0.06165600  0.76914000  1
  C  C8  1  0.99661000  0.93834400  0.23086000  1
  C  C9  1  0.98772700  0.06645900  0.22860600  1
  C  C10  1  0.01227000  0.93354100  0.77139400  1
  C  C11  1  0.01082900  0.12956400  0.69473000  1
  C  C12  1  0.98916900  0.87043700  0.30527000  1
  C  C13  1  0.99394100  0.13671600  0.30352800  1
  C  C14  1  0.00605700  0.86328400  0.69647200  1
  C  C15  1  0.99907400  0.25527900  0.69309900  1
  C  C16  1  0.00092400  0.74472100  0.30690000  1
  C  C17  1  0.98158800  0.26215700  0.30055400  1
  C  C18  1  0.01841000  0.73784300  0.69944600  1
  C  C19  1  0.97926000  0.31377600  0.76437300  1
  C  C20  1  0.02073800  0.68622400  0.23562700  1
  C  C21  1  0.96063300  0.31792800  0.22392700  1
  C  C22  1  0.03936500  0.68207200  0.77607200  1
  C  C23  1  0.97715400  0.25077800  0.83928200  1
  C  C24  1  0.02284400  0.74922200  0.16071700  1
  C  C25  1  0.95983300  0.25263700  0.14939400  1
  C  C26  1  0.04016500  0.74736300  0.85060500  1
  C  C27  1  0.98887000  0.12360300  0.84323500  1
  C  C28  1  0.01112700  0.87639700  0.15676400  1
  C  C29  1  0.97499700  0.12613300  0.15002500  1
  C  C30  1  0.02500100  0.87386700  0.84997400  1
  C  C31  1  0.01004900  0.66112200  0.62273600  1
  C  C32  1  0.98994900  0.33887800  0.37726300  1
  C  C33  1  0.99791700  0.67002800  0.38368400  1
  C  C34  1  0.00208100  0.32997200  0.61631600  1
  C  C35  1  0.22557600  0.38109100  0.50498400  1
  C  C36  1  0.77442100  0.61890900  0.49501600  1
  C  C37  1  0.77482100  0.40269700  0.48222600  1
  C  C38  1  0.22517700  0.59730300  0.51777300  1
  C  C39  1  0.34457900  0.27577700  0.48596200  1
  C  C40  1  0.65541900  0.72422300  0.51403700  1
  C  C41  1  0.65525800  0.28983400  0.46740400  1
  C  C42  1  0.34473900  0.71016600  0.53259500  1
  C  C43  1  0.30432900  0.38296000  0.50025100  1
  C  C44  1  0.69566800  0.61704000  0.49974800  1
  C  C45  1  0.69566100  0.40005600  0.47939800  1
  C  C46  1  0.30433700  0.59994400  0.52060100  1
  C  C47  1  0.34363200  0.49291100  0.50895100  1
  C  C48  1  0.65636600  0.50708900  0.49104800  1
  C  C49  1  0.46083600  0.17360200  0.46333300  1
  C  C50  1  0.53916200  0.82639800  0.53666600  1
  C  C51  1  0.53834800  0.17725800  0.45828800  1
  C  C52  1  0.46165000  0.82274200  0.54171100  1
  C  C53  1  0.42213900  0.28002100  0.48009600  1
  C  C54  1  0.57785900  0.71997900  0.51990400  1
  C  C55  1  0.57745500  0.28724800  0.47021900  1
  C  C56  1  0.42254300  0.71275200  0.52978000  1
  C  C57  1  0.46099500  0.39003700  0.49026500  1
  C  C58  1  0.53900200  0.60996300  0.50973400  1
  C  C59  1  0.53885000  0.39372700  0.48534100  1
  C  C60  1  0.46114800  0.60627300  0.51465800  1
  C  C61  1  0.42185400  0.49632800  0.50494300  1
  C  C62  1  0.57814400  0.50367200  0.49505600  1
  N  N1  1  0.18573900  0.48818000  0.51104500  1
  N  N2  1  0.81425900  0.51182000  0.48895400  1
  Cl  Cl1  1  0.17902100  0.23709500  0.50114300  1
  Cl  Cl2  1  0.82097600  0.76290500  0.49885600  1
  Cl  Cl3  1  0.82139200  0.25850900  0.48458200  1
  Cl  Cl4  1  0.17860500  0.74149100  0.51541800  1
  O  O1  1  0.94123400  0.62871900  0.59015100  1
  O  O2  1  0.05876400  0.37128000  0.40984800  1
  O  O3  1  0.06216900  0.61843200  0.41457900  1
  O  O4  1  0.93782900  0.38156800  0.58542100  1
  O  O5  1  0.07234600  0.61581300  0.59629900  1
  O  O6  1  0.92765200  0.38418700  0.40370000  1
  O  O7  1  0.93122100  0.64061100  0.40891400  1
  O  O8  1  0.06877600  0.35938900  0.59108500  1
