# generated using pymatgen
data_Cu3H56C48(N2O3)4
_symmetry_space_group_name_H-M   'P 1'
_cell_length_a   21.47081800
_cell_length_b   21.47081400
_cell_length_c   35.13671000
_cell_angle_alpha   90.00000000
_cell_angle_beta   90.00000000
_cell_angle_gamma   90.00000000
_symmetry_Int_Tables_number   1
_chemical_formula_structural   Cu3H56C48(N2O3)4
_chemical_formula_sum   'Cu12 H224 C192 N32 O48'
_cell_volume   16197.88064462
_cell_formula_units_Z   4
loop_
 _symmetry_equiv_pos_site_id
 _symmetry_equiv_pos_as_xyz
  1  'x, y, z'
loop_
 _atom_site_type_symbol
 _atom_site_label
 _atom_site_symmetry_multiplicity
 _atom_site_fract_x
 _atom_site_fract_y
 _atom_site_fract_z
 _atom_site_occupancy
  Cu  Cu1  1  0.43904800  0.00000000  0.00000000  1
  Cu  Cu2  1  0.00000000  0.43904900  0.00000000  1
  Cu  Cu3  1  0.56095100  0.00000000  0.00000000  1
  Cu  Cu4  1  0.00000000  0.56095100  0.00000000  1
  Cu  Cu5  1  0.93904800  0.50000000  0.50000000  1
  Cu  Cu6  1  0.50000000  0.93904900  0.50000000  1
  Cu  Cu7  1  0.06095100  0.50000000  0.50000000  1
  Cu  Cu8  1  0.50000000  0.06095100  0.50000000  1
  Cu  Cu9  1  0.50000000  0.50000000  0.03712300  1
  Cu  Cu10  1  0.50000000  0.50000000  0.96287800  1
  Cu  Cu11  1  0.00000000  0.00000000  0.53712300  1
  Cu  Cu12  1  0.00000000  0.00000000  0.46287800  1
  H  H1  1  0.56268900  0.92393200  0.68858100  1
  H  H2  1  0.07606700  0.56269100  0.68858100  1
  H  H3  1  0.43731000  0.07606800  0.68858100  1
  H  H4  1  0.92393300  0.43730900  0.68858100  1
  H  H5  1  0.56268900  0.07606800  0.31141900  1
  H  H6  1  0.07606700  0.43730900  0.31141900  1
  H  H7  1  0.43731000  0.92393200  0.31141900  1
  H  H8  1  0.92393300  0.56269100  0.31141900  1
  H  H9  1  0.06269000  0.42393200  0.18858100  1
  H  H10  1  0.57606800  0.06269000  0.18858100  1
  H  H11  1  0.93730900  0.57606800  0.18858100  1
  H  H12  1  0.42393200  0.93731000  0.18858100  1
  H  H13  1  0.06269000  0.57606800  0.81141900  1
  H  H14  1  0.57606800  0.93731000  0.81141900  1
  H  H15  1  0.93730900  0.42393200  0.81141900  1
  H  H16  1  0.42393200  0.06269000  0.81141900  1
  H  H17  1  0.54869400  0.80845100  0.05247100  1
  H  H18  1  0.19154900  0.54869600  0.05247000  1
  H  H19  1  0.45130500  0.19154900  0.05247100  1
  H  H20  1  0.80845100  0.45130400  0.05247000  1
  H  H21  1  0.54869400  0.19154900  0.94752900  1
  H  H22  1  0.19154900  0.45130400  0.94753000  1
  H  H23  1  0.45130600  0.80845100  0.94752900  1
  H  H24  1  0.80845100  0.54869600  0.94753000  1
  H  H25  1  0.04869800  0.30845100  0.55246900  1
  H  H26  1  0.69154800  0.04869200  0.55247200  1
  H  H27  1  0.95130100  0.69154900  0.55246900  1
  H  H28  1  0.30845100  0.95130800  0.55247200  1
  H  H29  1  0.04869800  0.69154900  0.44753100  1
  H  H30  1  0.69154800  0.95130800  0.44752900  1
  H  H31  1  0.95130100  0.30845100  0.44753100  1
  H  H32  1  0.30845100  0.04869200  0.44752900  1
  H  H33  1  0.63946700  0.67825400  0.03183700  1
  H  H34  1  0.64140600  0.65930400  0.08182100  1
  H  H35  1  0.63496100  0.73973300  0.06684000  1
  H  H36  1  0.48596400  0.72886700  0.09353000  1
  H  H37  1  0.56182800  0.72122200  0.11558800  1
  H  H38  1  0.51190500  0.65408100  0.11016600  1
  H  H39  1  0.32174700  0.63946800  0.03183500  1
  H  H40  1  0.34069600  0.64140900  0.08181900  1
  H  H41  1  0.26026700  0.63496300  0.06683800  1
  H  H42  1  0.27113300  0.48596700  0.09353000  1
  H  H43  1  0.27877800  0.56183200  0.11558800  1
  H  H44  1  0.34591900  0.51190800  0.11016600  1
  H  H45  1  0.36053200  0.32174600  0.03183600  1
  H  H46  1  0.35859300  0.34069600  0.08182100  1
  H  H47  1  0.36503900  0.26026700  0.06684000  1
  H  H48  1  0.51403600  0.27113300  0.09353000  1
  H  H49  1  0.43817200  0.27877800  0.11558800  1
  H  H50  1  0.48809500  0.34591900  0.11016600  1
  H  H51  1  0.67825300  0.36053200  0.03183500  1
  H  H52  1  0.65930300  0.35859100  0.08182000  1
  H  H53  1  0.73973200  0.36503700  0.06683800  1
  H  H54  1  0.72886700  0.51403300  0.09353000  1
  H  H55  1  0.72122200  0.43816900  0.11558800  1
  H  H56  1  0.65408100  0.48809200  0.11016600  1
  H  H57  1  0.63946700  0.32174600  0.96816400  1
  H  H58  1  0.64140600  0.34069600  0.91817900  1
  H  H59  1  0.63496100  0.26026700  0.93316100  1
  H  H60  1  0.48596400  0.27113300  0.90647100  1
  H  H61  1  0.56182800  0.27877800  0.88441200  1
  H  H62  1  0.51190500  0.34591900  0.88983400  1
  H  H63  1  0.32174600  0.36053200  0.96816500  1
  H  H64  1  0.34069600  0.35859100  0.91818100  1
  H  H65  1  0.26026700  0.36503700  0.93316200  1
  H  H66  1  0.27113300  0.51403300  0.90647000  1
  H  H67  1  0.27877800  0.43816800  0.88441200  1
  H  H68  1  0.34591900  0.48809200  0.88983400  1
  H  H69  1  0.36053200  0.67825400  0.96816400  1
  H  H70  1  0.35859300  0.65930400  0.91817900  1
  H  H71  1  0.36503900  0.73973300  0.93316000  1
  H  H72  1  0.51403600  0.72886700  0.90647100  1
  H  H73  1  0.43817200  0.72122200  0.88441200  1
  H  H74  1  0.48809500  0.65408100  0.88983400  1
  H  H75  1  0.67825300  0.63946800  0.96816500  1
  H  H76  1  0.65930300  0.64140900  0.91818100  1
  H  H77  1  0.73973200  0.63496300  0.93316200  1
  H  H78  1  0.72886700  0.48596700  0.90647000  1
  H  H79  1  0.72122200  0.56183100  0.88441200  1
  H  H80  1  0.65408100  0.51190800  0.88983400  1
  H  H81  1  0.13946900  0.17825300  0.53183300  1
  H  H82  1  0.14141200  0.15930300  0.58181700  1
  H  H83  1  0.13496600  0.23973200  0.56683600  1
  H  H84  1  0.98597100  0.22886700  0.59353000  1
  H  H85  1  0.06183600  0.22122200  0.61558700  1
  H  H86  1  0.01191200  0.15408100  0.61016600  1
  H  H87  1  0.82174500  0.13946600  0.53183900  1
  H  H88  1  0.84069500  0.14140300  0.58182300  1
  H  H89  1  0.76026600  0.13495800  0.56684200  1
  H  H90  1  0.77113300  0.98596000  0.59352900  1
  H  H91  1  0.77877800  0.06182300  0.61559000  1
  H  H92  1  0.84591900  0.01190000  0.61016600  1
  H  H93  1  0.86053000  0.82174700  0.53183300  1
  H  H94  1  0.85858700  0.84069700  0.58181700  1
  H  H95  1  0.86503300  0.76026800  0.56683600  1
  H  H96  1  0.01402800  0.77113300  0.59353000  1
  H  H97  1  0.93816300  0.77877800  0.61558700  1
  H  H98  1  0.98808700  0.84591900  0.61016600  1
  H  H99  1  0.17825400  0.86053400  0.53183900  1
  H  H100  1  0.15930400  0.85859700  0.58182300  1
  H  H101  1  0.23973300  0.86504200  0.56684200  1
  H  H102  1  0.22886600  0.01404000  0.59352900  1
  H  H103  1  0.22122200  0.93817700  0.61559000  1
  H  H104  1  0.15408000  0.98810000  0.61016600  1
  H  H105  1  0.13946900  0.82174700  0.46816800  1
  H  H106  1  0.14141200  0.84069700  0.41818300  1
  H  H107  1  0.13496600  0.76026800  0.43316400  1
  H  H108  1  0.98597100  0.77113300  0.40647000  1
  H  H109  1  0.06183600  0.77877800  0.38441300  1
  H  H110  1  0.01191200  0.84591900  0.38983500  1
  H  H111  1  0.82174500  0.86053400  0.46816100  1
  H  H112  1  0.84069500  0.85859700  0.41817700  1
  H  H113  1  0.76026600  0.86504200  0.43315800  1
  H  H114  1  0.77113300  0.01404000  0.40647100  1
  H  H115  1  0.77877800  0.93817700  0.38441100  1
  H  H116  1  0.84591900  0.98810000  0.38983400  1
  H  H117  1  0.86053000  0.17825300  0.46816800  1
  H  H118  1  0.85858800  0.15930300  0.41818300  1
  H  H119  1  0.86503300  0.23973200  0.43316400  1
  H  H120  1  0.01402800  0.22886700  0.40647000  1
  H  H121  1  0.93816300  0.22122200  0.38441300  1
  H  H122  1  0.98808700  0.15408100  0.38983500  1
  H  H123  1  0.17825400  0.13946600  0.46816100  1
  H  H124  1  0.15930400  0.14140300  0.41817700  1
  H  H125  1  0.23973300  0.13495800  0.43315800  1
  H  H126  1  0.22886600  0.98596000  0.40647100  1
  H  H127  1  0.22122200  0.06182300  0.38441100  1
  H  H128  1  0.15408100  0.01190000  0.38983400  1
  H  H129  1  0.64092800  0.97956800  0.60289300  1
  H  H130  1  0.66227200  0.89997600  0.59266500  1
  H  H131  1  0.65585100  0.92604500  0.64150300  1
  H  H132  1  0.51124800  0.84001500  0.62546300  1
  H  H133  1  0.58498900  0.83920600  0.65069200  1
  H  H134  1  0.58202100  0.81863200  0.60106500  1
  H  H135  1  0.02042800  0.64092700  0.60289000  1
  H  H136  1  0.10002000  0.66227400  0.59266400  1
  H  H137  1  0.07394700  0.65585400  0.64150200  1
  H  H138  1  0.15998500  0.51125400  0.62546600  1
  H  H139  1  0.16079100  0.58499700  0.65069200  1
  H  H140  1  0.18136600  0.58202600  0.60106600  1
  H  H141  1  0.35907100  0.02043200  0.60289300  1
  H  H142  1  0.33772700  0.10002400  0.59266500  1
  H  H143  1  0.34414800  0.07395500  0.64150400  1
  H  H144  1  0.48875100  0.15998500  0.62546300  1
  H  H145  1  0.41501000  0.16079400  0.65069200  1
  H  H146  1  0.41797800  0.18136800  0.60106600  1
  H  H147  1  0.97957200  0.35907300  0.60289000  1
  H  H148  1  0.89998000  0.33772600  0.59266400  1
  H  H149  1  0.92605200  0.34414600  0.64150200  1
  H  H150  1  0.84001400  0.48874600  0.62546600  1
  H  H151  1  0.83920800  0.41500300  0.65069200  1
  H  H152  1  0.81863300  0.41797500  0.60106600  1
  H  H153  1  0.64092800  0.02043200  0.39710700  1
  H  H154  1  0.66227200  0.10002400  0.40733500  1
  H  H155  1  0.65585100  0.07395500  0.35849700  1
  H  H156  1  0.51124800  0.15998500  0.37453700  1
  H  H157  1  0.58498900  0.16079400  0.34930800  1
  H  H158  1  0.58202100  0.18136800  0.39893500  1
  H  H159  1  0.02042800  0.35907300  0.39711000  1
  H  H160  1  0.10002000  0.33772600  0.40733600  1
  H  H161  1  0.07394700  0.34414600  0.35849800  1
  H  H162  1  0.15998500  0.48874600  0.37453400  1
  H  H163  1  0.16079100  0.41500300  0.34930800  1
  H  H164  1  0.18136600  0.41797500  0.39893400  1
  H  H165  1  0.35907100  0.97956800  0.39710700  1
  H  H166  1  0.33772700  0.89997600  0.40733500  1
  H  H167  1  0.34414800  0.92604500  0.35849700  1
  H  H168  1  0.48875100  0.84001500  0.37453700  1
  H  H169  1  0.41501000  0.83920600  0.34930800  1
  H  H170  1  0.41797800  0.81863200  0.39893500  1
  H  H171  1  0.97957200  0.64092700  0.39711000  1
  H  H172  1  0.89998000  0.66227400  0.40733600  1
  H  H173  1  0.92605200  0.65585400  0.35849800  1
  H  H174  1  0.84001400  0.51125400  0.37453400  1
  H  H175  1  0.83920800  0.58499700  0.34930800  1
  H  H176  1  0.81863300  0.58202600  0.39893400  1
  H  H177  1  0.14092700  0.47957100  0.10289100  1
  H  H178  1  0.16227300  0.39997900  0.09266400  1
  H  H179  1  0.15585300  0.42605000  0.14150200  1
  H  H180  1  0.01125100  0.34001400  0.12546500  1
  H  H181  1  0.08499400  0.33920800  0.15069200  1
  H  H182  1  0.08202400  0.31863300  0.10106600  1
  H  H183  1  0.52043000  0.14092800  0.10289200  1
  H  H184  1  0.60002200  0.16227300  0.09266400  1
  H  H185  1  0.57395200  0.15585200  0.14150300  1
  H  H186  1  0.65998500  0.01125000  0.12546400  1
  H  H187  1  0.66079300  0.08499300  0.15069200  1
  H  H188  1  0.68136700  0.08202300  0.10106600  1
  H  H189  1  0.85907200  0.52042900  0.10289100  1
  H  H190  1  0.83772600  0.60002100  0.09266400  1
  H  H191  1  0.84414700  0.57395000  0.14150200  1
  H  H192  1  0.98874800  0.65998600  0.12546500  1
  H  H193  1  0.91500500  0.66079200  0.15069200  1
  H  H194  1  0.91797600  0.68136700  0.10106600  1
  H  H195  1  0.47956900  0.85907200  0.10289200  1
  H  H196  1  0.39997700  0.83772700  0.09266400  1
  H  H197  1  0.42604800  0.84414700  0.14150300  1
  H  H198  1  0.34001400  0.98875000  0.12546400  1
  H  H199  1  0.33920700  0.91500700  0.15069200  1
  H  H200  1  0.31863300  0.91797700  0.10106600  1
  H  H201  1  0.14092700  0.52042900  0.89710900  1
  H  H202  1  0.16227300  0.60002100  0.90733600  1
  H  H203  1  0.15585300  0.57395000  0.85849800  1
  H  H204  1  0.01125100  0.65998600  0.87453500  1
  H  H205  1  0.08499400  0.66079200  0.84930800  1
  H  H206  1  0.08202400  0.68136700  0.89893400  1
  H  H207  1  0.52043000  0.85907200  0.89710800  1
  H  H208  1  0.60002200  0.83772700  0.90733600  1
  H  H209  1  0.57395200  0.84414700  0.85849700  1
  H  H210  1  0.65998500  0.98875000  0.87453600  1
  H  H211  1  0.66079300  0.91500700  0.84930800  1
  H  H212  1  0.68136700  0.91797700  0.89893400  1
  H  H213  1  0.85907200  0.47957100  0.89710900  1
  H  H214  1  0.83772600  0.39997900  0.90733600  1
  H  H215  1  0.84414700  0.42605000  0.85849800  1
  H  H216  1  0.98874800  0.34001400  0.87453500  1
  H  H217  1  0.91500500  0.33920800  0.84930800  1
  H  H218  1  0.91797600  0.31863300  0.89893400  1
  H  H219  1  0.47956900  0.14092800  0.89710800  1
  H  H220  1  0.39997700  0.16227300  0.90733600  1
  H  H221  1  0.42604800  0.15585300  0.85849700  1
  H  H222  1  0.34001400  0.01125000  0.87453600  1
  H  H223  1  0.33920700  0.08499300  0.84930800  1
  H  H224  1  0.31863300  0.08202300  0.89893400  1
  C  C1  1  0.50000000  0.88214800  0.00000000  1
  C  C2  1  0.11785200  0.50000000  0.00000000  1
  C  C3  1  0.50000000  0.11785200  0.00000000  1
  C  C4  1  0.88214800  0.50000000  0.00000000  1
  C  C5  1  0.00000000  0.38214800  0.50000000  1
  C  C6  1  0.61785200  0.00000000  0.50000000  1
  C  C7  1  0.00000000  0.61785200  0.50000000  1
  C  C8  1  0.38214700  0.00000000  0.50000000  1
  C  C9  1  0.52732700  0.78254800  0.02955800  1
  C  C10  1  0.21745100  0.52732900  0.02955700  1
  C  C11  1  0.47267200  0.21745100  0.02955800  1
  C  C12  1  0.78254800  0.47267100  0.02955700  1
  C  C13  1  0.52732800  0.21745100  0.97044300  1
  C  C14  1  0.21745100  0.47267100  0.97044300  1
  C  C15  1  0.47267200  0.78254800  0.97044200  1
  C  C16  1  0.78254800  0.52732900  0.97044300  1
  C  C17  1  0.02733000  0.28254800  0.52955700  1
  C  C18  1  0.71745100  0.02732600  0.52955800  1
  C  C19  1  0.97266900  0.71745200  0.52955700  1
  C  C20  1  0.28254800  0.97267400  0.52955800  1
  C  C21  1  0.02733000  0.71745200  0.47044300  1
  C  C22  1  0.71745100  0.97267400  0.47044200  1
  C  C23  1  0.97266900  0.28254800  0.47044300  1
  C  C24  1  0.28254800  0.02732600  0.47044200  1
  C  C25  1  0.50000000  0.00000000  0.92776200  1
  C  C26  1  0.00000000  0.50000000  0.92776200  1
  C  C27  1  0.50000000  0.00000000  0.07223800  1
  C  C28  1  0.00000000  0.50000000  0.07223800  1
  C  C29  1  0.00000000  0.50000000  0.42776200  1
  C  C30  1  0.50000000  0.00000000  0.42776200  1
  C  C31  1  0.00000000  0.50000000  0.57223800  1
  C  C32  1  0.50000000  0.00000000  0.57223800  1
  C  C33  1  0.50000000  0.68607200  0.00000000  1
  C  C34  1  0.31392800  0.50000000  0.00000000  1
  C  C35  1  0.50000000  0.31392800  0.00000000  1
  C  C36  1  0.68607200  0.50000000  0.00000000  1
  C  C37  1  0.00000000  0.18607200  0.50000000  1
  C  C38  1  0.81392700  0.00000000  0.50000000  1
  C  C39  1  0.00000000  0.81392800  0.50000000  1
  C  C40  1  0.18607200  0.00000000  0.50000000  1
  C  C41  1  0.50000000  0.81442600  0.00000000  1
  C  C42  1  0.18557300  0.50000000  0.00000000  1
  C  C43  1  0.50000000  0.18557400  0.00000000  1
  C  C44  1  0.81442600  0.50000000  0.00000000  1
  C  C45  1  0.00000000  0.31442600  0.50000000  1
  C  C46  1  0.68557300  0.00000000  0.50000000  1
  C  C47  1  0.00000000  0.68557400  0.50000000  1
  C  C48  1  0.31442600  0.00000000  0.50000000  1
  C  C49  1  0.53481200  0.95658700  0.67257600  1
  C  C50  1  0.04341200  0.53481300  0.67257600  1
  C  C51  1  0.46518700  0.04341300  0.67257600  1
  C  C52  1  0.95658700  0.46518700  0.67257600  1
  C  C53  1  0.53481200  0.04341300  0.32742400  1
  C  C54  1  0.04341200  0.46518700  0.32742400  1
  C  C55  1  0.46518700  0.95658700  0.32742400  1
  C  C56  1  0.95658700  0.53481300  0.32742400  1
  C  C57  1  0.03481200  0.45658700  0.17257600  1
  C  C58  1  0.54341300  0.03481300  0.17257600  1
  C  C59  1  0.96518700  0.54341300  0.17257600  1
  C  C60  1  0.45658700  0.96518700  0.17257600  1
  C  C61  1  0.03481200  0.54341300  0.82742400  1
  C  C62  1  0.54341300  0.96518700  0.82742400  1
  C  C63  1  0.96518700  0.45658700  0.82742400  1
  C  C64  1  0.45658700  0.03481300  0.82742400  1
  C  C65  1  0.53434500  0.95596600  0.63322600  1
  C  C66  1  0.04403300  0.53434700  0.63322600  1
  C  C67  1  0.46565400  0.04403400  0.63322600  1
  C  C68  1  0.95596700  0.46565300  0.63322600  1
  C  C69  1  0.53434500  0.04403400  0.36677400  1
  C  C70  1  0.04403300  0.46565300  0.36677400  1
  C  C71  1  0.46565400  0.95596600  0.36677400  1
  C  C72  1  0.95596700  0.53434700  0.36677400  1
  C  C73  1  0.03434600  0.45596700  0.13322600  1
  C  C74  1  0.54403300  0.03434600  0.13322600  1
  C  C75  1  0.96565300  0.54403300  0.13322600  1
  C  C76  1  0.45596600  0.96565400  0.13322600  1
  C  C77  1  0.03434600  0.54403300  0.86677400  1
  C  C78  1  0.54403300  0.96565400  0.86677400  1
  C  C79  1  0.96565300  0.45596700  0.86677400  1
  C  C80  1  0.45596600  0.03434600  0.86677400  1
  C  C81  1  0.50000000  0.00000000  0.61375100  1
  C  C82  1  0.00000000  0.50000000  0.61375100  1
  C  C83  1  0.50000000  0.00000000  0.38624900  1
  C  C84  1  0.00000000  0.50000000  0.38624900  1
  C  C85  1  0.00000000  0.50000000  0.11375100  1
  C  C86  1  0.50000000  0.00000000  0.11375100  1
  C  C87  1  0.00000000  0.50000000  0.88624900  1
  C  C88  1  0.50000000  0.00000000  0.88624900  1
  C  C89  1  0.50000000  0.00000000  0.69206100  1
  C  C90  1  0.00000000  0.50000000  0.69206100  1
  C  C91  1  0.50000000  0.00000000  0.30793900  1
  C  C92  1  0.00000000  0.50000000  0.30793900  1
  C  C93  1  0.00000000  0.50000000  0.19206100  1
  C  C94  1  0.50000000  0.00000000  0.19206100  1
  C  C95  1  0.00000000  0.50000000  0.80793900  1
  C  C96  1  0.50000000  0.00000000  0.80793900  1
  C  C97  1  0.50000000  0.00000000  0.73286300  1
  C  C98  1  0.00000000  0.50000000  0.73286300  1
  C  C99  1  0.50000000  0.00000000  0.26713700  1
  C  C100  1  0.00000000  0.50000000  0.26713700  1
  C  C101  1  0.00000000  0.50000000  0.23286300  1
  C  C102  1  0.50000000  0.00000000  0.23286300  1
  C  C103  1  0.00000000  0.50000000  0.76713700  1
  C  C104  1  0.50000000  0.00000000  0.76713700  1
  C  C105  1  0.52604200  0.71820000  0.03018200  1
  C  C106  1  0.28180000  0.52604300  0.03018200  1
  C  C107  1  0.47395700  0.28180000  0.03018200  1
  C  C108  1  0.71820000  0.47395700  0.03018200  1
  C  C109  1  0.52604200  0.28180000  0.96981800  1
  C  C110  1  0.28180000  0.47395700  0.96981800  1
  C  C111  1  0.47395700  0.71820000  0.96981800  1
  C  C112  1  0.71820000  0.52604300  0.96981800  1
  C  C113  1  0.02604400  0.21820000  0.53018100  1
  C  C114  1  0.78179900  0.02604100  0.53018200  1
  C  C115  1  0.97395500  0.78180000  0.53018100  1
  C  C116  1  0.21820000  0.97395900  0.53018200  1
  C  C117  1  0.02604400  0.78180000  0.46981900  1
  C  C118  1  0.78179900  0.97395900  0.46981800  1
  C  C119  1  0.97395500  0.21820000  0.46981900  1
  C  C120  1  0.21820000  0.02604100  0.46981800  1
  C  C121  1  0.38200200  0.50000000  0.00000000  1
  C  C122  1  0.50000000  0.38200200  0.00000000  1
  C  C123  1  0.61799700  0.50000000  0.00000000  1
  C  C124  1  0.50000000  0.61799800  0.00000000  1
  C  C125  1  0.88200200  0.00000000  0.50000000  1
  C  C126  1  0.00000000  0.88200200  0.50000000  1
  C  C127  1  0.11799700  0.00000000  0.50000000  1
  C  C128  1  0.00000000  0.11799800  0.50000000  1
  C  C129  1  0.62116000  0.69115000  0.06026000  1
  C  C130  1  0.52721900  0.69830100  0.09682200  1
  C  C131  1  0.30885000  0.62116200  0.06025800  1
  C  C132  1  0.30169900  0.52722300  0.09682200  1
  C  C133  1  0.37883900  0.30885000  0.06026000  1
  C  C134  1  0.47278000  0.30169900  0.09682200  1
  C  C135  1  0.69114900  0.37883800  0.06025800  1
  C  C136  1  0.69830100  0.47277800  0.09682200  1
  C  C137  1  0.62116000  0.30885000  0.93974000  1
  C  C138  1  0.52722000  0.30169900  0.90317800  1
  C  C139  1  0.30885000  0.37883800  0.93974200  1
  C  C140  1  0.30169900  0.47277700  0.90317800  1
  C  C141  1  0.37883900  0.69115000  0.93974000  1
  C  C142  1  0.47278000  0.69830100  0.90317800  1
  C  C143  1  0.69114900  0.62116200  0.93974200  1
  C  C144  1  0.69830100  0.52722200  0.90317800  1
  C  C145  1  0.12116400  0.19114900  0.56025600  1
  C  C146  1  0.02722600  0.19830100  0.59682200  1
  C  C147  1  0.80884900  0.12115800  0.56026200  1
  C  C148  1  0.80169900  0.02721500  0.59682300  1
  C  C149  1  0.87883500  0.80885100  0.56025600  1
  C  C150  1  0.97277300  0.80169900  0.59682200  1
  C  C151  1  0.19115000  0.87884200  0.56026200  1
  C  C152  1  0.19830100  0.97278500  0.59682300  1
  C  C153  1  0.12116400  0.80885100  0.43974400  1
  C  C154  1  0.02722600  0.80169900  0.40317800  1
  C  C155  1  0.80884900  0.87884200  0.43973800  1
  C  C156  1  0.80169900  0.97278500  0.40317700  1
  C  C157  1  0.87883500  0.19114900  0.43974400  1
  C  C158  1  0.97277300  0.19830100  0.40317800  1
  C  C159  1  0.19115000  0.12115800  0.43973800  1
  C  C160  1  0.19830100  0.02721500  0.40317700  1
  C  C161  1  0.63619300  0.93060000  0.61245900  1
  C  C162  1  0.56189400  0.84946300  0.62319400  1
  C  C163  1  0.06939500  0.63619500  0.61245800  1
  C  C164  1  0.15053500  0.56189900  0.62319500  1
  C  C165  1  0.36380600  0.06940000  0.61245900  1
  C  C166  1  0.43810500  0.15053700  0.62319400  1
  C  C167  1  0.93060400  0.36380500  0.61245800  1
  C  C168  1  0.84946400  0.43810100  0.62319500  1
  C  C169  1  0.63619300  0.06940000  0.38754100  1
  C  C170  1  0.56189400  0.15053700  0.37680600  1
  C  C171  1  0.06939500  0.36380500  0.38754200  1
  C  C172  1  0.15053500  0.43810100  0.37680500  1
  C  C173  1  0.36380600  0.93060000  0.38754100  1
  C  C174  1  0.43810500  0.84946300  0.37680600  1
  C  C175  1  0.93060400  0.63619500  0.38754200  1
  C  C176  1  0.84946400  0.56189900  0.37680500  1
  C  C177  1  0.13619400  0.43060300  0.11245800  1
  C  C178  1  0.06189700  0.34946400  0.12319500  1
  C  C179  1  0.56939800  0.13619400  0.11245900  1
  C  C180  1  0.65053600  0.06189600  0.12319500  1
  C  C181  1  0.86380500  0.56939700  0.11245800  1
  C  C182  1  0.93810300  0.65053600  0.12319500  1
  C  C183  1  0.43060100  0.86380600  0.11245900  1
  C  C184  1  0.34946400  0.93810400  0.12319500  1
  C  C185  1  0.13619400  0.56939700  0.88754200  1
  C  C186  1  0.06189700  0.65053600  0.87680500  1
  C  C187  1  0.56939800  0.86380600  0.88754100  1
  C  C188  1  0.65053600  0.93810400  0.87680500  1
  C  C189  1  0.86380500  0.43060300  0.88754200  1
  C  C190  1  0.93810300  0.34946400  0.87680500  1
  C  C191  1  0.43060100  0.13619400  0.88754100  1
  C  C192  1  0.34946400  0.06189600  0.87680500  1
  N  N1  1  0.55441400  0.68492100  0.06023800  1
  N  N2  1  0.31507800  0.55441600  0.06023700  1
  N  N3  1  0.44558500  0.31507900  0.06023800  1
  N  N4  1  0.68492100  0.44558400  0.06023700  1
  N  N5  1  0.55441400  0.31507900  0.93976200  1
  N  N6  1  0.31507800  0.44558400  0.93976300  1
  N  N7  1  0.44558500  0.68492100  0.93976200  1
  N  N8  1  0.68492100  0.55441600  0.93976300  1
  N  N9  1  0.05441800  0.18492100  0.56023600  1
  N  N10  1  0.81507800  0.05441200  0.56023900  1
  N  N11  1  0.94558100  0.81507900  0.56023600  1
  N  N12  1  0.18492100  0.94558800  0.56023900  1
  N  N13  1  0.05441800  0.81507900  0.43976400  1
  N  N14  1  0.81507800  0.94558800  0.43976100  1
  N  N15  1  0.94558100  0.18492100  0.43976400  1
  N  N16  1  0.18492100  0.05441200  0.43976100  1
  N  N17  1  0.57141000  0.91347200  0.61246600  1
  N  N18  1  0.08652600  0.57141200  0.61246600  1
  N  N19  1  0.42858900  0.08652800  0.61246600  1
  N  N20  1  0.91347300  0.42858800  0.61246600  1
  N  N21  1  0.57141000  0.08652800  0.38753400  1
  N  N22  1  0.08652600  0.42858800  0.38753400  1
  N  N23  1  0.42858900  0.91347200  0.38753400  1
  N  N24  1  0.91347300  0.57141200  0.38753400  1
  N  N25  1  0.07141200  0.41347300  0.11246600  1
  N  N26  1  0.58652700  0.07141100  0.11246600  1
  N  N27  1  0.92858800  0.58652700  0.11246600  1
  N  N28  1  0.41347300  0.92858900  0.11246600  1
  N  N29  1  0.07141200  0.58652700  0.88753400  1
  N  N30  1  0.58652700  0.92858900  0.88753400  1
  N  N31  1  0.92858800  0.41347300  0.88753400  1
  N  N32  1  0.41347300  0.07141100  0.88753400  1
  O  O1  1  0.44840200  0.91111900  0.01004700  1
  O  O2  1  0.08888100  0.44840200  0.01004700  1
  O  O3  1  0.55159700  0.08888100  0.01004700  1
  O  O4  1  0.91111900  0.55159800  0.01004700  1
  O  O5  1  0.44840200  0.08888100  0.98995300  1
  O  O6  1  0.08888100  0.55159800  0.98995300  1
  O  O7  1  0.55159700  0.91111900  0.98995300  1
  O  O8  1  0.91111900  0.44840200  0.98995300  1
  O  O9  1  0.94840200  0.41111900  0.51004700  1
  O  O10  1  0.58888000  0.94840200  0.51004700  1
  O  O11  1  0.05159700  0.58888100  0.51004700  1
  O  O12  1  0.41111900  0.05159800  0.51004700  1
  O  O13  1  0.94840200  0.58888100  0.48995300  1
  O  O14  1  0.58888000  0.05159800  0.48995300  1
  O  O15  1  0.05159700  0.41111900  0.48995300  1
  O  O16  1  0.41111900  0.94840200  0.48995300  1
  O  O17  1  0.44843500  0.98346300  0.94552800  1
  O  O18  1  0.01653600  0.44843500  0.94552800  1
  O  O19  1  0.55156400  0.01653700  0.94552800  1
  O  O20  1  0.98346300  0.55156500  0.94552800  1
  O  O21  1  0.44843500  0.01653600  0.05447200  1
  O  O22  1  0.01653600  0.55156500  0.05447200  1
  O  O23  1  0.55156400  0.98346300  0.05447200  1
  O  O24  1  0.98346300  0.44843500  0.05447200  1
  O  O25  1  0.94843500  0.48346400  0.44552800  1
  O  O26  1  0.51653600  0.94843500  0.44552800  1
  O  O27  1  0.05156400  0.51653600  0.44552800  1
  O  O28  1  0.48346300  0.05156500  0.44552800  1
  O  O29  1  0.94843500  0.51653600  0.55447200  1
  O  O30  1  0.51653600  0.05156500  0.55447200  1
  O  O31  1  0.05156400  0.48346400  0.55447200  1
  O  O32  1  0.48346300  0.94843500  0.55447200  1
  O  O33  1  0.41118300  0.48280400  0.03135700  1
  O  O34  1  0.51719600  0.41118400  0.03135700  1
  O  O35  1  0.58881600  0.51719600  0.03135700  1
  O  O36  1  0.48280300  0.58881600  0.03135700  1
  O  O37  1  0.41118300  0.51719600  0.96864300  1
  O  O38  1  0.51719600  0.58881600  0.96864300  1
  O  O39  1  0.58881600  0.48280400  0.96864300  1
  O  O40  1  0.48280300  0.41118400  0.96864300  1
  O  O41  1  0.91118300  0.98280400  0.53135700  1
  O  O42  1  0.01719600  0.91118400  0.53135700  1
  O  O43  1  0.08881600  0.01719600  0.53135700  1
  O  O44  1  0.98280300  0.08881600  0.53135700  1
  O  O45  1  0.91118300  0.01719600  0.46864300  1
  O  O46  1  0.01719600  0.08881600  0.46864300  1
  O  O47  1  0.08881600  0.98280400  0.46864300  1
  O  O48  1  0.98280300  0.91118400  0.46864300  1
