data_DB0-m29_o92_o550_f0_pts.sym.9_repeat
_audit_creation_date              2024-02-23
_audit_creation_method            'Materials Studio'
_symmetry_space_group_name_H-M    'P1'
_symmetry_Int_Tables_number       1
_symmetry_cell_setting            triclinic
loop_
_symmetry_equiv_pos_as_xyz
  x,y,z
_cell_length_a                    16.2957
_cell_length_b                    22.4690
_cell_length_c                    12.9800
_cell_angle_alpha                 116.5562
_cell_angle_beta                  91.7126
_cell_angle_gamma                 77.5534
loop_
_atom_site_label
_atom_site_type_symbol
_atom_site_fract_x
_atom_site_fract_y
_atom_site_fract_z
_atom_site_U_iso_or_equiv
_atom_site_adp_type
_atom_site_occupancy
H1     H     0.20528   0.33101   0.35857   0.00000  Uiso   1.00
C1     C     0.24373   0.98078   0.14531   0.00000  Uiso   1.00
C2     C     0.20544   0.92704   0.11590   0.00000  Uiso   1.00
C3     C     0.11937   0.93883   0.12993   0.00000  Uiso   1.00
C4     C     0.07113   0.00443   0.17353   0.00000  Uiso   1.00
C5     C     0.10888   0.05934   0.20361   0.00000  Uiso   1.00
C6     C     0.19581   0.04740   0.18915   0.00000  Uiso   1.00
C7     C     0.06045   0.12579   0.24802   0.00000  Uiso   1.00
C8     C     0.09890   0.18020   0.27731   0.00000  Uiso   1.00
C9     C     0.18582   0.16825   0.26276   0.00000  Uiso   1.00
C10    C     0.23426   0.10182   0.21853   0.00000  Uiso   1.00
C11    C     0.05099   0.24683   0.32112   0.00000  Uiso   1.00
C12    C     0.08928   0.30055   0.35015   0.00000  Uiso   1.00
C13    C     0.17534   0.28873   0.33591   0.00000  Uiso   1.00
C14    C     0.22356   0.22315   0.29256   0.00000  Uiso   1.00
H2     H     0.31154   0.96846   0.13199   0.00000  Uiso   1.00
H3     H     0.24321   0.87544   0.08167   0.00000  Uiso   1.00
H4     H     0.08943   0.89651   0.10695   0.00000  Uiso   1.00
H5     H     0.00386   0.01070   0.18355   0.00000  Uiso   1.00
H6     H     0.98319   0.25919   0.33468   0.00000  Uiso   1.00
H7     H     0.05153   0.35215   0.38427   0.00000  Uiso   1.00
H8     H     0.29083   0.21687   0.28244   0.00000  Uiso   1.00
C15    C     0.37158   0.07862   0.11415   0.00000  Uiso   1.00
H9     H     0.33845   0.08006   0.04162   0.00000  Uiso   1.00
C16    C     0.45847   0.06912   0.11227   0.00000  Uiso   1.00
C17    C     0.49898   0.06773   0.20642   0.00000  Uiso   1.00
H10    H     0.56621   0.06322   0.20881   0.00000  Uiso   1.00
C18    C     0.45360   0.08307   0.30600   0.00000  Uiso   1.00
C19    C     0.36719   0.09440   0.30931   0.00000  Uiso   1.00
H11    H     0.33110   0.10837   0.38850   0.00000  Uiso   1.00
C20    C     0.32631   0.08960   0.21224   0.00000  Uiso   1.00
C21    C     0.92740   0.13398   0.15781   0.00000  Uiso   1.00
H12    H     0.96340   0.12016   0.07864   0.00000  Uiso   1.00
C22    C     0.84096   0.14584   0.16148   0.00000  Uiso   1.00
C23    C     0.79562   0.16110   0.26107   0.00000  Uiso   1.00
H13    H     0.72830   0.16610   0.25905   0.00000  Uiso   1.00
C24    C     0.83621   0.15894   0.35467   0.00000  Uiso   1.00
C25    C     0.92317   0.14885   0.35240   0.00000  Uiso   1.00
H14    H     0.95633   0.14693   0.42461   0.00000  Uiso   1.00
C26    C     0.96840   0.13809   0.25446   0.00000  Uiso   1.00
O1     O     0.70502   0.16213   0.43473   0.00000  Uiso   1.00
C27    C     0.78649   0.15647   0.44451   0.00000  Uiso   1.00
O2     O     0.76453   0.00256   0.39865   0.00000  Uiso   1.00
O3     O     0.82365   0.13623   0.51809   0.00000  Uiso   1.00
O4     O     0.70536   0.06582   0.58181   0.00000  Uiso   1.00
C28    C     0.75795   0.01148   0.50538   0.00000  Uiso   1.00
Fe1    Fe    0.64516   0.12776   0.51966   0.00000  Uiso   1.00
O5     O     0.57468   0.06900   0.40706   0.00000  Uiso   1.00
O6     O     0.46950   0.16401   0.49594   0.00000  Uiso   1.00
C29    C     0.49692   0.10249   0.41189   0.00000  Uiso   1.00
O7     O     0.58957   0.21539   0.65539   0.00000  Uiso   1.00
O8     O     0.52930   0.14279   0.68845   0.00000  Uiso   1.00
C30    C     0.54081   0.20458   0.72092   0.00000  Uiso   1.00
O9     O     0.70451   0.01400   0.81275   0.00000  Uiso   1.00
O10    O     0.76545   0.08600   0.77867   0.00000  Uiso   1.00
C31    C     0.75318   0.02445   0.74663   0.00000  Uiso   1.00
O11    O     0.71983   0.16050   0.06081   0.00000  Uiso   1.00
O12    O     0.82488   0.06548   0.97125   0.00000  Uiso   1.00
C32    C     0.79756   0.12687   0.05570   0.00000  Uiso   1.00
O13    O     0.47105   0.08991   0.94667   0.00000  Uiso   1.00
O14    O     0.58900   0.16366   0.88612   0.00000  Uiso   1.00
C33    C     0.53318   0.21603   0.96091   0.00000  Uiso   1.00
O15    O     0.58929   0.06759   0.03380   0.00000  Uiso   1.00
C34    C     0.50818   0.07149   0.02230   0.00000  Uiso   1.00
O16    O     0.52437   0.22366   0.06658   0.00000  Uiso   1.00
Fe2    Fe    0.64911   0.10179   0.94844   0.00000  Uiso   1.00
C35    C     0.25327   0.43044   0.85755   0.00000  Uiso   1.00
O17    O     0.21694   0.39116   0.88651   0.00000  Uiso   1.00
N1     N     0.33781   0.42156   0.85408   0.00000  Uiso   1.00
C36    C     0.37526   0.45923   0.82189   0.00000  Uiso   1.00
C37    C     0.44306   0.31521   0.79653   0.00000  Uiso   1.00
C38    C     0.48864   0.26306   0.81828   0.00000  Uiso   1.00
C39    C     0.42718   0.32341   0.01292   0.00000  Uiso   1.00
C40    C     0.37997   0.37397   0.98885   0.00000  Uiso   1.00
C41    C     0.38800   0.37028   0.88061   0.00000  Uiso   1.00
C42    C     0.24094   0.51748   0.79561   0.00000  Uiso   1.00
C43    C     0.20401   0.47844   0.82858   0.00000  Uiso   1.00
C44    C     0.11803   0.48617   0.82928   0.00000  Uiso   1.00
C45    C     0.32736   0.50746   0.79221   0.00000  Uiso   1.00
C46    C     0.48200   0.26728   0.92860   0.00000  Uiso   1.00
H15    H     0.42029   0.32864   0.09928   0.00000  Uiso   1.00
H16    H     0.33730   0.41698   0.05589   0.00000  Uiso   1.00
H17    H     0.08728   0.45458   0.85053   0.00000  Uiso   1.00
C47    C     0.80850   0.95984   0.53746   0.00000  Uiso   1.00
C48    C     0.05574   0.62935   0.75313   0.00000  Uiso   1.00
C49    C     0.18129   0.64796   0.69167   0.00000  Uiso   1.00
C50    C     0.09381   0.66259   0.70754   0.00000  Uiso   1.00
C51    C     0.96938   0.65114   0.78159   0.00000  Uiso   1.00
C52    C     0.91921   0.70093   0.75701   0.00000  Uiso   1.00
C53    C     0.95687   0.72822   0.69716   0.00000  Uiso   1.00
C54    C     0.04420   0.71052   0.67739   0.00000  Uiso   1.00
C55    C     0.08220   0.74152   0.62724   0.00000  Uiso   1.00
C56    C     0.03453   0.78951   0.59766   0.00000  Uiso   1.00
N2     N     0.95005   0.80482   0.61320   0.00000  Uiso   1.00
C57    C     0.91056   0.77412   0.65873   0.00000  Uiso   1.00
C58    C     0.84990   0.91371   0.67135   0.00000  Uiso   1.00
C59    C     0.80437   0.96558   0.64900   0.00000  Uiso   1.00
C60    C     0.85992   0.90175   0.45190   0.00000  Uiso   1.00
C61    C     0.90608   0.85074   0.47591   0.00000  Uiso   1.00
C62    C     0.90132   0.85646   0.58603   0.00000  Uiso   1.00
O18    O     0.82609   0.78671   0.66117   0.00000  Uiso   1.00
C63    C     0.10488   0.57692   0.77421   0.00000  Uiso   1.00
C64    C     0.19205   0.56582   0.76603   0.00000  Uiso   1.00
C65    C     0.23066   0.60260   0.72829   0.00000  Uiso   1.00
C66    C     0.06913   0.53424   0.80177   0.00000  Uiso   1.00
H18    H     0.84728   0.91925   0.75839   0.00000  Uiso   1.00
H19    H     0.94098   0.63130   0.82870   0.00000  Uiso   1.00
H20    H     0.00306   0.53437   0.79872   0.00000  Uiso   1.00
O19    O     0.45953   0.45039   0.82013   0.00000  Uiso   1.00
C67    C     0.36551   0.54617   0.76013   0.00000  Uiso   1.00
H21    H     0.44766   0.31122   0.71066   0.00000  Uiso   1.00
H22    H     0.43305   0.54062   0.75892   0.00000  Uiso   1.00
C68    C     0.21737   0.67891   0.63855   0.00000  Uiso   1.00
C69    C     0.16841   0.72502   0.60727   0.00000  Uiso   1.00
O20    O     0.07261   0.82225   0.55536   0.00000  Uiso   1.00
C70    C     0.31812   0.59306   0.72867   0.00000  Uiso   1.00
H23    H     0.28375   0.66742   0.61579   0.00000  Uiso   1.00
H24    H     0.86443   0.89508   0.36435   0.00000  Uiso   1.00
H25    H     0.19956   0.74755   0.56616   0.00000  Uiso   1.00
H26    H     0.94521   0.80588   0.40736   0.00000  Uiso   1.00
H27    H     0.35302   0.62247   0.70847   0.00000  Uiso   1.00
C71    C     0.82642   0.72668   0.79903   0.00000  Uiso   1.00
C72    C     0.79756   0.70519   0.88512   0.00000  Uiso   1.00
H28    H     0.79927   0.64969   0.84275   0.00000  Uiso   1.00
H29    H     0.83643   0.71925   0.96050   0.00000  Uiso   1.00
H30    H     0.73132   0.73291   0.91677   0.00000  Uiso   1.00
H31    H     0.81200   0.78331   0.84445   0.00000  Uiso   1.00
H32    H     0.78768   0.70882   0.72406   0.00000  Uiso   1.00
