data_DB0-m29_o96_o102_f0_pts.sym.31_repeat
_audit_creation_date              2024-02-24
_audit_creation_method            'Materials Studio'
_symmetry_space_group_name_H-M    'P1'
_symmetry_Int_Tables_number       1
_symmetry_cell_setting            triclinic
loop_
_symmetry_equiv_pos_as_xyz
  x,y,z
_cell_length_a                    17.2862
_cell_length_b                    14.2755
_cell_length_c                    17.0786
_cell_angle_alpha                 91.0384
_cell_angle_beta                  91.0209
_cell_angle_gamma                 109.5506
loop_
_atom_site_label
_atom_site_type_symbol
_atom_site_fract_x
_atom_site_fract_y
_atom_site_fract_z
_atom_site_U_iso_or_equiv
_atom_site_adp_type
_atom_site_occupancy
C1     C     0.21143   0.99378   0.11942   0.00000  Uiso   1.00
C2     C     0.15494   0.95466   0.17460   0.00000  Uiso   1.00
C3     C     0.08015   0.95377   0.14473   0.00000  Uiso   1.00
N1     N     0.08861   0.98797   0.07112   0.00000  Uiso   1.00
C4     C     0.16919   0.01188   0.05537   0.00000  Uiso   1.00
C5     C     0.01096   0.92985   0.18459   0.00000  Uiso   1.00
C6     C     0.93593   0.94549   0.15544   0.00000  Uiso   1.00
C7     C     0.88170   0.97054   0.20247   0.00000  Uiso   1.00
C8     C     0.81879   0.97536   0.15615   0.00000  Uiso   1.00
C9     C     0.83607   0.95393   0.08024   0.00000  Uiso   1.00
N2     N     0.90776   0.93501   0.08044   0.00000  Uiso   1.00
C10    C     0.78540   0.95472   0.01031   0.00000  Uiso   1.00
C11    C     0.81701   0.98323   0.94022   0.00000  Uiso   1.00
C12    C     0.77451   0.00468   0.87791   0.00000  Uiso   1.00
C13    C     0.83057   0.04752   0.82282   0.00000  Uiso   1.00
C14    C     0.90592   0.04417   0.85034   0.00000  Uiso   1.00
N3     N     0.89714   0.00570   0.92280   0.00000  Uiso   1.00
C15    C     0.97673   0.06871   0.81149   0.00000  Uiso   1.00
C16    C     0.04798   0.04327   0.84091   0.00000  Uiso   1.00
C17    C     0.09913   0.00899   0.79544   0.00000  Uiso   1.00
C18    C     0.16272   0.00688   0.84233   0.00000  Uiso   1.00
C19    C     0.14870   0.03704   0.91634   0.00000  Uiso   1.00
N4     N     0.07871   0.05987   0.91511   0.00000  Uiso   1.00
C20    C     0.20093   0.04017   0.98570   0.00000  Uiso   1.00
H1     H     0.01222   0.90875   0.24494   0.00000  Uiso   1.00
H2     H     0.72158   0.94572   0.01934   0.00000  Uiso   1.00
H3     H     0.26515   0.05096   0.97704   0.00000  Uiso   1.00
H4     H     0.93416   0.91161   0.03288   0.00000  Uiso   1.00
H5     H     0.05552   0.09046   0.96118   0.00000  Uiso   1.00
C21    C     0.09336   0.97818   0.71816   0.00000  Uiso   1.00
C22    C     0.15681   0.95126   0.68809   0.00000  Uiso   1.00
C23    C     0.22453   0.95422   0.73483   0.00000  Uiso   1.00
C24    C     0.22671   0.97973   0.81398   0.00000  Uiso   1.00
C25    C     0.29367   0.00913   0.13276   0.00000  Uiso   1.00
C26    C     0.31650   0.97961   0.20384   0.00000  Uiso   1.00
C27    C     0.25766   0.93552   0.25877   0.00000  Uiso   1.00
C28    C     0.17612   0.92418   0.24511   0.00000  Uiso   1.00
C29    C     0.88613   0.99240   0.28113   0.00000  Uiso   1.00
C30    C     0.82284   0.01717   0.31391   0.00000  Uiso   1.00
C31    C     0.75519   0.01850   0.26761   0.00000  Uiso   1.00
C32    C     0.75407   0.99900   0.18706   0.00000  Uiso   1.00
C33    C     0.69151   0.98665   0.86592   0.00000  Uiso   1.00
C34    C     0.66642   0.01727   0.79644   0.00000  Uiso   1.00
C35    C     0.72424   0.06847   0.74320   0.00000  Uiso   1.00
C36    C     0.80648   0.08301   0.75529   0.00000  Uiso   1.00
H6     H     0.04155   0.97469   0.68081   0.00000  Uiso   1.00
H7     H     0.27839   0.98212   0.85141   0.00000  Uiso   1.00
H8     H     0.33925   0.04331   0.09007   0.00000  Uiso   1.00
H9     H     0.27569   0.91370   0.31457   0.00000  Uiso   1.00
H10    H     0.13144   0.89197   0.28903   0.00000  Uiso   1.00
H11    H     0.93784   0.99125   0.31709   0.00000  Uiso   1.00
H12    H     0.70325   0.00034   0.14991   0.00000  Uiso   1.00
H13    H     0.64682   0.94740   0.90777   0.00000  Uiso   1.00
H14    H     0.70534   0.09309   0.68893   0.00000  Uiso   1.00
H15    H     0.84812   0.12152   0.71125   0.00000  Uiso   1.00
H16    H     0.15356   0.93010   0.62675   0.00000  Uiso   1.00
O1     O     0.61676   0.02657   0.26231   0.00000  Uiso   1.00
C37    C     0.68280   0.03258   0.30428   0.00000  Uiso   1.00
O2     O     0.54167   0.82828   0.32625   0.00000  Uiso   1.00
O3     O     0.67818   0.03549   0.38080   0.00000  Uiso   1.00
O4     O     0.51062   0.91516   0.42472   0.00000  Uiso   1.00
C38    C     0.52365   0.83444   0.40005   0.00000  Uiso   1.00
Fe1    Fe    0.52541   0.00567   0.33559   0.00000  Uiso   1.00
O5     O     0.42060   0.94006   0.27414   0.00000  Uiso   1.00
O6     O     0.45713   0.08691   0.21122   0.00000  Uiso   1.00
C39    C     0.40265   0.00001   0.22542   0.00000  Uiso   1.00
O7     O     0.54936   0.14326   0.38122   0.00000  Uiso   1.00
O8     O     0.42130   0.06259   0.42397   0.00000  Uiso   1.00
C40    C     0.48696   0.14255   0.42449   0.00000  Uiso   1.00
C41    C     0.51911   0.66320   0.41467   0.00000  Uiso   1.00
C42    C     0.51274   0.74814   0.45035   0.00000  Uiso   1.00
C43    C     0.49263   0.74632   0.52930   0.00000  Uiso   1.00
C44    C     0.47576   0.65817   0.56870   0.00000  Uiso   1.00
C45    C     0.48234   0.57387   0.53210   0.00000  Uiso   1.00
C46    C     0.50493   0.57614   0.45503   0.00000  Uiso   1.00
C47    C     0.46746   0.48761   0.57319   0.00000  Uiso   1.00
C48    C     0.47486   0.40346   0.53756   0.00000  Uiso   1.00
C49    C     0.49771   0.40481   0.46065   0.00000  Uiso   1.00
C50    C     0.51272   0.49148   0.41885   0.00000  Uiso   1.00
C51    C     0.45965   0.31805   0.57977   0.00000  Uiso   1.00
C52    C     0.46547   0.23171   0.54599   0.00000  Uiso   1.00
C53    C     0.48678   0.23228   0.46754   0.00000  Uiso   1.00
C54    C     0.50421   0.31888   0.42631   0.00000  Uiso   1.00
H17    H     0.53508   0.66579   0.35397   0.00000  Uiso   1.00
H18    H     0.46026   0.65638   0.62981   0.00000  Uiso   1.00
H19    H     0.44991   0.48600   0.63371   0.00000  Uiso   1.00
H20    H     0.44323   0.32004   0.64032   0.00000  Uiso   1.00
H21    H     0.52005   0.31558   0.36575   0.00000  Uiso   1.00
C55    C     0.47832   0.46834   0.27735   0.00000  Uiso   1.00
H22    H     0.41393   0.44716   0.29066   0.00000  Uiso   1.00
N5     N     0.50162   0.47040   0.20250   0.00000  Uiso   1.00
C56    C     0.58173   0.49670   0.18542   0.00000  Uiso   1.00
H23    H     0.59960   0.49804   0.12501   0.00000  Uiso   1.00
N6     N     0.63975   0.52133   0.24304   0.00000  Uiso   1.00
C57    C     0.61860   0.52006   0.31852   0.00000  Uiso   1.00
H24    H     0.66546   0.53990   0.36448   0.00000  Uiso   1.00
C58    C     0.53693   0.49335   0.33695   0.00000  Uiso   1.00
O9     O     0.55949   0.04411   0.72121   0.00000  Uiso   1.00
O10    O     0.52726   0.90400   0.79287   0.00000  Uiso   1.00
C59    C     0.57964   0.99039   0.77404   0.00000  Uiso   1.00
O11    O     0.43197   0.83654   0.61745   0.00000  Uiso   1.00
O12    O     0.55914   0.91651   0.57230   0.00000  Uiso   1.00
C60    C     0.49386   0.83623   0.57371   0.00000  Uiso   1.00
O13    O     0.43789   0.15438   0.67123   0.00000  Uiso   1.00
O14    O     0.36409   0.95136   0.73759   0.00000  Uiso   1.00
C61    C     0.29589   0.94023   0.69740   0.00000  Uiso   1.00
O15    O     0.46420   0.06328   0.57248   0.00000  Uiso   1.00
C62    C     0.45372   0.14581   0.59711   0.00000  Uiso   1.00
O16    O     0.29671   0.93388   0.62071   0.00000  Uiso   1.00
Fe2    Fe    0.45382   0.97435   0.66215   0.00000  Uiso   1.00
N7     N     0.82852   0.04101   0.39561   0.00000  Uiso   1.00
H25    H     0.83363   0.97989   0.42517   0.00000  Uiso   1.00
H26    H     0.88257   0.10094   0.40603   0.00000  Uiso   1.00
N8     N     0.98335   0.11610   0.73781   0.00000  Uiso   1.00
H27    H     0.95597   0.06187   0.69461   0.00000  Uiso   1.00
H28    H     0.04538   0.14949   0.72571   0.00000  Uiso   1.00
