# Generated by REPEAT Assigner based on pymatgen
data_DB0-m3_o9_o21_f0_pcu.sym.69
_audit_creation_date              2022-05-24
_audit_creation_method            REPEAT_Assigner
_cell_length_a                    10.026317
_cell_length_b                    14.045392
_cell_length_c                    13.919490
_cell_angle_alpha                 90.407929
_cell_angle_beta                  85.144585
_cell_angle_gamma                 94.813631
_cell_volume                      1946.268874
_symmetry_space_group_name_H-M    P1
_symmetry_Int_Tables_number       1
loop_
    _symmetry_equiv_pos_site_id
    _symmetry_equiv_pos_as_xyz
    1  x,y,z
loop_
    _atom_site_type_symbol
    _atom_site_label
    _atom_site_fract_x
    _atom_site_fract_y
    _atom_site_fract_z
    _atom_type_partial_charge
    O   O1   0.344763  0.466460  0.635326  -0.765602
    O   O2   0.656488  0.533267  0.363531  -0.763288
    O   O3   0.572539  0.499631  0.647085  -0.575721
    O   O4   0.428712  0.500096  0.351773  -0.577637
    C   C1   0.450220  0.480230  0.687366  0.745802
    C   C2   0.551031  0.519496  0.311492  0.748433
    O   O5   0.399916  0.346146  0.480933  -0.621332
    O   O6   0.601336  0.653581  0.517924  -0.620078
    O   O7   0.628603  0.373119  0.488808  -0.645989
    O   O8   0.372648  0.626608  0.510050  -0.646366
    C   C3   0.519603  0.315949  0.480489  0.798855
    C   C4   0.481648  0.683779  0.518368  0.800042
    Zn  Zn1  0.351439  0.483065  0.490348  1.167642
    Zn  Zn2  0.649812  0.516662  0.508509  1.165430
    C   C5   0.472579  0.785023  0.525890  -0.269896
    C   C6   0.528672  0.214704  0.472968  -0.266569
    C   C7   0.481881  0.973288  0.538383  -0.038067
    C   C8   0.519368  0.026440  0.460474  -0.030963
    C   C9   0.527326  0.128975  0.467231  0.067088
    C   C10  0.473924  0.870752  0.531626  0.071620
    H   H1   0.539527  0.992590  0.391170  0.089972
    H   H2   0.461722  0.007138  0.607687  0.091926
    C   C11  0.562831  0.510035  0.208055  -0.207167
    C   C12  0.438419  0.489686  0.790803  -0.206761
    C   C13  0.557509  0.493471  0.019069  -0.072954
    C   C14  0.443741  0.506244  0.979790  -0.071511
    C   C15  0.438276  0.497618  0.877130  -0.009360
    C   C16  0.562974  0.502099  0.121729  -0.008897
    H   H3   0.355484  0.523100  0.025072  0.150953
    H   H4   0.645766  0.476616  0.973787  0.151415
    H   H5   0.722290  0.803963  0.232727  0.059380
    H   H6   0.278950  0.195755  0.766109  0.059048
    C   C17  0.751447  0.657695  0.258094  -0.689357
    C   C18  0.249801  0.342026  0.740755  -0.693848
    H   H7   0.747541  0.641248  0.182522  0.181242
    H   H8   0.253712  0.358468  0.816327  0.181789
    C   C19  0.774160  0.586958  0.323392  1.243009
    C   C20  0.227090  0.412769  0.675463  1.258717
    H   H9   0.829247  0.535158  0.282331  -0.165251
    H   H10  0.172006  0.464568  0.716528  -0.169959
    C   C21  0.854046  0.623293  0.395525  -0.737035
    C   C22  0.147203  0.376442  0.603328  -0.744236
    C   C23  0.852768  0.718619  0.423061  0.029365
    C   C24  0.148483  0.281119  0.575781  0.032334
    H   H11  0.896094  0.745179  0.487375  0.054410
    H   H12  0.105163  0.254567  0.511463  0.054301
    C   C25  0.794336  0.782281  0.369335  0.131106
    C   C26  0.206912  0.217451  0.629502  0.129569
    C   C27  0.749026  0.752357  0.283496  0.036607
    C   C28  0.252217  0.247366  0.715345  0.038320
    C   C29  0.038717  0.594477  0.499137  -0.167260
    C   C30  0.962528  0.405261  0.499723  -0.164852
    H   H13  0.074318  0.669124  0.497317  0.179780
    H   H14  0.926926  0.330615  0.501544  0.179083
    N   N1   0.104599  0.534788  0.549346  -0.338321
    N   N2   0.896647  0.464950  0.449514  -0.339879
    C   C31  0.069726  0.440375  0.550285  0.497820
    C   C32  0.931521  0.559362  0.448573  0.497251
    S   S1   0.798590  0.905392  0.403016  -0.198253
    C   C33  0.970577  0.929676  0.351733  -0.114723
    H   H15  0.991553  0.007639  0.339580  0.078983
    H   H16  0.984570  0.892495  0.281522  0.033774
    H   H17  0.040698  0.905253  0.402053  0.058299
    S   S2   0.202661  0.094344  0.595807  -0.198626
    C   C34  0.030547  0.070117  0.646845  -0.114071
    H   H18  0.009651  0.992201  0.659351  0.078879
    H   H19  0.960585  0.094226  0.596240  0.058210
    H   H20  0.016241  0.107615  0.716855  0.033373
