# Generated by REPEAT Assigner based on pymatgen
data_DB0-m2_o16_o16_f0_pcu.sym.13
_audit_creation_date              2022-05-24
_audit_creation_method            REPEAT_Assigner
_cell_length_a                    20.219719
_cell_length_b                    19.130272
_cell_length_c                    12.218477
_cell_angle_alpha                 90.000000
_cell_angle_beta                  129.900250
_cell_angle_gamma                 90.000000
_cell_volume                      3625.772988
_symmetry_space_group_name_H-M    P1
_symmetry_Int_Tables_number       1
loop_
    _symmetry_equiv_pos_site_id
    _symmetry_equiv_pos_as_xyz
    1  x,y,z
loop_
    _atom_site_type_symbol
    _atom_site_label
    _atom_site_fract_x
    _atom_site_fract_y
    _atom_site_fract_z
    _atom_type_partial_charge
    O   O1   0.612976  0.930123  0.565210  -0.578190
    O   O2   0.613449  0.070668  0.567531  -0.587192
    O   O3   0.113599  0.430281  0.568367  -0.583563
    O   O4   0.112777  0.570813  0.564390  -0.581154
    O   O5   0.568750  0.925947  0.696794  -0.458445
    O   O6   0.569130  0.073376  0.698833  -0.464584
    O   O7   0.069467  0.428140  0.700041  -0.461104
    O   O8   0.068379  0.575557  0.695575  -0.464650
    C   C1   0.617282  0.903269  0.668291  0.622227
    C   C2   0.617917  0.096601  0.671342  0.635630
    C   C3   0.118194  0.404722  0.672508  0.629690
    C   C4   0.116967  0.598042  0.667126  0.629171
    Cu  Cu1  0.529208  0.000818  0.431542  0.898093
    Cu  Cu2  0.029186  0.499797  0.431551  0.894620
    Cu  Cu3  0.482532  0.999870  0.592445  0.649595
    Cu  Cu4  0.982516  0.501311  0.592450  0.653250
    O   O9   0.442736  0.074520  0.326229  -0.634755
    O   O10  0.442166  0.927705  0.323720  -0.620359
    O   O11  0.941939  0.572691  0.322825  -0.622336
    O   O12  0.942929  0.425886  0.327144  -0.630304
    O   O13  0.398291  0.070197  0.458435  -0.568768
    O   O14  0.397874  0.930270  0.456420  -0.565902
    O   O15  0.897592  0.570469  0.455389  -0.571518
    O   O16  0.898540  0.430554  0.459496  -0.562573
    C   C5   0.391986  0.094900  0.351993  0.809222
    C   C6   0.391364  0.906659  0.349019  0.791134
    C   C7   0.891010  0.593767  0.347824  0.799745
    C   C8   0.892309  0.405542  0.353213  0.797103
    C   C9   0.679279  0.315557  0.132436  -0.487477
    C   C10  0.676708  0.681581  0.123048  -0.489193
    C   C11  0.177111  0.818644  0.124145  -0.486844
    C   C12  0.178979  0.184807  0.131645  -0.491132
    H   H1   0.550032  0.248111  0.913343  0.148234
    H   H2   0.547620  0.748994  0.903881  0.148406
    H   H3   0.047758  0.751814  0.904092  0.147693
    H   H4   0.049995  0.252887  0.913559  0.148481
    H   H5   0.621298  0.316147  0.119956  0.190361
    H   H6   0.618455  0.680558  0.109748  0.190757
    H   H7   0.118873  0.819603  0.110885  0.190025
    H   H8   0.121035  0.184221  0.119277  0.191164
    C   C13  0.320273  0.858858  0.246046  -0.352272
    C   C14  0.321345  0.143374  0.250831  -0.361299
    C   C15  0.821758  0.356899  0.252138  -0.355022
    C   C16  0.819828  0.641384  0.244708  -0.353473
    C   C17  0.758322  0.146918  0.778754  -0.047517
    C   C18  0.757351  0.852699  0.774122  -0.047351
    C   C19  0.257069  0.648708  0.773036  -0.048247
    C   C20  0.258480  0.354377  0.779592  -0.050607
    C   C21  0.327132  0.689459  0.871334  -0.137899
    C   C22  0.328508  0.313624  0.877801  -0.132051
    C   C23  0.828568  0.187321  0.877697  -0.134124
    C   C24  0.827237  0.811675  0.871821  -0.137997
    C   C25  0.327481  0.731508  0.962739  -0.174910
    C   C26  0.328871  0.271676  0.969283  -0.180526
    C   C27  0.829070  0.229006  0.969644  -0.178112
    C   C28  0.827409  0.769318  0.962671  -0.175128
    C   C29  0.756895  0.233540  0.960616  0.108563
    C   C30  0.755233  0.764761  0.953639  0.102792
    C   C31  0.255294  0.736102  0.953649  0.105589
    C   C32  0.256782  0.267290  0.960531  0.113480
    C   C33  0.683790  0.194506  0.855035  0.168797
    C   C34  0.682324  0.804090  0.848661  0.174829
    C   C35  0.182220  0.697047  0.848118  0.173052
    C   C36  0.183863  0.306644  0.855602  0.164377
    C   C37  0.254096  0.778493  0.046981  -0.117600
    C   C38  0.255537  0.224740  0.053575  -0.123825
    C   C39  0.755776  0.275869  0.054103  -0.120557
    C   C40  0.753864  0.722103  0.046433  -0.114424
    C   C41  0.682056  0.277578  0.039606  0.335520
    C   C42  0.679813  0.719914  0.030971  0.334565
    C   C43  0.180069  0.780620  0.031585  0.334024
    C   C44  0.181853  0.223044  0.039193  0.337953
    C   C45  0.608888  0.243334  0.929037  -0.252556
    C   C46  0.606682  0.754136  0.920318  -0.252900
    C   C47  0.106808  0.746682  0.920489  -0.251384
    C   C48  0.108823  0.257608  0.929159  -0.254276
    C   C49  0.608764  0.204022  0.835361  -0.183878
    C   C50  0.607001  0.794135  0.827869  -0.188937
    C   C51  0.106947  0.707026  0.827472  -0.187657
    C   C52  0.108832  0.297219  0.835955  -0.183176
    C   C53  0.324042  0.819344  0.155029  -0.026697
    C   C54  0.325085  0.183175  0.160152  -0.022497
    C   C55  0.825423  0.317268  0.161116  -0.024075
    C   C56  0.823716  0.681106  0.154111  -0.030493
    C   C57  0.246869  0.857020  0.231936  0.513242
    C   C58  0.248418  0.145690  0.238083  0.518141
    C   C59  0.748803  0.354484  0.239289  0.512049
    C   C60  0.746387  0.643040  0.230498  0.516144
    C   C61  0.686140  0.148382  0.768031  -0.172403
    C   C62  0.685114  0.850967  0.763219  -0.171256
    C   C63  0.184818  0.650397  0.762092  -0.173163
    C   C64  0.186377  0.352967  0.769104  -0.167755
    H   H9   0.383036  0.822248  0.172137  0.104861
    H   H10  0.383666  0.179772  0.176104  0.106149
    H   H11  0.883955  0.320750  0.176917  0.106175
    H   H12  0.882789  0.678330  0.171460  0.105608
    H   H13  0.762178  0.112142  0.713363  0.100954
    H   H14  0.761484  0.888047  0.709756  0.101809
    H   H15  0.261103  0.613538  0.708338  0.102593
    H   H16  0.262403  0.389278  0.714428  0.101403
    H   H17  0.386149  0.759916  0.038798  0.131127
    H   H18  0.387542  0.243262  0.045222  0.131955
    H   H19  0.887949  0.257042  0.046301  0.131580
    H   H20  0.885913  0.740613  0.038164  0.131942
    H   H21  0.383782  0.686816  0.880108  0.114616
    H   H22  0.385036  0.316057  0.886205  0.113362
    H   H23  0.885205  0.184733  0.886427  0.113516
    H   H24  0.883855  0.814293  0.880499  0.114857
    H   H25  0.547458  0.183261  0.745167  0.124168
    H   H26  0.545816  0.815069  0.737632  0.126686
    H   H27  0.045667  0.686375  0.736920  0.126575
    H   H28  0.047611  0.318283  0.746155  0.124684
    C   C65  0.678046  0.998489  0.304621  0.382073
    C   C66  0.178052  0.500733  0.304652  0.384626
    H   H29  0.695224  0.000250  0.494711  0.227361
    H   H30  0.195229  0.499718  0.494758  0.227245
    N   N1   0.564308  0.001682  0.310775  0.012227
    N   N2   0.064322  0.498380  0.310849  0.014215
    C   C67  0.363017  0.997495  0.640474  -0.046091
    C   C68  0.863016  0.500796  0.640486  -0.045659
    C   C69  0.330083  0.995891  0.709487  -0.156641
    C   C70  0.830063  0.499564  0.709480  -0.158182
    C   C71  0.384251  0.996095  0.855592  -0.092271
    C   C72  0.884224  0.499679  0.855584  -0.090308
    C   C73  0.473074  0.997352  0.934462  -0.040186
    C   C74  0.973056  0.500735  0.934471  -0.043550
    C   C75  0.504042  0.998052  0.859882  0.307516
    C   C76  0.004028  0.501661  0.859902  0.310813
    C   C77  0.531710  0.998086  0.085133  0.042408
    C   C78  0.031704  0.500585  0.085153  0.045814
    C   C79  0.619625  0.998138  0.157146  -0.159015
    C   C80  0.119622  0.500892  0.157170  -0.162784
    C   C81  0.649018  0.997869  0.082154  0.397867
    C   C82  0.149006  0.501765  0.082170  0.399150
    C   C83  0.592155  0.998280  0.936528  -0.425870
    C   C84  0.092135  0.502349  0.936547  -0.426587
    C   C85  0.505687  0.999254  0.167224  -0.067878
    C   C86  0.005692  0.500215  0.167268  -0.070167
    C   C87  0.649086  0.999944  0.379512  -0.308201
    C   C88  0.149099  0.499757  0.379563  -0.309429
    N   N3   0.448693  0.999401  0.714337  -0.090963
    N   N4   0.948691  0.502690  0.714349  -0.094209
    H   H31  0.439212  0.999391  0.120959  0.126113
    H   H32  0.939228  0.500829  0.121052  0.126826
    H   H33  0.318935  0.997727  0.525386  0.238443
    H   H34  0.818957  0.500579  0.525400  0.238674
    H   H35  0.353516  0.994742  0.901672  0.126483
    H   H36  0.853465  0.498453  0.901634  0.126083
    H   H37  0.261082  0.994632  0.648471  0.120631
    H   H38  0.761057  0.498385  0.648444  0.121081
    H   H39  0.620374  0.998859  0.887022  0.199268
    H   H40  0.120327  0.503553  0.887013  0.199957
    F   F1   0.239853  0.895929  0.316715  -0.246677
    F   F2   0.241496  0.106613  0.322818  -0.247403
    F   F3   0.741896  0.393371  0.324228  -0.245680
    F   F4   0.739297  0.603863  0.314928  -0.247682
    F   F5   0.734431  0.998006  0.149496  -0.192205
    F   F6   0.234414  0.502380  0.149501  -0.192469
    F   F7   0.764298  0.997670  0.378509  -0.205334
    F   F8   0.264302  0.501513  0.378535  -0.205680
