# Generated by REPEAT Assigner based on pymatgen
data_DB0-m3_o2_o8_f0_pcu.sym.87
_audit_creation_date              2022-05-24
_audit_creation_method            REPEAT_Assigner
_cell_length_a                    14.118626
_cell_length_b                    15.187822
_cell_length_c                    17.100262
_cell_angle_alpha                 89.640191
_cell_angle_beta                  93.614295
_cell_angle_gamma                 90.004896
_cell_volume                      3659.464002
_symmetry_space_group_name_H-M    P1
_symmetry_Int_Tables_number       1
loop_
    _symmetry_equiv_pos_site_id
    _symmetry_equiv_pos_as_xyz
    1  x,y,z
loop_
    _atom_site_type_symbol
    _atom_site_label
    _atom_site_fract_x
    _atom_site_fract_y
    _atom_site_fract_z
    _atom_type_partial_charge
    O   O1   0.578132  0.343966  0.522438  -0.712102
    O   O2   0.414449  0.607236  0.520249  -0.690287
    O   O3   0.413914  0.344872  0.520561  -0.716850
    O   O4   0.578255  0.606292  0.519967  -0.661922
    C   C1   0.495778  0.303488  0.521633  0.836458
    C   C2   0.496639  0.647931  0.519706  0.768045
    O   O5   0.587681  0.475616  0.637821  -0.697612
    O   O6   0.404665  0.476636  0.403960  -0.695708
    O   O7   0.423909  0.475471  0.637386  -0.659412
    O   O8   0.568589  0.474632  0.404375  -0.676974
    C   C3   0.508423  0.475539  0.674230  0.770522
    C   C4   0.483956  0.475642  0.367548  0.817835
    Zn  Zn1  0.604377  0.475113  0.521002  1.070057
    Zn  Zn2  0.388003  0.476078  0.520788  1.071280
    C   C5   0.514391  0.475823  0.760165  -0.167262
    C   C6   0.477764  0.475958  0.281573  -0.200382
    C   C7   0.432604  0.476451  0.800606  -0.130262
    C   C8   0.559397  0.475911  0.240950  -0.092281
    C   C9   0.437709  0.476843  0.881431  -0.122699
    C   C10  0.554052  0.476298  0.160118  -0.127891
    C   C11  0.525505  0.476569  0.922804  0.470979
    C   C12  0.466152  0.476743  0.118893  0.457188
    C   C13  0.606861  0.476062  0.882251  -0.359793
    C   C14  0.384930  0.476819  0.159612  -0.321816
    C   C15  0.601677  0.475679  0.801510  0.056508
    C   C16  0.390365  0.476438  0.240364  0.036573
    N   N1   0.534637  0.476682  0.005689  -0.246996
    N   N2   0.456853  0.476904  0.036005  -0.243645
    H   H1   0.628646  0.475625  0.271695  0.123364
    H   H2   0.363414  0.476687  0.769747  0.138500
    H   H3   0.620169  0.476227  0.131506  0.058408
    H   H4   0.371513  0.477396  0.909929  0.050302
    H   H5   0.675439  0.475948  0.914154  0.130279
    H   H6   0.316267  0.477133  0.127850  0.119819
    H   H7   0.666803  0.475236  0.771540  0.090607
    H   H8   0.325335  0.476468  0.270451  0.093722
    C   C17  0.566654  0.068950  0.552868  -0.181239
    C   C18  0.418749  0.882448  0.529009  -0.120597
    H   H9   0.621459  0.032571  0.586058  0.114399
    H   H10  0.356610  0.918195  0.544666  0.086455
    C   C19  0.567465  0.159508  0.556421  -0.064180
    C   C20  0.417540  0.791815  0.532355  -0.040799
    H   H11  0.623681  0.192470  0.590651  0.096470
    H   H12  0.353957  0.758771  0.548871  0.084480
    C   C21  0.495036  0.207285  0.519038  -0.124172
    C   C22  0.497417  0.744505  0.516770  -0.112918
    C   C23  0.422752  0.164092  0.477175  -0.123626
    C   C24  0.578161  0.788864  0.497432  -0.137546
    H   H13  0.367653  0.202142  0.445966  0.090641
    H   H14  0.640496  0.752287  0.483586  0.084554
    C   C25  0.423814  0.073479  0.469466  0.015586
    C   C26  0.579417  0.879762  0.491663  0.031583
    C   C27  0.496915  0.024814  0.507920  0.096623
    C   C28  0.498314  0.927570  0.507321  0.012286
    C   C29  0.105762  0.507211  0.587748  0.096036
    C   C30  0.887014  0.523764  0.462695  0.000979
    C   C31  0.203973  0.504794  0.585336  -0.127865
    C   C32  0.788735  0.519914  0.464061  -0.101180
    H   H15  0.247547  0.527939  0.635181  0.147288
    H   H16  0.745180  0.555399  0.420209  0.152347
    N   N3   0.246038  0.476316  0.521447  -0.012973
    N   N4   0.746308  0.475034  0.520474  -0.038521
    C   C33  0.192059  0.447820  0.458851  -0.060544
    C   C34  0.799615  0.431315  0.576144  -0.037675
    H   H17  0.225350  0.423366  0.408115  0.164919
    H   H18  0.765589  0.394464  0.620822  0.166238
    C   C35  0.093980  0.449242  0.458669  -0.122693
    C   C36  0.897722  0.433077  0.576886  -0.160751
    H   H19  0.052464  0.425243  0.407958  0.100889
    H   H20  0.938748  0.396440  0.621573  0.106448
    C   C37  0.048904  0.480247  0.522610  0.039679
    C   C38  0.943363  0.480471  0.520950  0.128861
    C   C39  0.348455  0.033391  0.417958  0.034094
    C   C40  0.369996  0.978869  0.357017  -0.045545
    C   C41  0.298718  0.946386  0.306388  -0.002415
    Cl  Cl1  0.326741  0.877819  0.229220  -0.110982
    C   C42  0.205577  0.968588  0.315852  0.082758
    C   C43  0.183583  0.022721  0.376416  -0.283955
    C   C44  0.254729  0.055292  0.427095  -0.021379
    H   H21  0.442625  0.962488  0.347471  0.081222
    H   H22  0.149807  0.943499  0.275841  0.039348
    H   H23  0.110474  0.039983  0.384023  0.148980
    H   H24  0.236454  0.097757  0.474352  0.077998
    C   C45  0.667360  0.921617  0.468078  0.113166
    C   C46  0.666608  0.979772  0.405437  -0.071417
    C   C47  0.750061  0.016817  0.383327  0.048964
    Cl  Cl2  0.748244  0.090539  0.304116  -0.113238
    C   C48  0.834893  0.995628  0.423195  -0.117368
    C   C49  0.836299  0.937134  0.485125  -0.094425
    C   C50  0.752938  0.900028  0.507344  -0.179907
    H   H25  0.601098  0.996166  0.372825  0.085628
    H   H26  0.900273  0.024636  0.405747  0.106183
    H   H27  0.902840  0.920323  0.516374  0.088199
    H   H28  0.754979  0.854864  0.556533  0.139977
    C   C51  0.065942  0.539006  0.659887  -0.015247
    C   C52  0.001239  0.607549  0.658351  -0.012439
    C   C53  0.966458  0.637369  0.726941  -0.005093
    Cl  Cl3  0.884602  0.724096  0.724293  -0.080131
    C   C54  0.996315  0.599316  0.797557  -0.023788
    C   C55  0.061363  0.531627  0.799594  -0.193550
    C   C56  0.096435  0.501882  0.731103  -0.054763
    H   H29  0.977964  0.638993  0.603810  0.070267
    H   H30  0.969053  0.622772  0.851306  0.102424
    H   H31  0.084954  0.501779  0.854972  0.149715
    H   H32  0.147041  0.448391  0.733493  0.091966
    C   C57  0.927597  0.575126  0.399634  0.079108
    C   C58  0.994977  0.639648  0.416052  -0.025497
    C   C59  0.031801  0.687300  0.356266  -0.031529
    Cl  Cl4  0.118525  0.767206  0.378149  -0.050084
    C   C60  0.000595  0.672046  0.279627  -0.021359
    C   C61  0.932238  0.609043  0.262878  -0.170899
    C   C62  0.895621  0.560944  0.322626  -0.138738
    H   H33  0.019335  0.653770  0.475653  0.065133
    H   H34  0.029553  0.709535  0.232776  0.102960
    H   H35  0.907480  0.597097  0.202783  0.141888
    H   H36  0.842752  0.511079  0.308522  0.127739
