# generated using pymatgen
data_CuH16C23SNO4
_symmetry_space_group_name_H-M   'P 1'
_cell_length_a   10.87764500
_cell_length_b   15.14853600
_cell_length_c   13.67279300
_cell_angle_alpha   89.99676500
_cell_angle_beta   90.00093100
_cell_angle_gamma   89.99365700
_symmetry_Int_Tables_number   1
_chemical_formula_structural   CuH16C23SNO4
_chemical_formula_sum   'Cu2 H32 C46 S2 N2 O8'
_cell_volume   2253.00823927
_cell_formula_units_Z   2
loop_
 _symmetry_equiv_pos_site_id
 _symmetry_equiv_pos_as_xyz
  1  'x, y, z'
loop_
 _atom_site_type_symbol
 _atom_site_label
 _atom_site_symmetry_multiplicity
 _atom_site_fract_x
 _atom_site_fract_y
 _atom_site_fract_z
 _atom_site_occupancy
  Cu  Cu1  1  0.49429200  0.49796700  0.59706000  1
  Cu  Cu2  1  0.49548400  0.50234200  0.40174700  1
  H  H1  1  0.23883100  0.70586900  0.11277200  1
  H  H2  1  0.74632900  0.28170400  0.87637000  1
  H  H3  1  0.26952600  0.76507800  0.27829300  1
  H  H4  1  0.70772500  0.23304300  0.70756900  1
  H  H5  1  0.18654100  0.68625800  0.42064100  1
  H  H6  1  0.79470300  0.31570500  0.56977500  1
  H  H7  1  0.03855700  0.48934700  0.23099800  1
  H  H8  1  0.95863600  0.49726700  0.76988800  1
  H  H9  1  0.12269600  0.56823000  0.08928700  1
  H  H10  1  0.87267900  0.41338500  0.90718100  1
  H  H11  1  0.87590800  0.55614300  0.36043300  1
  H  H12  1  0.11412500  0.44212000  0.63740100  1
  H  H13  1  0.38032100  0.06392200  0.62473800  1
  H  H14  1  0.47802100  0.93579300  0.34530800  1
  H  H15  1  0.38201600  0.22385600  0.62133200  1
  H  H16  1  0.48490600  0.77712500  0.35033700  1
  H  H17  1  0.61008000  0.05832800  0.37160100  1
  H  H18  1  0.51755700  0.94555600  0.65556500  1
  H  H19  1  0.60034400  0.62322400  0.06710700  1
  H  H20  1  0.31372200  0.44293000  0.93174100  1
  H  H21  1  0.60496100  0.62026800  0.24439000  1
  H  H22  1  0.31927600  0.43557500  0.75497500  1
  H  H23  1  0.38831000  0.39030100  0.24722500  1
  H  H24  1  0.66464800  0.56066200  0.75178400  1
  H  H25  1  0.38983300  0.38414500  0.07091900  1
  H  H26  1  0.67086600  0.56210400  0.92787200  1
  H  H27  1  0.55779500  0.25632800  0.17127400  1
  H  H28  1  0.44835400  0.21608400  0.25971300  1
  H  H29  1  0.56111600  0.14143200  0.20704200  1
  H  H30  1  0.31426700  0.77000400  0.67477500  1
  H  H31  1  0.35093100  0.84533800  0.77384800  1
  H  H32  1  0.34554500  0.72730400  0.79520400  1
  C  C1  1  0.49246200  0.33031200  0.49432600  1
  C  C2  1  0.50071400  0.67035400  0.50481000  1
  C  C3  1  0.25824200  0.50506700  0.49880800  1
  C  C4  1  0.73149800  0.49491900  0.49979400  1
  C  C5  1  0.22015400  0.70387300  0.26821000  1
  C  C6  1  0.76221800  0.29145100  0.72109100  1
  C  C7  1  0.17388600  0.65933100  0.34811800  1
  C  C8  1  0.81049800  0.33838100  0.64367800  1
  C  C9  1  0.10963800  0.58148800  0.33525500  1
  C  C10  1  0.87982300  0.41337000  0.66059200  1
  C  C11  1  0.09014200  0.54954600  0.24189800  1
  C  C12  1  0.90331100  0.43939300  0.75564100  1
  C  C13  1  0.13736600  0.59377800  0.16217800  1
  C  C14  1  0.85492800  0.39237500  0.83295700  1
  C  C15  1  0.20248000  0.67089400  0.17532300  1
  C  C16  1  0.78406900  0.31858700  0.81571000  1
  C  C17  1  0.92781800  0.52908200  0.42077800  1
  C  C18  1  0.06189900  0.46957100  0.57746400  1
  C  C19  1  0.86692500  0.49329300  0.50000000  1
  C  C20  1  0.12276000  0.50583700  0.49841400  1
  C  C21  1  0.93536900  0.46161700  0.57864000  1
  C  C22  1  0.05428800  0.53627500  0.41921400  1
  C  C23  1  0.43157100  0.09711900  0.56789500  1
  C  C24  1  0.48866700  0.90358400  0.41532300  1
  C  C25  1  0.43207100  0.18811800  0.56569700  1
  C  C26  1  0.49166100  0.81267000  0.41857400  1
  C  C27  1  0.49328800  0.23317200  0.49252200  1
  C  C28  1  0.50148300  0.76808600  0.50674100  1
  C  C29  1  0.55654600  0.18523200  0.42166000  1
  C  C30  1  0.51043800  0.81774200  0.59280800  1
  C  C31  1  0.55631900  0.09417900  0.42487400  1
  C  C32  1  0.50730600  0.90873000  0.58838300  1
  C  C33  1  0.49362000  0.04942300  0.49730600  1
  C  C34  1  0.49576200  0.95235800  0.50033700  1
  C  C35  1  0.55490600  0.56963600  0.10455900  1
  C  C36  1  0.39459800  0.46677600  0.89434100  1
  C  C37  1  0.55624800  0.56893200  0.20557500  1
  C  C38  1  0.39672700  0.46354100  0.79344400  1
  C  C39  1  0.43635300  0.44112600  0.20719500  1
  C  C40  1  0.58860800  0.53237200  0.79160600  1
  C  C41  1  0.43530100  0.43872500  0.10654400  1
  C  C42  1  0.59071200  0.53501200  0.89229200  1
  C  C43  1  0.49407700  0.50381600  0.05346800  1
  C  C44  1  0.49303500  0.50194200  0.94541000  1
  C  C45  1  0.54414700  0.20975000  0.23286800  1
  C  C46  1  0.37010700  0.77950900  0.74180000  1
  S  S1  1  0.65063200  0.23697700  0.33058200  1
  S  S2  1  0.53227100  0.77065400  0.71194600  1
  N  N1  1  0.49555400  0.50590200  0.25544800  1
  N  N2  1  0.49410800  0.49473000  0.74340300  1
  O  O1  1  0.48599400  0.37012100  0.57940800  1
  O  O2  1  0.50311200  0.63021200  0.41968000  1
  O  O3  1  0.49666700  0.37376000  0.41161800  1
  O  O4  1  0.49449100  0.62649300  0.58698500  1
  O  O5  1  0.31575200  0.50456200  0.58316000  1
  O  O6  1  0.67406500  0.49647600  0.41545400  1
  O  O7  1  0.31682800  0.50138900  0.41536200  1
  O  O8  1  0.67296700  0.49816100  0.58334200  1
