# Generated by REPEAT Assigner based on pymatgen
data_DB0-m3_o6_o11_f0_nbo.sym.167_sqe
_audit_creation_date              2022-05-24
_audit_creation_method            REPEAT_Assigner
_cell_length_a                    38.618099
_cell_length_b                    32.269468
_cell_length_c                    22.002709
_cell_angle_alpha                 90.000000
_cell_angle_beta                  123.260422
_cell_angle_gamma                 90.000000
_cell_volume                      22927.776815
_symmetry_space_group_name_H-M    P1
_symmetry_Int_Tables_number       1
loop_
    _symmetry_equiv_pos_site_id
    _symmetry_equiv_pos_as_xyz
    1  x,y,z
loop_
    _atom_site_type_symbol
    _atom_site_label
    _atom_site_fract_x
    _atom_site_fract_y
    _atom_site_fract_z
    _atom_type_partial_charge
    O   O1    0.438138  0.522748  0.443959  -0.719722
    O   O2    0.561542  0.524498  0.558839  -0.705736
    O   O3    0.938138  0.022748  0.443959  -0.719675
    O   O4    0.061542  0.024498  0.558839  -0.705763
    O   O5    0.437806  0.451185  0.439925  -0.691055
    O   O6    0.561310  0.452909  0.556252  -0.705301
    O   O7    0.937806  0.951185  0.439925  -0.691025
    O   O8    0.061310  0.952909  0.556252  -0.705318
    C   C1    0.418676  0.487071  0.423862  0.776185
    C   C2    0.580724  0.488700  0.575643  0.777592
    C   C3    0.918676  0.987071  0.423862  0.776072
    C   C4    0.080724  0.988700  0.575643  0.777590
    O   O9    0.502014  0.524316  0.592774  -0.669311
    O   O10   0.499254  0.522878  0.409106  -0.684759
    O   O11   0.002014  0.024316  0.592774  -0.669319
    O   O12   0.999254  0.022878  0.409106  -0.684829
    O   O13   0.499639  0.452751  0.589880  -0.687910
    O   O14   0.497864  0.451286  0.407171  -0.669118
    O   O15   0.999639  0.952751  0.589880  -0.687903
    O   O16   0.997864  0.951286  0.407171  -0.669151
    C   C5    0.501325  0.488407  0.619925  0.704832
    C   C6    0.498056  0.487180  0.379536  0.698583
    C   C7    0.001325  0.988407  0.619925  0.704880
    C   C8    0.998056  0.987180  0.379536  0.698772
    Zn  Zn1   0.499671  0.534807  0.499865  1.329694
    Zn  Zn2   0.999671  0.034807  0.499865  1.329706
    Zn  Zn3   0.499718  0.440849  0.499617  1.313631
    Zn  Zn4   0.999718  0.940849  0.499617  1.313640
    C   C9    0.516507  0.520578  0.798085  -0.285759
    C   C10   0.484815  0.521310  0.203754  -0.297791
    C   C11   0.016507  0.020578  0.798085  -0.285775
    C   C12   0.984815  0.021310  0.203754  -0.297567
    C   C13   0.485036  0.507280  0.802189  0.346600
    C   C14   0.515655  0.506688  0.198972  0.356287
    C   C15   0.985036  0.007280  0.802189  0.346591
    C   C16   0.015655  0.006688  0.198972  0.356000
    H   H1    0.543942  0.533368  0.845736  0.189588
    H   H2    0.458023  0.535468  0.156818  0.191439
    H   H3    0.043942  0.033368  0.845736  0.189583
    H   H4    0.958023  0.035468  0.156818  0.191373
    C   C17   0.514209  0.521338  0.729415  0.006270
    C   C18   0.487046  0.521494  0.272369  0.022325
    C   C19   0.014209  0.021338  0.729415  0.006322
    C   C20   0.987046  0.021494  0.272369  0.022418
    C   C21   0.502438  0.487870  0.687191  -0.205111
    C   C22   0.496974  0.487213  0.312295  -0.204784
    C   C23   0.002438  0.987870  0.687191  -0.205173
    C   C24   0.996974  0.987213  0.312295  -0.205045
    H   H5    0.525835  0.548366  0.716897  0.147221
    H   H6    0.476839  0.548928  0.286654  0.142323
    H   H7    0.025835  0.048366  0.716897  0.147210
    H   H8    0.976839  0.048928  0.286654  0.142307
    H   H9    0.495194  0.459323  0.703891  0.114263
    H   H10   0.502732  0.458507  0.293701  0.110609
    H   H11   0.995194  0.959323  0.703891  0.114266
    H   H12   0.002732  0.958507  0.293701  0.110670
    H   H13   0.284512  0.433683  0.247939  0.173841
    H   H14   0.714679  0.434750  0.751709  0.173492
    H   H15   0.784512  0.933683  0.247939  0.173841
    H   H16   0.214679  0.934750  0.751709  0.173490
    C   C25   0.226685  0.463972  0.208087  -0.120145
    C   C26   0.772632  0.464721  0.791353  -0.122194
    C   C27   0.726685  0.963972  0.208087  -0.120124
    C   C28   0.272632  0.964721  0.791353  -0.122194
    H   H17   0.208691  0.439468  0.170170  0.155921
    H   H18   0.790526  0.440247  0.829434  0.155708
    H   H19   0.708691  0.939468  0.170170  0.155917
    H   H20   0.290526  0.940247  0.829434  0.155709
    C   C29   0.206959  0.498479  0.212244  0.088807
    C   C30   0.792499  0.499036  0.786975  0.090728
    C   C31   0.706959  0.998479  0.212244  0.088730
    C   C32   0.292499  0.999036  0.786975  0.090692
    C   C33   0.230024  0.529660  0.261390  0.346668
    C   C34   0.769559  0.530176  0.737618  0.343974
    C   C35   0.730024  0.029660  0.261390  0.346694
    C   C36   0.269559  0.030176  0.737618  0.343984
    C   C37   0.272723  0.526302  0.304738  -0.380834
    C   C38   0.726848  0.526981  0.694295  -0.378657
    C   C39   0.772723  0.026302  0.304738  -0.380838
    C   C40   0.226848  0.026981  0.694295  -0.378650
    H   H21   0.290976  0.551002  0.341904  0.218395
    H   H22   0.708694  0.551664  0.656979  0.217181
    H   H23   0.790976  0.051002  0.341904  0.218390
    H   H24   0.208694  0.051664  0.656979  0.217177
    C   C41   0.292321  0.491872  0.300123  0.415579
    C   C42   0.707108  0.492749  0.699134  0.413338
    C   C43   0.792321  0.991872  0.300123  0.415612
    C   C44   0.207108  0.992749  0.699134  0.413350
    C   C45   0.269241  0.460648  0.251864  -0.316689
    C   C46   0.730061  0.461557  0.747596  -0.314865
    C   C47   0.769241  0.960648  0.251864  -0.316695
    C   C48   0.230061  0.961557  0.747596  -0.314855
    C   C49   0.162486  0.500995  0.166396  -0.120660
    C   C50   0.836983  0.501397  0.832811  -0.119619
    C   C51   0.662486  0.000995  0.166396  -0.120571
    C   C52   0.336983  0.001397  0.832811  -0.119576
    C   C53   0.336779  0.489176  0.344240  -0.203450
    C   C54   0.662635  0.490262  0.655082  -0.201413
    C   C55   0.836779  0.989176  0.344240  -0.203504
    C   C56   0.162635  0.990262  0.655082  -0.201446
    C   C57   0.374130  0.487667  0.380848  -0.092197
    C   C58   0.625275  0.488974  0.618544  -0.094057
    C   C59   0.874130  0.987667  0.380848  -0.092127
    C   C60   0.125275  0.988974  0.618544  -0.094025
    C   C61   0.125193  0.502881  0.127865  -0.092957
    C   C62   0.874284  0.503178  0.871301  -0.094301
    C   C63   0.625193  0.002881  0.127865  -0.093055
    C   C64   0.374284  0.003178  0.871301  -0.094338
    O   O17   0.536889  0.443321  0.030527  -0.690427
    O   O18   0.465651  0.443492  0.971673  -0.702540
    O   O19   0.036889  0.943321  0.030527  -0.690446
    O   O20   0.965651  0.943492  0.971673  -0.702577
    C   C65   0.501229  0.424148  0.000969  0.861332
    C   C66   0.001229  0.924148  0.000969  0.861344
    O   O21   0.527611  0.504729  0.931400  -0.701678
    O   O22   0.473015  0.506288  0.069692  -0.698408
    O   O23   0.027611  0.004729  0.931400  -0.701695
    O   O24   0.973015  0.006288  0.069692  -0.698464
    O   O25   0.456489  0.505962  0.874229  -0.647415
    O   O26   0.544104  0.503907  0.126837  -0.648170
    O   O27   0.956489  0.005962  0.874229  -0.647428
    O   O28   0.044104  0.003907  0.126837  -0.648190
    C   C67   0.489971  0.505608  0.872807  0.511948
    C   C68   0.510650  0.505345  0.128282  0.505947
    C   C69   0.989971  0.005608  0.872807  0.511992
    C   C70   0.010650  0.005345  0.128282  0.506114
    Zn  Zn5   0.546945  0.505261  0.037569  1.315697
    Zn  Zn6   0.453673  0.505087  0.963533  1.312132
    Zn  Zn7   0.046945  0.005261  0.037569  1.315717
    Zn  Zn8   0.953673  0.005087  0.963533  1.312163
    O   O29   0.535058  0.566846  0.030304  -0.694729
    O   O30   0.463640  0.567014  0.969676  -0.682633
    O   O31   0.035058  0.066846  0.030304  -0.694747
    O   O32   0.963640  0.067014  0.969676  -0.682631
    C   C71   0.499386  0.586134  0.000133  0.876952
    C   C72   0.999386  0.086134  0.000133  0.876942
    O   O33   0.997034  0.443289  0.048229  -0.709306
    O   O34   0.002315  0.442918  0.948520  -0.693862
    O   O35   0.497034  0.943289  0.048229  -0.709309
    O   O36   0.502315  0.942918  0.948520  -0.693854
    C   C73   0.999612  0.423895  0.998437  0.821668
    C   C74   0.499612  0.923895  0.998437  0.821634
    O   O37   0.059677  0.505615  0.112561  -0.676165
    O   O38   0.939808  0.503829  0.886507  -0.674605
    O   O39   0.559677  0.005615  0.112561  -0.676180
    O   O40   0.439808  0.003829  0.886507  -0.674613
    O   O41   0.063240  0.503613  0.011141  -0.673927
    O   O42   0.936250  0.505779  0.987930  -0.675097
    O   O43   0.563240  0.003613  0.011141  -0.673940
    O   O44   0.436250  0.005779  0.987930  -0.675101
    C   C75   0.080736  0.504582  0.081798  0.743854
    C   C76   0.918750  0.504779  0.917269  0.744573
    C   C77   0.580736  0.004582  0.081798  0.743955
    C   C78   0.418750  0.004779  0.917269  0.744608
    Zn  Zn9   0.997594  0.504953  0.066314  1.321086
    Zn  Zn10  0.001892  0.504848  0.932843  1.319802
    Zn  Zn11  0.497594  0.004953  0.066314  1.321077
    Zn  Zn12  0.501892  0.004848  0.932843  1.319790
    O   O45   0.997221  0.566852  0.050633  -0.687413
    O   O46   0.002412  0.566482  0.950942  -0.703099
    O   O47   0.497221  0.066852  0.050633  -0.687401
    O   O48   0.502412  0.066482  0.950942  -0.703073
    C   C79   0.999881  0.585927  0.000727  0.763209
    C   C80   0.499881  0.085927  0.000727  0.763152
    H   H25   0.460884  0.293671  0.039189  0.180925
    H   H26   0.540618  0.293078  0.962028  0.180935
    H   H27   0.960884  0.793671  0.039189  0.180930
    H   H28   0.040618  0.793078  0.962028  0.180941
    C   C81   0.977417  0.733921  0.020953  0.474679
    C   C82   0.023533  0.733582  0.980112  0.476156
    C   C83   0.477417  0.233921  0.020953  0.474662
    C   C84   0.523533  0.233582  0.980112  0.476143
    C   C85   0.000377  0.712286  0.000509  -0.164928
    C   C86   0.500377  0.212286  0.000509  -0.164924
    C   C87   0.523004  0.276328  0.978863  -0.412143
    C   C88   0.478338  0.276660  0.022300  -0.409877
    C   C89   0.023004  0.776328  0.978863  -0.412170
    C   C90   0.978338  0.776660  0.022300  -0.409913
    C   C91   0.500769  0.297834  0.000611  0.276192
    C   C92   0.000769  0.797834  0.000611  0.276247
    C   C93   0.000194  0.667739  0.000523  0.093782
    C   C94   0.500194  0.167739  0.000523  0.093760
    C   C95   0.500972  0.342314  0.000699  -0.038659
    C   C96   0.000972  0.842314  0.000699  -0.038704
    C   C97   0.501110  0.379664  0.000806  -0.220662
    C   C98   0.001110  0.879664  0.000806  -0.220627
    C   C99   0.000045  0.630393  0.000585  -0.143271
    C   C100  0.500045  0.130393  0.000585  -0.143238
    H   H29   0.462983  0.716429  0.884194  0.185756
    H   H30   0.536023  0.716917  0.115414  0.185518
    H   H31   0.962983  0.216429  0.884194  0.185753
    H   H32   0.036023  0.216917  0.115414  0.185505
    C   C101  0.978295  0.276145  0.934343  0.479283
    C   C102  0.020708  0.276417  0.064477  0.476707
    C   C103  0.478295  0.776145  0.934343  0.479285
    C   C104  0.520708  0.776417  0.064477  0.476720
    C   C105  0.999503  0.297702  0.999267  -0.196162
    C   C106  0.499503  0.797702  0.999267  -0.196158
    C   C107  0.519959  0.733705  0.064577  -0.411221
    C   C108  0.479042  0.733432  0.934809  -0.409876
    C   C109  0.019959  0.233705  0.064577  -0.411185
    C   C110  0.979042  0.233432  0.934809  -0.409870
    C   C111  0.499500  0.712277  0.999831  0.274597
    C   C112  0.999500  0.212277  0.999831  0.274577
    C   C113  0.999524  0.342185  0.998962  0.120453
    C   C114  0.499524  0.842185  0.998962  0.120452
    C   C115  0.499502  0.667863  0.000086  -0.029326
    C   C116  0.999502  0.167863  0.000086  -0.029334
    C   C117  0.499471  0.630551  0.000183  -0.224953
    C   C118  0.999471  0.130551  0.000183  -0.224932
    C   C119  0.999552  0.379492  0.998708  -0.179226
    C   C120  0.499552  0.879492  0.998708  -0.179206
    N   N1    0.954288  0.712576  0.043158  -0.689956
    C   C121  0.916562  0.700180  0.987754  0.807720
    O   O49   0.909008  0.697468  0.926334  -0.594746
    C   C122  0.883762  0.690207  0.001439  -0.445936
    H   H33   0.954031  0.725388  0.085732  0.335053
    H   H34   0.876877  0.718039  0.022610  0.101471
    H   H35   0.894582  0.664768  0.041792  0.119533
    H   H36   0.855286  0.680311  0.949892  0.138704
    N   N2    0.046483  0.711890  0.957895  -0.687261
    C   C123  0.084093  0.699220  0.013294  0.810506
    O   O50   0.091612  0.696618  0.074702  -0.595832
    C   C124  0.116811  0.688804  0.999618  -0.452332
    H   H37   0.046865  0.724562  0.915354  0.333529
    H   H38   0.123953  0.716481  0.978502  0.103325
    H   H39   0.105770  0.663365  0.959226  0.120508
    H   H40   0.145193  0.678730  0.051158  0.140091
    N   N3    0.454288  0.212576  0.043158  -0.689955
    C   C125  0.416562  0.200180  0.987754  0.807731
    O   O51   0.409008  0.197468  0.926334  -0.594751
    C   C126  0.383762  0.190207  0.001439  -0.445928
    H   H41   0.454031  0.225388  0.085732  0.335055
    H   H42   0.376877  0.218039  0.022610  0.101458
    H   H43   0.394582  0.164768  0.041792  0.119527
    H   H44   0.355286  0.180311  0.949892  0.138707
    N   N4    0.546483  0.211890  0.957895  -0.687250
    C   C127  0.584093  0.199220  0.013294  0.810516
    O   O52   0.591612  0.196618  0.074702  -0.595834
    C   C128  0.616811  0.188804  0.999618  -0.452326
    H   H45   0.546865  0.224562  0.915354  0.333525
    H   H46   0.623953  0.216481  0.978502  0.103318
    H   H47   0.605770  0.163365  0.959226  0.120505
    H   H48   0.645193  0.178730  0.051158  0.140090
    N   N5    0.957193  0.297540  0.867491  -0.687472
    C   C129  0.918755  0.310040  0.846047  0.801366
    O   O53   0.908906  0.312808  0.889907  -0.591015
    C   C130  0.887981  0.320055  0.768218  -0.452343
    H   H49   0.958734  0.284699  0.826230  0.334434
    H   H50   0.882234  0.292220  0.734345  0.101784
    H   H51   0.900120  0.345448  0.750988  0.120393
    H   H52   0.858548  0.330033  0.761337  0.145726
    N   N6    0.041825  0.298098  0.131043  -0.682742
    C   C131  0.080267  0.310480  0.152312  0.803457
    O   O54   0.090113  0.312902  0.108411  -0.591295
    C   C132  0.111051  0.320792  0.230004  -0.457668
    H   H53   0.040283  0.285530  0.172478  0.332529
    H   H54   0.116789  0.293137  0.264249  0.103161
    H   H55   0.098924  0.346374  0.246896  0.120878
    H   H56   0.140485  0.330620  0.236744  0.147229
    N   N7    0.457193  0.797540  0.867491  -0.687498
    C   C133  0.418755  0.810040  0.846047  0.801376
    O   O55   0.408906  0.812808  0.889907  -0.591004
    C   C134  0.387981  0.820055  0.768218  -0.452433
    H   H57   0.458734  0.784699  0.826230  0.334450
    H   H58   0.382234  0.792220  0.734345  0.101806
    H   H59   0.400120  0.845448  0.750988  0.120428
    H   H60   0.358548  0.830033  0.761337  0.145746
    N   N8    0.541825  0.798098  0.131043  -0.682809
    C   C135  0.580267  0.810480  0.152312  0.803470
    O   O56   0.590113  0.812902  0.108411  -0.591285
    C   C136  0.611051  0.820792  0.230004  -0.457678
    H   H61   0.540283  0.785530  0.172478  0.332577
    H   H62   0.616789  0.793137  0.264249  0.103155
    H   H63   0.598924  0.846374  0.246896  0.120881
    H   H64   0.640485  0.830620  0.236744  0.147232
    N   N9    0.446508  0.496105  0.739154  -0.496038
    C   C137  0.421819  0.528512  0.701285  0.813224
    O   O57   0.436162  0.563384  0.711623  -0.586906
    C   C138  0.376697  0.522019  0.646919  -0.653980
    H   H65   0.431314  0.471601  0.744471  0.271614
    H   H66   0.368685  0.488686  0.642515  0.137899
    H   H67   0.368701  0.533331  0.593101  0.213722
    H   H68   0.358681  0.539675  0.663786  0.171667
    N   N10   0.553556  0.493522  0.261390  -0.501603
    C   C139  0.579738  0.524614  0.301253  0.810239
    O   O58   0.567084  0.560116  0.292919  -0.585885
    C   C140  0.624463  0.515883  0.355402  -0.648961
    H   H69   0.567596  0.468422  0.254738  0.275627
    H   H70   0.630868  0.482223  0.357861  0.135491
    H   H71   0.632862  0.526517  0.409801  0.214622
    H   H72   0.643408  0.532855  0.339767  0.169944
    N   N11   0.946508  0.996105  0.739154  -0.496044
    C   C141  0.921819  0.028512  0.701285  0.813234
    O   O59   0.936162  0.063384  0.711623  -0.586908
    C   C142  0.876697  0.022019  0.646919  -0.654014
    H   H73   0.931314  0.971601  0.744471  0.271621
    H   H74   0.868685  0.988686  0.642515  0.137910
    H   H75   0.868701  0.033331  0.593101  0.213732
    H   H76   0.858681  0.039675  0.663786  0.171675
    N   N12   0.053556  0.993522  0.261390  -0.501524
    C   C143  0.079738  0.024614  0.301253  0.810292
    O   O60   0.067084  0.060116  0.292919  -0.585907
    C   C144  0.124463  0.015883  0.355402  -0.649035
    H   H77   0.067596  0.968422  0.254738  0.275620
    H   H78   0.130868  0.982223  0.357861  0.135503
    H   H79   0.132862  0.026517  0.409801  0.214640
    H   H80   0.143408  0.032855  0.339767  0.169961
    N   N13   0.210470  0.565676  0.265199  -0.668264
    C   C145  0.209117  0.568550  0.325041  0.818870
    O   O61   0.231586  0.547076  0.378155  -0.572636
    C   C146  0.179394  0.597606  0.325764  -0.512183
    H   H81   0.184631  0.576715  0.218273  0.332375
    H   H82   0.147290  0.588978  0.282156  0.128375
    H   H83   0.185902  0.629685  0.316676  0.135057
    H   H84   0.182859  0.595785  0.379168  0.148203
    N   N14   0.789257  0.566004  0.733575  -0.665105
    C   C147  0.790591  0.568600  0.673685  0.816377
    O   O62   0.768024  0.547074  0.620706  -0.572624
    C   C148  0.820409  0.597412  0.672747  -0.505979
    H   H85   0.815146  0.577044  0.780420  0.331885
    H   H86   0.852486  0.588718  0.716378  0.125350
    H   H87   0.814030  0.629583  0.681659  0.133464
    H   H88   0.816912  0.595382  0.619334  0.147282
    N   N15   0.710470  0.065676  0.265199  -0.668277
    C   C149  0.709117  0.068550  0.325041  0.818875
    O   O63   0.731586  0.047076  0.378155  -0.572631
    C   C150  0.679394  0.097606  0.325764  -0.512204
    H   H89   0.684631  0.076715  0.218273  0.332377
    H   H90   0.647290  0.088978  0.282156  0.128384
    H   H91   0.685902  0.129685  0.316676  0.135065
    H   H92   0.682859  0.095785  0.379168  0.148203
    N   N16   0.289257  0.066004  0.733575  -0.665111
    C   C151  0.290591  0.068600  0.673685  0.816374
    O   O64   0.268024  0.047074  0.620706  -0.572619
    C   C152  0.320409  0.097412  0.672747  -0.505991
    H   H93   0.315146  0.077044  0.780420  0.331884
    H   H94   0.352486  0.088718  0.716378  0.125357
    H   H95   0.314030  0.129583  0.681659  0.133470
    H   H96   0.316912  0.095382  0.619334  0.147281
