# generated using pymatgen
data_CuH20C30N7O8
_symmetry_space_group_name_H-M   'P 1'
_cell_length_a   19.30460600
_cell_length_b   17.88956000
_cell_length_c   19.24683100
_cell_angle_alpha   90.00000000
_cell_angle_beta   90.01214000
_cell_angle_gamma   90.00000000
_symmetry_Int_Tables_number   1
_chemical_formula_structural   CuH20C30N7O8
_chemical_formula_sum   'Cu2 H40 C60 N14 O16'
_cell_volume   6646.91039955
_cell_formula_units_Z   2
loop_
 _symmetry_equiv_pos_site_id
 _symmetry_equiv_pos_as_xyz
  1  'x, y, z'
loop_
 _atom_site_type_symbol
 _atom_site_label
 _atom_site_symmetry_multiplicity
 _atom_site_fract_x
 _atom_site_fract_y
 _atom_site_fract_z
 _atom_site_occupancy
  Cu  Cu1  1  0.49999300  0.57477900  0.50054200  1
  Cu  Cu2  1  0.50049800  0.42530800  0.49950300  1
  H  H1  1  0.57119300  0.59111000  0.28381800  1
  H  H2  1  0.56948700  0.40760500  0.71599300  1
  H  H3  1  0.43068100  0.59057400  0.71604100  1
  H  H4  1  0.42922300  0.41095900  0.28414700  1
  H  H5  1  0.71807800  0.38372100  0.47538400  1
  H  H6  1  0.28235200  0.61511200  0.52892500  1
  H  H7  1  0.28167300  0.38396900  0.47098800  1
  H  H8  1  0.71826900  0.61684500  0.52541200  1
  H  H9  1  0.84416600  0.38419900  0.47492700  1
  H  H10  1  0.15639700  0.61475700  0.53006100  1
  H  H11  1  0.15544900  0.38535400  0.47007400  1
  H  H12  1  0.84460000  0.61580100  0.52648600  1
  H  H13  1  0.42298200  0.69259200  0.42387900  1
  H  H14  1  0.57727800  0.30702200  0.57634800  1
  H  H15  1  0.57728800  0.69422300  0.57813800  1
  H  H16  1  0.42295500  0.30635000  0.42209300  1
  H  H17  1  0.42168300  0.82886300  0.42177200  1
  H  H18  1  0.57762200  0.17099900  0.57930300  1
  H  H19  1  0.57726300  0.83033200  0.57993600  1
  H  H20  1  0.42171200  0.17014000  0.42142900  1
  H  H21  1  0.60956800  0.93234200  0.50985500  1
  H  H22  1  0.38899700  0.06777800  0.49088700  1
  H  H23  1  0.38886000  0.93248500  0.49125200  1
  H  H24  1  0.60972900  0.06765900  0.50952000  1
  H  H25  1  0.59968100  0.70804000  0.14260100  1
  H  H26  1  0.66797100  0.66835500  0.18311400  1
  H  H27  1  0.59726800  0.28734500  0.85855600  1
  H  H28  1  0.65989500  0.32645200  0.80903400  1
  H  H29  1  0.40178500  0.71040000  0.85858100  1
  H  H30  1  0.33978200  0.67114700  0.80849600  1
  H  H31  1  0.39666900  0.29406000  0.14107800  1
  H  H32  1  0.33290600  0.33476200  0.18754600  1
  H  H33  1  0.83861000  0.55343300  0.34929400  1
  H  H34  1  0.89970300  0.48570500  0.35298800  1
  H  H35  1  0.12964700  0.32068600  0.59635100  1
  H  H36  1  0.05373200  0.31767700  0.55323000  1
  H  H37  1  0.12880500  0.67946300  0.40350800  1
  H  H38  1  0.05284500  0.68161600  0.44648600  1
  H  H39  1  0.83886200  0.44657300  0.65158200  1
  H  H40  1  0.89958600  0.51477700  0.64770500  1
  C  C1  1  0.36711800  0.49953100  0.49975300  1
  C  C2  1  0.63336400  0.50056500  0.49980000  1
  C  C3  1  0.50023300  0.50094800  0.36673300  1
  C  C4  1  0.50013300  0.49916200  0.63341300  1
  C  C5  1  0.53886400  0.55272400  0.25510800  1
  C  C6  1  0.53778500  0.44646900  0.74491500  1
  C  C7  1  0.46213100  0.55139800  0.74492700  1
  C  C8  1  0.46108700  0.44963900  0.25525800  1
  C  C9  1  0.54253100  0.55011300  0.18345600  1
  C  C10  1  0.54104200  0.44827700  0.81656300  1
  C  C11  1  0.45870900  0.54946000  0.81655900  1
  C  C12  1  0.45714600  0.45203700  0.18362500  1
  C  C13  1  0.49984400  0.50093500  0.14657600  1
  C  C14  1  0.49983100  0.49881500  0.85358500  1
  C  C15  1  0.49997700  0.50127700  0.29094500  1
  C  C16  1  0.49989700  0.49885100  0.70922900  1
  C  C17  1  0.50007200  0.49921700  0.93039500  1
  C  C18  1  0.50004700  0.50030200  0.06981100  1
  C  C19  1  0.74509800  0.43524200  0.48639900  1
  C  C20  1  0.25520900  0.56424500  0.51573400  1
  C  C21  1  0.25485400  0.43510500  0.48405800  1
  C  C22  1  0.74523400  0.56540200  0.51384700  1
  C  C23  1  0.81648200  0.43527800  0.48618600  1
  C  C24  1  0.18384100  0.56421600  0.51638000  1
  C  C25  1  0.18348400  0.43564100  0.48353800  1
  C  C26  1  0.81661500  0.56511000  0.51431900  1
  C  C27  1  0.85251000  0.50021000  0.50014800  1
  C  C28  1  0.14771200  0.50001500  0.49992400  1
  C  C29  1  0.70914100  0.50049800  0.49983400  1
  C  C30  1  0.29115500  0.49955500  0.49979100  1
  C  C31  1  0.96427300  0.54300700  0.45215400  1
  C  C32  1  0.03599900  0.45641700  0.54720200  1
  C  C33  1  0.03592800  0.54349200  0.45256100  1
  C  C34  1  0.96433600  0.45736800  0.54800100  1
  C  C35  1  0.07180800  0.50002800  0.49991500  1
  C  C36  1  0.92841900  0.50024100  0.50014500  1
  C  C37  1  0.45705800  0.72348500  0.45810200  1
  C  C38  1  0.54296100  0.27643300  0.54224000  1
  C  C39  1  0.54314100  0.72423200  0.54360100  1
  C  C40  1  0.45688400  0.27606900  0.45674100  1
  C  C41  1  0.45563900  0.80053900  0.45768700  1
  C  C42  1  0.54344700  0.19944700  0.54338300  1
  C  C43  1  0.54317600  0.80127300  0.54439300  1
  C  C44  1  0.45576700  0.19898400  0.45684200  1
  C  C45  1  0.49916700  0.84030800  0.50102700  1
  C  C46  1  0.49955500  0.15979500  0.50030100  1
  C  C47  1  0.56065000  0.96152000  0.50694400  1
  C  C48  1  0.43785800  0.03859400  0.49449300  1
  C  C49  1  0.43779200  0.96156400  0.49454700  1
  C  C50  1  0.56073600  0.03855600  0.50690500  1
  C  C51  1  0.49934300  0.07767100  0.50067200  1
  C  C52  1  0.49917000  0.92243700  0.50086200  1
  C  C53  1  0.59577000  0.59641200  0.14955200  1
  C  C54  1  0.59206400  0.39894300  0.85017300  1
  C  C55  1  0.40769100  0.59886800  0.85018600  1
  C  C56  1  0.40408400  0.40534500  0.14981700  1
  C  C57  1  0.92663000  0.58313900  0.39736400  1
  C  C58  1  0.07403000  0.41522500  0.60096800  1
  C  C59  1  0.07378700  0.58463100  0.39871000  1
  C  C60  1  0.92676400  0.41729400  0.60284900  1
  N  N1  1  0.49927400  0.43506800  0.03485600  1
  N  N2  1  0.50171800  0.56440000  0.96537000  1
  N  N3  1  0.49864500  0.43453000  0.96614400  1
  N  N4  1  0.50105700  0.56496100  0.03406200  1
  N  N5  1  0.49987700  0.68657300  0.50154800  1
  N  N6  1  0.50076300  0.31351200  0.49855500  1
  N  N7  1  0.61407600  0.66712500  0.17844100  1
  N  N8  1  0.60705000  0.32763800  0.82057500  1
  N  N9  1  0.39253700  0.67010700  0.82047900  1
  N  N10  1  0.38626500  0.33452200  0.17872200  1
  N  N11  1  0.89149100  0.54257600  0.34415200  1
  N  N12  1  0.07740900  0.33552000  0.59910300  1
  N  N13  1  0.07667200  0.66430300  0.40052600  1
  N  N14  1  0.89173300  0.45777800  0.65624500  1
  O  O1  1  0.39944800  0.56379200  0.50182400  1
  O  O2  1  0.60105100  0.43634600  0.49603000  1
  O  O3  1  0.60074500  0.56464700  0.50409400  1
  O  O4  1  0.39975200  0.43535300  0.49806200  1
  O  O5  1  0.50376200  0.56490200  0.39963300  1
  O  O6  1  0.49920700  0.43509800  0.60053600  1
  O  O7  1  0.50129000  0.56373600  0.60153200  1
  O  O8  1  0.49696300  0.43645800  0.39863300  1
  O  O9  1  0.62852400  0.57225500  0.10025400  1
  O  O10  1  0.62600800  0.42087000  0.89958000  1
  O  O11  1  0.37395100  0.57707500  0.89978600  1
  O  O12  1  0.37149300  0.42893600  0.10015800  1
  O  O13  1  0.92457800  0.65124900  0.39752300  1
  O  O14  1  0.10556800  0.44937000  0.64575800  1
  O  O15  1  0.10532500  0.55060900  0.35384300  1
  O  O16  1  0.92495500  0.34917400  0.60276500  1
