# generated using pymatgen
data_Cu2H37C45(NO3)3
_symmetry_space_group_name_H-M   'P 1'
_cell_length_a   15.86271900
_cell_length_b   10.92697300
_cell_length_c   14.45530500
_cell_angle_alpha   89.93838000
_cell_angle_beta   89.91115900
_cell_angle_gamma   90.00123900
_symmetry_Int_Tables_number   1
_chemical_formula_structural   Cu2H37C45(NO3)3
_chemical_formula_sum   'Cu2 H37 C45 N3 O9'
_cell_volume   2505.55526899
_cell_formula_units_Z   1
loop_
 _symmetry_equiv_pos_site_id
 _symmetry_equiv_pos_as_xyz
  1  'x, y, z'
loop_
 _atom_site_type_symbol
 _atom_site_label
 _atom_site_symmetry_multiplicity
 _atom_site_fract_x
 _atom_site_fract_y
 _atom_site_fract_z
 _atom_site_occupancy
  Cu  Cu1  1  0.51816900  0.49686200  0.59330100  1
  Cu  Cu2  1  0.51934500  0.50298300  0.40836600  1
  H  H1  1  0.94547100  0.34541400  0.59205200  1
  H  H2  1  0.08720700  0.33683600  0.58102900  1
  H  H3  1  0.08647100  0.49314100  0.35182700  1
  H  H4  1  0.09212000  0.34635000  0.40902700  1
  H  H5  1  0.95038500  0.33761300  0.42001200  1
  H  H6  1  0.94470000  0.47710600  0.35319000  1
  H  H7  1  0.08719800  0.67745500  0.56850700  1
  H  H8  1  0.09219100  0.68538900  0.44381600  1
  H  H9  1  0.94535300  0.68479300  0.55863700  1
  H  H10  1  0.09287400  0.47566200  0.64841700  1
  H  H11  1  0.95110000  0.49163700  0.64984500  1
  H  H12  1  0.95034700  0.67810000  0.43391700  1
  H  H13  1  0.40026400  0.16749900  0.08013600  1
  H  H14  1  0.32014500  0.23319100  0.21706800  1
  H  H15  1  0.37291200  0.18710500  0.37229700  1
  H  H16  1  0.59162200  0.02135700  0.25396200  1
  H  H17  1  0.53622300  0.06249800  0.09905200  1
  H  H18  1  0.51594400  0.87881200  0.35876600  1
  H  H19  1  0.49950400  0.12101700  0.64197700  1
  H  H20  1  0.36164000  0.80791400  0.61057100  1
  H  H21  1  0.29535900  0.75396700  0.75811600  1
  H  H22  1  0.36025100  0.81838100  0.90449600  1
  H  H23  1  0.49395700  0.93217700  0.90282900  1
  H  H24  1  0.56342400  0.98027800  0.75591500  1
  H  H25  1  0.51413800  0.69326600  0.92764600  1
  H  H26  1  0.52952200  0.70105500  0.08061400  1
  H  H27  1  0.40274700  0.41183200  0.08093000  1
  H  H28  1  0.39709500  0.57641800  0.07399200  1
  H  H29  1  0.39507300  0.56137500  0.91866000  1
  H  H30  1  0.40813800  0.39797600  0.92573400  1
  H  H31  1  0.64053700  0.40484300  0.08064400  1
  H  H32  1  0.54779300  0.31053600  0.08302700  1
  H  H33  1  0.64024000  0.39112400  0.92509100  1
  H  H34  1  0.63009400  0.62393100  0.07591500  1
  H  H35  1  0.54440300  0.30494000  0.92836200  1
  H  H36  1  0.68611500  0.82030000  0.86446900  1
  H  H37  1  0.63416700  0.82482900  0.96628600  1
  C  C1  1  0.51627300  0.26389600  0.49598000  1
  C  C2  1  0.35699500  0.50049800  0.50022700  1
  C  C3  1  0.51626200  0.73594400  0.50562800  1
  C  C4  1  0.68057200  0.50039900  0.50142400  1
  C  C5  1  0.06672600  0.43375600  0.58477700  1
  C  C6  1  0.06619200  0.44041700  0.41357600  1
  C  C7  1  0.97085200  0.43457500  0.41665900  1
  C  C8  1  0.77103000  0.50160300  0.50183600  1
  C  C9  1  0.09833800  0.50246600  0.50039300  1
  C  C10  1  0.97138500  0.43953400  0.58788400  1
  C  C11  1  0.93923000  0.50243300  0.50132000  1
  C  C12  1  0.97107800  0.63324000  0.49887600  1
  C  C13  1  0.06647300  0.63323500  0.50336700  1
  C  C14  1  0.84699600  0.50220700  0.50176500  1
  C  C15  1  0.19057200  0.50227400  0.49994600  1
  C  C16  1  0.26653800  0.50168900  0.49986100  1
  C  C17  1  0.38039300  0.18829000  0.22533700  1
  C  C18  1  0.41099300  0.16432500  0.31267400  1
  C  C19  1  0.48760800  0.10568400  0.32382200  1
  C  C20  1  0.53276500  0.07025900  0.24649900  1
  C  C21  1  0.50131000  0.09222200  0.15925600  1
  C  C22  1  0.42503400  0.15090000  0.14863300  1
  C  C23  1  0.51623200  0.93146800  0.42184200  1
  C  C24  1  0.51226000  0.87161400  0.50600700  1
  C  C25  1  0.50104100  0.94224900  0.58539100  1
  C  C26  1  0.50705900  0.06833800  0.57943400  1
  C  C27  1  0.51241200  0.12819200  0.49529000  1
  C  C28  1  0.51047900  0.05743600  0.41509100  1
  C  C29  1  0.39302400  0.83089600  0.67456300  1
  C  C30  1  0.35483200  0.80226500  0.75750800  1
  C  C31  1  0.39094500  0.83889700  0.83948600  1
  C  C32  1  0.46600700  0.90239400  0.83852700  1
  C  C33  1  0.50527000  0.92866900  0.75576100  1
  C  C34  1  0.46901000  0.89309200  0.67316700  1
  C  C35  1  0.56349000  0.62028300  0.05287600  1
  C  C36  1  0.43353500  0.49467700  0.05231300  1
  C  C37  1  0.43466000  0.48717200  0.94782600  1
  C  C38  1  0.52294600  0.50412200  0.08860700  1
  C  C39  1  0.55957600  0.62176700  0.94792100  1
  C  C40  1  0.52453700  0.49937800  0.91316000  1
  C  C41  1  0.57455000  0.39148600  0.95086300  1
  C  C42  1  0.57477900  0.39610600  0.05555600  1
  C  C43  1  0.52211000  0.49597600  0.81166200  1
  C  C44  1  0.52055100  0.50547600  0.18997500  1
  C  C45  1  0.64414900  0.65711900  0.90854700  1
  N  N1  1  0.51977600  0.49412000  0.73159900  1
  N  N2  1  0.51852600  0.50573300  0.27006000  1
  N  N3  1  0.67817500  0.77545300  0.92769500  1
  O  O1  1  0.51420800  0.31963400  0.57637900  1
  O  O2  1  0.52275400  0.32466800  0.41803400  1
  O  O3  1  0.39573000  0.50248500  0.58013600  1
  O  O4  1  0.39673400  0.50519200  0.42079800  1
  O  O5  1  0.51598300  0.67523700  0.58401200  1
  O  O6  1  0.52096400  0.68030200  0.42521400  1
  O  O7  1  0.64074300  0.50005200  0.58063800  1
  O  O8  1  0.64175600  0.50759800  0.42196200  1
  O  O9  1  0.68373300  0.58764700  0.85887200  1
