# generated using pymatgen
data_FeH8C16NO4
_symmetry_space_group_name_H-M   'P 1'
_cell_length_a   14.15210700
_cell_length_b   8.60922200
_cell_length_c   11.17027900
_cell_angle_alpha   90.00000000
_cell_angle_beta   108.92370500
_cell_angle_gamma   90.00000000
_symmetry_Int_Tables_number   1
_chemical_formula_structural   FeH8C16NO4
_chemical_formula_sum   'Fe2 H16 C32 N2 O8'
_cell_volume   1287.41271034
_cell_formula_units_Z   2
loop_
 _symmetry_equiv_pos_site_id
 _symmetry_equiv_pos_as_xyz
  1  'x, y, z'
loop_
 _atom_site_type_symbol
 _atom_site_label
 _atom_site_symmetry_multiplicity
 _atom_site_fract_x
 _atom_site_fract_y
 _atom_site_fract_z
 _atom_site_occupancy
  Fe  Fe1  1  0.89167200  0.00000000  0.94581500  1
  Fe  Fe2  1  0.10832800  0.00000000  0.05418500  1
  H  H1  1  0.41437900  0.00000000  0.66380100  1
  H  H2  1  0.58562100  0.00000000  0.33619900  1
  H  H3  1  0.24352600  0.00000000  0.92742300  1
  H  H4  1  0.75647400  0.00000000  0.07257600  1
  H  H5  1  0.24932500  0.00000000  0.30206000  1
  H  H6  1  0.75067500  0.00000000  0.69794000  1
  H  H7  1  0.56771300  0.00000000  0.62222400  1
  H  H8  1  0.43228700  0.00000000  0.37777500  1
  H  H9  1  0.32045200  0.00000000  0.80315700  1
  H  H10  1  0.67954800  0.00000000  0.19684200  1
  H  H11  1  0.00696100  0.24899600  0.41154700  1
  H  H12  1  0.99303900  0.75100400  0.58845300  1
  H  H13  1  0.99303900  0.24899600  0.58845300  1
  H  H14  1  0.00696100  0.75100400  0.41154700  1
  H  H15  1  0.96402000  0.50000000  0.07581300  1
  H  H16  1  0.03598000  0.50000000  0.92418600  1
  C  C1  1  0.01024100  0.22047700  0.83003600  1
  C  C2  1  0.98975900  0.77952300  0.16996400  1
  C  C3  1  0.98975900  0.22047700  0.16996400  1
  C  C4  1  0.01024100  0.77952300  0.83003600  1
  C  C5  1  0.60753200  0.00000000  0.72277200  1
  C  C6  1  0.39246900  0.00000000  0.27722800  1
  C  C7  1  0.71012300  0.00000000  0.76495600  1
  C  C8  1  0.28987700  0.00000000  0.23504400  1
  C  C9  1  0.71083200  0.00000000  0.97510400  1
  C  C10  1  0.28916800  0.00000000  0.02489500  1
  C  C11  1  0.60668100  0.00000000  0.93698500  1
  C  C12  1  0.39331900  0.00000000  0.06301500  1
  C  C13  1  0.55598400  0.00000000  0.80852900  1
  C  C14  1  0.44401600  0.00000000  0.19147100  1
  C  C15  1  0.55228700  0.00000000  0.02273100  1
  C  C16  1  0.44771300  0.00000000  0.97726900  1
  C  C17  1  0.39997400  0.00000000  0.84688800  1
  C  C18  1  0.60002600  0.00000000  0.15311100  1
  C  C19  1  0.45369800  0.00000000  0.76448000  1
  C  C20  1  0.54630200  0.00000000  0.23552000  1
  C  C21  1  0.98551700  0.36225900  0.23967300  1
  C  C22  1  0.01448400  0.63774100  0.76032700  1
  C  C23  1  0.01448400  0.36225900  0.76032700  1
  C  C24  1  0.98551700  0.63774100  0.23967300  1
  C  C25  1  0.99764300  0.36106300  0.36716900  1
  C  C26  1  0.00235800  0.63893700  0.63283100  1
  C  C27  1  0.00235800  0.36106300  0.63283100  1
  C  C28  1  0.99764300  0.63893700  0.36716900  1
  C  C29  1  0.99773500  0.50000000  0.43212900  1
  C  C30  1  0.00226500  0.50000000  0.56787000  1
  C  C31  1  0.97418600  0.50000000  0.17560700  1
  C  C32  1  0.02581400  0.50000000  0.82439300  1
  N  N1  1  0.75975300  0.00000000  0.88971900  1
  N  N2  1  0.24024700  0.00000000  0.11028100  1
  O  O1  1  0.09108500  0.17467700  0.91922400  1
  O  O2  1  0.90891600  0.82532300  0.08077500  1
  O  O3  1  0.90891600  0.17467700  0.08077500  1
  O  O4  1  0.09108500  0.82532300  0.91922400  1
  O  O5  1  0.92281100  0.16197700  0.82243200  1
  O  O6  1  0.07718900  0.83802300  0.17756800  1
  O  O7  1  0.07718900  0.16197700  0.17756800  1
  O  O8  1  0.92281100  0.83802300  0.82243200  1
