# generated using pymatgen
data_ZnH8C15NO5
_symmetry_space_group_name_H-M   'P 1'
_cell_length_a   8.52823600
_cell_length_b   15.10639600
_cell_length_c   9.14438700
_cell_angle_alpha   90.97078100
_cell_angle_beta   90.08121000
_cell_angle_gamma   90.01740300
_symmetry_Int_Tables_number   1
_chemical_formula_structural   ZnH8C15NO5
_chemical_formula_sum   'Zn2 H16 C30 N2 O10'
_cell_volume   1177.90935862
_cell_formula_units_Z   2
loop_
 _symmetry_equiv_pos_site_id
 _symmetry_equiv_pos_as_xyz
  1  'x, y, z'
loop_
 _atom_site_type_symbol
 _atom_site_label
 _atom_site_symmetry_multiplicity
 _atom_site_fract_x
 _atom_site_fract_y
 _atom_site_fract_z
 _atom_site_occupancy
  Zn  Zn1  1  0.49936800  0.50475300  0.83731600  1
  Zn  Zn2  1  0.50063200  0.49524700  0.16268500  1
  H  H1  1  0.99665200  0.56304600  0.05918400  1
  H  H2  1  0.00334800  0.43695400  0.94081600  1
  H  H3  1  0.75058200  0.80154300  0.98438800  1
  H  H4  1  0.24941900  0.19845700  0.01561200  1
  H  H5  1  0.82484500  0.91994500  0.82929200  1
  H  H6  1  0.17515500  0.08005500  0.17070800  1
  H  H7  1  0.82453700  0.08163900  0.83736600  1
  H  H8  1  0.17546300  0.91836100  0.16263400  1
  H  H9  1  0.27810300  0.42095900  0.41021600  1
  H  H10  1  0.72189700  0.57904100  0.58978500  1
  H  H11  1  0.27549700  0.57779400  0.58637800  1
  H  H12  1  0.72450300  0.42220600  0.41362200  1
  H  H13  1  0.49980000  0.63915700  0.38467400  1
  H  H14  1  0.50020000  0.36084300  0.61532700  1
  H  H15  1  0.29306000  0.87458900  0.91449200  1
  H  H16  1  0.70694000  0.12541100  0.08550800  1
  C  C1  1  0.13908500  0.67467500  0.01753000  1
  C  C2  1  0.86091500  0.32532500  0.98247100  1
  C  C3  1  0.14249900  0.76480600  0.99306600  1
  C  C4  1  0.85750200  0.23519400  0.00693400  1
  C  C5  1  0.00198700  0.81142300  0.99068600  1
  C  C6  1  0.99801300  0.18857700  0.00931400  1
  C  C7  1  0.86027700  0.76619800  0.99286800  1
  C  C8  1  0.13972400  0.23380200  0.00713300  1
  C  C9  1  0.85914300  0.67613200  0.01558700  1
  C  C10  1  0.14085700  0.32386800  0.98441300  1
  C  C11  1  0.99814500  0.63272900  0.03727500  1
  C  C12  1  0.00185500  0.36727000  0.96272500  1
  C  C13  1  0.90103400  0.95474500  0.90531900  1
  C  C14  1  0.09896600  0.04525500  0.09468100  1
  C  C15  1  0.90007700  0.04602700  0.91091100  1
  C  C16  1  0.09992300  0.95397300  0.08908900  1
  C  C17  1  0.99762700  0.09161500  0.00685000  1
  C  C18  1  0.00237400  0.90838500  0.99315000  1
  C  C19  1  0.71602100  0.62275700  0.01056200  1
  C  C20  1  0.28397900  0.37724300  0.98943900  1
  C  C21  1  0.72132700  0.38095400  0.98897000  1
  C  C22  1  0.27867300  0.61904600  0.01103000  1
  C  C23  1  0.37964600  0.54119900  0.54530900  1
  C  C24  1  0.62035400  0.45880100  0.45469100  1
  C  C25  1  0.38103800  0.45816200  0.45284200  1
  C  C26  1  0.61896300  0.54183800  0.54715900  1
  C  C27  1  0.49984300  0.57427800  0.43963500  1
  C  C28  1  0.50015700  0.42572200  0.56036500  1
  C  C29  1  0.29195300  0.81014300  0.96465100  1
  C  C30  1  0.70804700  0.18985700  0.03535000  1
  N  N1  1  0.50119000  0.49151500  0.35451700  1
  N  N2  1  0.49881100  0.50848500  0.64548400  1
  O  O1  1  0.66797400  0.58738900  0.13270100  1
  O  O2  1  0.33202600  0.41261000  0.86729900  1
  O  O3  1  0.66096100  0.59892500  0.88151100  1
  O  O4  1  0.33903900  0.40107500  0.11848900  1
  O  O5  1  0.67096900  0.41518200  0.86688700  1
  O  O6  1  0.32903100  0.58481800  0.13311300  1
  O  O7  1  0.66612300  0.40351400  0.11824000  1
  O  O8  1  0.33387700  0.59648600  0.88176000  1
  O  O9  1  0.41664400  0.77505400  0.99352800  1
  O  O10  1  0.58335700  0.22494600  0.00647300  1
