# generated using pymatgen
data_V2H17C31O13
_symmetry_space_group_name_H-M   'P 1'
_cell_length_a   6.32569300
_cell_length_b   16.34784500
_cell_length_c   18.75952000
_cell_angle_alpha   110.03818100
_cell_angle_beta   90.73261300
_cell_angle_gamma   90.82147800
_symmetry_Int_Tables_number   1
_chemical_formula_structural   V2H17C31O13
_chemical_formula_sum   'V4 H34 C62 O26'
_cell_volume   1822.00254326
_cell_formula_units_Z   2
loop_
 _symmetry_equiv_pos_site_id
 _symmetry_equiv_pos_as_xyz
  1  'x, y, z'
loop_
 _atom_site_type_symbol
 _atom_site_label
 _atom_site_symmetry_multiplicity
 _atom_site_fract_x
 _atom_site_fract_y
 _atom_site_fract_z
 _atom_site_occupancy
  V  V1  1  0.06626800  0.49033300  0.49569400  1
  V  V2  1  0.56715900  0.51122500  0.49987500  1
  V  V3  1  0.68050500  0.01162100  0.99927400  1
  V  V4  1  0.17954700  0.99055900  0.99567800  1
  H  H1  1  0.63671200  0.95090100  0.20304200  1
  H  H2  1  0.13636900  0.80335100  0.07764500  1
  H  H3  1  0.27257900  0.59553200  0.19908800  1
  H  H4  1  0.12009200  0.56189300  0.30023200  1
  H  H5  1  0.48219900  0.83161900  0.38850600  1
  H  H6  1  0.49243000  0.91916500  0.30622900  1
  H  H7  1  0.83020000  0.79471100  0.63907800  1
  H  H8  1  0.55655800  0.83627800  0.76392400  1
  H  H9  1  0.56707400  0.66033300  0.75535400  1
  H  H10  1  0.91405900  0.70368100  0.85841200  1
  H  H11  1  0.18766000  0.66212300  0.73352600  1
  H  H12  1  0.17706200  0.83801100  0.74207700  1
  H  H13  1  0.31674800  0.12046100  0.27562000  1
  H  H14  1  0.72622200  0.24889100  0.19379200  1
  H  H15  1  0.43279000  0.38552200  0.21754000  1
  H  H16  1  0.11214600  0.25985100  0.15326000  1
  H  H17  1  0.02316400  0.25657100  0.29904700  1
  H  H18  1  0.66815000  0.06393000  0.79409200  1
  H  H19  1  0.13119700  0.19088800  0.91489900  1
  H  H20  1  0.96368800  0.30218600  0.88008400  1
  H  H21  1  0.94559900  0.39299400  0.79935600  1
  H  H22  1  0.07966800  0.43320300  0.69758800  1
  H  H23  1  0.61645400  0.30647300  0.57650200  1
  H  H24  1  0.78344200  0.19460000  0.61106900  1
  H  H25  1  0.80161800  0.10381300  0.69182200  1
  H  H26  1  0.79315800  0.11414100  0.44576600  1
  H  H27  1  0.79666000  0.23196900  0.48509700  1
  H  H28  1  0.97977700  0.17655700  0.41156700  1
  H  H29  1  0.69333500  0.52627000  0.04131600  1
  H  H30  1  0.73508500  0.64138500  0.05877200  1
  H  H31  1  0.55111200  0.57857000  0.98486700  1
  H  H32  1  0.06931700  0.77078100  0.45928400  1
  H  H33  1  0.27938400  0.81326200  0.52936300  1
  H  H34  1  0.20176900  0.69929600  0.50013000  1
  C  C1  1  0.35482200  0.39701800  0.37812400  1
  C  C2  1  0.32721200  0.42856600  0.58388600  1
  C  C3  1  0.83395700  0.60567200  0.61718900  1
  C  C4  1  0.86441600  0.57466900  0.41282200  1
  C  C5  1  0.74769400  0.89880400  0.19406500  1
  C  C6  1  0.88991000  0.88186300  0.13628800  1
  C  C7  1  0.03132400  0.81536200  0.12451900  1
  C  C8  1  0.03145500  0.76498700  0.17090200  1
  C  C9  1  0.88410300  0.78137400  0.22803800  1
  C  C10  1  0.74417400  0.84850100  0.23960500  1
  C  C11  1  0.17345200  0.69779600  0.16087500  1
  C  C12  1  0.16234900  0.64765200  0.20674900  1
  C  C13  1  0.01525100  0.66417700  0.26307200  1
  C  C14  1  0.87586500  0.73087800  0.27387500  1
  C  C15  1  0.72916100  0.74736700  0.33083700  1
  C  C16  1  0.59302100  0.81580900  0.34279300  1
  C  C17  1  0.59990800  0.86584200  0.29695800  1
  C  C18  1  0.00986500  0.61422500  0.30906500  1
  C  C19  1  0.86515800  0.63051200  0.36634100  1
  C  C20  1  0.72318000  0.69745300  0.37737300  1
  C  C21  1  0.69941500  0.79581800  0.75616000  1
  C  C22  1  0.84920500  0.77508800  0.68979300  1
  C  C23  1  0.85584800  0.68230700  0.68804800  1
  C  C24  1  0.70560500  0.70172600  0.75323000  1
  C  C25  1  0.89501700  0.72331000  0.80770100  1
  C  C26  1  0.04478900  0.70257500  0.74130200  1
  C  C27  1  0.03854000  0.79661500  0.74420400  1
  C  C28  1  0.88837700  0.81608000  0.80940800  1
  C  C29  1  0.51487600  0.24838500  0.29528200  1
  C  C30  1  0.34042400  0.18128000  0.26278400  1
  C  C31  1  0.38852400  0.18605800  0.18558000  1
  C  C32  1  0.56603900  0.25166700  0.21775000  1
  C  C33  1  0.40770000  0.32451200  0.22995700  1
  C  C34  1  0.23076200  0.25759500  0.19655600  1
  C  C35  1  0.18277100  0.25420200  0.27484900  1
  C  C36  1  0.35946400  0.31999400  0.30721700  1
  C  C37  1  0.54491800  0.11127400  0.80245700  1
  C  C38  1  0.40047800  0.12164600  0.85923700  1
  C  C39  1  0.24394500  0.18236100  0.87022200  1
  C  C40  1  0.23312300  0.23298900  0.82464900  1
  C  C41  1  0.37852200  0.22286700  0.76816000  1
  C  C42  1  0.53407800  0.16182700  0.75695000  1
  C  C43  1  0.07761700  0.29414400  0.83584700  1
  C  C44  1  0.06761100  0.34508900  0.79063100  1
  C  C45  1  0.21323400  0.33498700  0.73430100  1
  C  C46  1  0.36872900  0.27393000  0.72300500  1
  C  C47  1  0.51412500  0.26389300  0.66651300  1
  C  C48  1  0.66949000  0.20264900  0.65529500  1
  C  C49  1  0.67954800  0.15169400  0.70054300  1
  C  C50  1  0.20266100  0.38573000  0.68902100  1
  C  C51  1  0.34714300  0.37565700  0.63233700  1
  C  C52  1  0.50352600  0.31478800  0.62108900  1
  C  C53  1  0.41994300  0.06985800  0.90863900  1
  C  C54  1  0.39266900  0.10793000  0.11554800  1
  C  C55  1  0.88548700  0.93320500  0.08631400  1
  C  C56  1  0.91219500  0.89336500  0.87967600  1
  C  C57  1  0.67283600  0.24545000  0.35384800  1
  C  C58  1  0.81757400  0.17486600  0.43283100  1
  C  C59  1  0.34059700  0.67752300  0.10414800  1
  C  C60  1  0.61663900  0.58716200  0.04215200  1
  C  C61  1  0.56656200  0.71651500  0.43766300  1
  C  C62  1  0.22268700  0.75594300  0.48097500  1
  O  O1  1  0.44310600  0.41222600  0.52346600  1
  O  O2  1  0.23786500  0.39124400  0.43479400  1
  O  O3  1  0.02513800  0.52153400  0.40412800  1
  O  O4  1  0.15640500  0.47350800  0.59075100  1
  O  O5  1  0.95151400  0.60274600  0.55958600  1
  O  O6  1  0.52255600  0.44926400  0.39049400  1
  O  O7  1  0.34386400  0.56711200  0.50910700  1
  O  O8  1  0.66011000  0.55944900  0.60731200  1
  O  O9  1  0.74657300  0.59713000  0.47434600  1
  O  O10  1  0.83819500  0.43405300  0.48376200  1
  O  O11  1  0.22459300  0.05605900  0.10441400  1
  O  O12  1  0.59046200  0.02490100  0.90276200  1
  O  O13  1  0.79517200  0.89811000  0.93784400  1
  O  O14  1  0.50912900  0.11186800  0.05812800  1
  O  O15  1  0.72143300  0.98414100  0.09267600  1
  O  O16  1  0.30394100  0.08791200  0.96913500  1
  O  O17  1  0.40295200  0.93523100  0.98776000  1
  O  O18  1  0.00003200  0.90667200  0.02390200  1
  O  O19  1  0.08640000  0.93913200  0.88845500  1
  O  O20  1  0.90869000  0.06759900  0.00983000  1
  O  O21  1  0.80029600  0.30526900  0.38004300  1
  O  O22  1  0.67318500  0.17725900  0.37855700  1
  O  O23  1  0.38210000  0.72581800  0.06902200  1
  O  O24  1  0.45651800  0.60602200  0.09343100  1
  O  O25  1  0.61663600  0.71663500  0.50061900  1
  O  O26  1  0.36794900  0.73679600  0.42432600  1
