data_DB0-m3_o21_o23_f0_pcu.sym.127_repeat
_audit_creation_date              2024-02-23
_audit_creation_method            'Materials Studio'
_symmetry_space_group_name_H-M    'P1'
_symmetry_Int_Tables_number       1
_symmetry_cell_setting            triclinic
loop_
_symmetry_equiv_pos_as_xyz
  x,y,z
_cell_length_a                    12.9783
_cell_length_b                    14.0919
_cell_length_c                    15.9567
_cell_angle_alpha                 90.0045
_cell_angle_beta                  93.5399
_cell_angle_gamma                 88.9079
loop_
_atom_site_label
_atom_site_type_symbol
_atom_site_fract_x
_atom_site_fract_y
_atom_site_fract_z
_atom_site_U_iso_or_equiv
_atom_site_adp_type
_atom_site_occupancy
O1     O     0.40252   0.60179   0.47229   0.00000  Uiso   1.00
O2     O     0.58045   0.61152   0.48017   0.00000  Uiso   1.00
C1     C     0.48776   0.65063   0.47516   0.00000  Uiso   1.00
O3     O     0.41643   0.46360   0.60036   0.00000  Uiso   1.00
O4     O     0.59435   0.47336   0.60823   0.00000  Uiso   1.00
C2     C     0.50567   0.46926   0.64321   0.00000  Uiso   1.00
Zn1    Zn    0.38689   0.45902   0.47427   0.00000  Uiso   1.00
Zn2    Zn    0.62142   0.47209   0.48453   0.00000  Uiso   1.00
O5     O     0.42784   0.31957   0.47867   0.00000  Uiso   1.00
O6     O     0.60581   0.32934   0.48654   0.00000  Uiso   1.00
O7     O     0.41396   0.45774   0.35056   0.00000  Uiso   1.00
O8     O     0.59192   0.46751   0.35845   0.00000  Uiso   1.00
C3     C     0.52058   0.28049   0.48368   0.00000  Uiso   1.00
C4     C     0.50270   0.46179   0.31560   0.00000  Uiso   1.00
C5     C     0.40323   0.50692   0.92720   0.00000  Uiso   1.00
C6     C     0.59703   0.52107   0.93905   0.00000  Uiso   1.00
C7     C     0.58408   0.53281   0.03233   0.00000  Uiso   1.00
H1     H     0.37645   0.56564   0.04884   0.00000  Uiso   1.00
H2     H     0.39275   0.58246   0.90911   0.00000  Uiso   1.00
H3     H     0.66738   0.47728   0.93082   0.00000  Uiso   1.00
H4     H     0.55860   0.60620   0.04688   0.00000  Uiso   1.00
H5     H     0.65886   0.51718   0.06751   0.00000  Uiso   1.00
C8     C     0.50227   0.46163   0.22565   0.00000  Uiso   1.00
C9     C     0.50566   0.46659   0.90036   0.00000  Uiso   1.00
C10    C     0.39855   0.49647   0.02132   0.00000  Uiso   1.00
C11    C     0.50349   0.46402   0.05854   0.00000  Uiso   1.00
C12    C     0.52819   0.36524   0.02636   0.00000  Uiso   1.00
C13    C     0.51613   0.36491   0.93119   0.00000  Uiso   1.00
C14    C     0.50262   0.46234   0.15016   0.00000  Uiso   1.00
C15    C     0.50645   0.46834   0.80870   0.00000  Uiso   1.00
C16    C     0.50637   0.46919   0.73318   0.00000  Uiso   1.00
H6     H     0.44619   0.32522   0.91029   0.00000  Uiso   1.00
H7     H     0.58453   0.32966   0.90556   0.00000  Uiso   1.00
H8     H     0.47481   0.31340   0.05160   0.00000  Uiso   1.00
H9     H     0.33920   0.46683   0.89572   0.00000  Uiso   1.00
H10    H     0.34008   0.44324   0.03516   0.00000  Uiso   1.00
H11    H     0.60866   0.34477   0.04721   0.00000  Uiso   1.00
C17    C     0.52918   0.17892   0.48803   0.00000  Uiso   1.00
C18    C     0.54483   0.99172   0.49801   0.00000  Uiso   1.00
C19    C     0.46840   0.93968   0.46420   0.00000  Uiso   1.00
C20    C     0.47397   0.83767   0.46837   0.00000  Uiso   1.00
C21    C     0.53638   0.09363   0.49247   0.00000  Uiso   1.00
C22    C     0.47953   0.75227   0.47166   0.00000  Uiso   1.00
H12    H     0.40065   0.97453   0.43422   0.00000  Uiso   1.00
N1     N     0.23299   0.45003   0.46781   0.00000  Uiso   1.00
C23    C     0.03333   0.43668   0.46247   0.00000  Uiso   1.00
C24    C     0.97450   0.49866   0.50213   0.00000  Uiso   1.00
C25    C     0.86410   0.48865   0.49571   0.00000  Uiso   1.00
C26    C     0.14404   0.44414   0.46531   0.00000  Uiso   1.00
N2     N     0.77531   0.48115   0.49106   0.00000  Uiso   1.00
H13    H     0.99710   0.37854   0.42815   0.00000  Uiso   1.00
N3     N     0.63473   0.94684   0.53579   0.00000  Uiso   1.00
C27    C     0.70424   0.00946   0.57772   0.00000  Uiso   1.00
C28    C     0.80199   0.02026   0.54977   0.00000  Uiso   1.00
C29    C     0.87119   0.07878   0.59238   0.00000  Uiso   1.00
C30    C     0.84357   0.12563   0.66368   0.00000  Uiso   1.00
C31    C     0.74689   0.11347   0.69277   0.00000  Uiso   1.00
C32    C     0.67755   0.05505   0.65023   0.00000  Uiso   1.00
H14    H     0.66956   0.90102   0.49550   0.00000  Uiso   1.00
H15    H     0.82467   0.98366   0.49408   0.00000  Uiso   1.00
H16    H     0.94732   0.08774   0.56996   0.00000  Uiso   1.00
H17    H     0.89796   0.17134   0.69710   0.00000  Uiso   1.00
H18    H     0.72558   0.14942   0.74917   0.00000  Uiso   1.00
H19    H     0.60232   0.04481   0.67401   0.00000  Uiso   1.00
N4     N     0.01815   0.57776   0.54506   0.00000  Uiso   1.00
C33    C     0.05374   0.55874   0.62922   0.00000  Uiso   1.00
C34    C     0.14646   0.59568   0.66019   0.00000  Uiso   1.00
C35    C     0.18151   0.57935   0.74235   0.00000  Uiso   1.00
C36    C     0.12384   0.52674   0.79436   0.00000  Uiso   1.00
C37    C     0.03102   0.49046   0.76421   0.00000  Uiso   1.00
C38    C     0.99575   0.50638   0.68204   0.00000  Uiso   1.00
H20    H     0.07251   0.61132   0.51203   0.00000  Uiso   1.00
H21    H     0.19251   0.63755   0.62041   0.00000  Uiso   1.00
H22    H     0.25419   0.60818   0.76606   0.00000  Uiso   1.00
H23    H     0.15092   0.51452   0.85893   0.00000  Uiso   1.00
H24    H     0.98527   0.45000   0.80530   0.00000  Uiso   1.00
H25    H     0.92160   0.47873   0.66109   0.00000  Uiso   1.00
N5     N     0.60620   0.61219   0.89875   0.00000  Uiso   1.00
C39    C     0.69972   0.65844   0.92134   0.00000  Uiso   1.00
C40    C     0.69739   0.74573   0.96086   0.00000  Uiso   1.00
C41    C     0.78799   0.79215   0.98165   0.00000  Uiso   1.00
C42    C     0.88126   0.75230   0.96216   0.00000  Uiso   1.00
C43    C     0.88390   0.66630   0.92123   0.00000  Uiso   1.00
C44    C     0.79346   0.61964   0.90043   0.00000  Uiso   1.00
H26    H     0.54316   0.65621   0.90507   0.00000  Uiso   1.00
H27    H     0.62487   0.77799   0.97661   0.00000  Uiso   1.00
H28    H     0.78581   0.85998   0.01319   0.00000  Uiso   1.00
H29    H     0.95220   0.78885   0.97834   0.00000  Uiso   1.00
H30    H     0.95696   0.63563   0.90494   0.00000  Uiso   1.00
H31    H     0.79673   0.55341   0.86647   0.00000  Uiso   1.00
