# Generated by REPEAT Assigner based on pymatgen
data_DB0-m3_o8_o9_f0_pcu.sym.62_sqe
_audit_creation_date              2022-05-24
_audit_creation_method            REPEAT_Assigner
_cell_length_a                    10.976188
_cell_length_b                    15.912588
_cell_length_c                    17.092330
_cell_angle_alpha                 89.119250
_cell_angle_beta                  89.992990
_cell_angle_gamma                 92.788877
_cell_volume                      2981.449684
_symmetry_space_group_name_H-M    P1
_symmetry_Int_Tables_number       1
loop_
    _symmetry_equiv_pos_site_id
    _symmetry_equiv_pos_as_xyz
    1  x,y,z
loop_
    _atom_site_type_symbol
    _atom_site_label
    _atom_site_fract_x
    _atom_site_fract_y
    _atom_site_fract_z
    _atom_type_partial_charge
    O   O1   0.510008  0.413615  0.614806  -0.657111
    O   O2   0.510735  0.581103  0.390646  -0.664475
    O   O3   0.518619  0.558279  0.623138  -0.757237
    O   O4   0.502159  0.436546  0.382481  -0.754899
    C   C1   0.515011  0.482945  0.655590  0.786003
    C   C2   0.505398  0.511678  0.349863  0.869161
    O   O5   0.687385  0.425084  0.495527  -0.702904
    O   O6   0.333355  0.569648  0.510062  -0.711501
    O   O7   0.696328  0.569698  0.503617  -0.635783
    O   O8   0.324511  0.425079  0.502088  -0.624568
    C   C3   0.749254  0.497886  0.497547  0.764824
    C   C4   0.271506  0.496806  0.507956  0.787438
    Zn  Zn1  0.504149  0.402009  0.496958  1.065877
    Zn  Zn2  0.516617  0.592757  0.508567  1.056340
    H   H1   0.792955  0.836179  0.324828  0.078815
    H   H2   0.224434  0.152809  0.671617  0.101372
    C   C5   0.800124  0.702316  0.325732  -0.191142
    C   C6   0.215483  0.286416  0.675577  -0.183770
    H   H3   0.749200  0.695063  0.272020  0.137130
    H   H4   0.263246  0.291332  0.730695  0.134775
    C   C7   0.841070  0.632411  0.364302  -0.003745
    C   C8   0.175752  0.357756  0.638712  0.010299
    H   H5   0.822739  0.570714  0.340108  0.051000
    H   H6   0.191960  0.418394  0.665464  0.057359
    C   C9   0.907198  0.641396  0.432706  0.018673
    C   C10  0.113250  0.351441  0.568705  0.015257
    C   C11  0.934199  0.720954  0.461174  -0.063334
    C   C12  0.089014  0.273215  0.536691  -0.094880
    H   H7   0.987452  0.728867  0.513982  0.070747
    H   H8   0.038595  0.267514  0.482546  0.072989
    C   C13  0.892324  0.790737  0.422833  -0.140943
    C   C14  0.129888  0.202068  0.573235  -0.087001
    H   H9   0.912807  0.852818  0.445634  0.097064
    H   H10  0.111541  0.141031  0.547689  0.083393
    C   C15  0.825138  0.781431  0.355157  -0.084769
    C   C16  0.193186  0.208657  0.642660  -0.137644
    C   C17  0.081840  0.566286  0.479081  -0.135936
    C   C18  0.938965  0.427874  0.524646  -0.167954
    H   H11  0.137319  0.619657  0.457558  0.094731
    H   H12  0.883694  0.374321  0.545997  0.100706
    C   C19  0.137125  0.496251  0.508256  -0.137243
    C   C20  0.883624  0.498110  0.496049  -0.067650
    C   C21  0.064147  0.426241  0.531587  0.108421
    C   C22  0.956629  0.567664  0.471593  0.089903
    C   C23  0.511544  0.476256  0.741328  0.017133
    C   C24  0.504071  0.516909  0.263948  -0.181515
    C   C25  0.520157  0.547657  0.785864  -0.144080
    C   C26  0.498273  0.443572  0.221581  -0.032289
    C   C27  0.515414  0.541847  0.866248  -0.071564
    C   C28  0.498545  0.446249  0.141161  -0.253991
    C   C29  0.497632  0.464075  0.904045  0.055879
    C   C30  0.506083  0.522963  0.101621  0.228720
    C   C31  0.483198  0.391667  0.858537  0.258012
    C   C32  0.512674  0.596709  0.143350  0.215665
    C   C33  0.494157  0.398921  0.778169  -0.292364
    C   C34  0.510289  0.593728  0.224734  -0.126885
    N   N1   0.496385  0.458721  0.986998  0.019498
    N   N2   0.507458  0.528498  0.018822  -0.260672
    H   H13  0.493452  0.382654  0.250482  0.103086
    H   H14  0.531714  0.609234  0.758667  0.127243
    H   H15  0.493806  0.386794  0.111577  0.101917
    H   H16  0.525562  0.600446  0.897254  0.062274
    H   H17  0.484587  0.342292  0.744226  0.141576
    H   H18  0.514394  0.650605  0.258377  0.069714
    N   N3   0.526062  0.718129  0.517413  -0.126798
    N   N4   0.494615  0.276662  0.487993  -0.162893
    C   C35  0.457988  0.762437  0.467538  -0.037287
    C   C36  0.567688  0.232893  0.535177  -0.033298
    C   C37  0.461814  0.849135  0.468677  -0.215686
    C   C38  0.565614  0.146232  0.533638  -0.200445
    C   C39  0.537050  0.891103  0.521742  0.427934
    C   C40  0.487591  0.103790  0.482562  0.434356
    C   C41  0.605605  0.844945  0.572417  -0.317274
    C   C42  0.414385  0.149359  0.434358  -0.396714
    C   C43  0.599541  0.757580  0.570269  0.287262
    C   C44  0.417569  0.236697  0.437393  0.408865
    N   N5   0.546062  0.979957  0.526125  -0.195508
    N   N6   0.479327  0.014947  0.478130  -0.153800
    H   H19  0.628607  0.265958  0.575162  0.176937
    H   H20  0.399684  0.729807  0.425775  0.177046
    H   H21  0.625914  0.114330  0.572905  0.075784
    H   H22  0.405408  0.881411  0.427241  0.071314
    H   H23  0.663233  0.879657  0.613022  0.098216
    H   H24  0.354939  0.113947  0.395322  0.092105
    O   O9   0.665678  0.711172  0.620203  -0.030467
    C   C45  0.742002  0.745542  0.676427  -0.056250
    C   C46  0.798331  0.677564  0.722907  0.109606
    C   C47  0.869199  0.620923  0.686013  -0.136113
    C   C48  0.923380  0.558735  0.728734  -0.099117
    C   C49  0.907323  0.553286  0.808646  -0.147812
    C   C50  0.837484  0.610274  0.845843  -0.029341
    C   C51  0.783254  0.672494  0.803158  -0.175964
    H   H25  0.689292  0.784379  0.716338  0.061940
    H   H26  0.816097  0.784940  0.648011  0.065831
    H   H27  0.883009  0.625612  0.623610  0.106732
    H   H28  0.978821  0.514420  0.699593  0.103631
    H   H29  0.949894  0.504592  0.842163  0.104059
    H   H30  0.825311  0.606260  0.908572  0.094853
    H   H31  0.729052  0.716910  0.833163  0.101464
    O   O10  0.344633  0.282271  0.390773  -0.149926
    C   C52  0.265768  0.246176  0.336725  0.030829
    C   C53  0.195933  0.310132  0.292868  0.099866
    C   C54  0.206351  0.395062  0.309083  -0.081351
    C   C55  0.139515  0.451329  0.266937  -0.064692
    C   C56  0.061891  0.423270  0.208568  -0.134262
    C   C57  0.050908  0.338741  0.192363  -0.091669
    C   C58  0.117633  0.282442  0.234437  -0.202361
    H   H32  0.198679  0.202489  0.366930  0.076494
    H   H33  0.318495  0.211365  0.293493  0.072855
    H   H34  0.265755  0.418841  0.354435  0.094619
    H   H35  0.147999  0.517654  0.279808  0.071089
    H   H36  0.009596  0.467488  0.175639  0.106156
    H   H37  0.989931  0.316529  0.146665  0.107496
    H   H38  0.108511  0.216156  0.221453  0.098460
    O   O11  0.456014  0.313153  0.887531  -0.287628
    C   C59  0.423595  0.290145  0.962743  0.163319
    C   C60  0.375060  0.200805  0.966295  0.207897
    C   C61  0.363543  0.151882  0.900060  -0.269626
    C   C62  0.314387  0.070585  0.905999  -0.017434
    C   C63  0.276694  0.037762  0.977552  -0.150915
    C   C64  0.288727  0.086063  0.043518  -0.024070
    C   C65  0.337670  0.167340  0.037834  -0.275080
    H   H39  0.349952  0.329742  0.983295  0.013284
    H   H40  0.504680  0.296294  0.001242  0.000843
    H   H41  0.391315  0.175729  0.842957  0.133813
    H   H42  0.304957  0.032592  0.854264  0.086975
    H   H43  0.237676  0.974171  0.981920  0.088767
    H   H44  0.259224  0.060375  0.099684  0.080547
    H   H45  0.345944  0.205226  0.089702  0.125246
    O   O12  0.522178  0.669999  0.102351  -0.298655
    C   C66  0.525995  0.748610  0.134543  0.218304
    C   C67  0.541342  0.812831  0.070533  -0.010305
    C   C68  0.457116  0.814310  0.010641  -0.098382
    C   C69  0.472433  0.871935  0.949954  -0.019757
    C   C70  0.571416  0.928671  0.949298  -0.066417
    C   C71  0.655311  0.927643  0.009261  -0.115244
    C   C72  0.640600  0.869703  0.069765  -0.161517
    H   H46  0.604065  0.755421  0.175403  0.016581
    H   H47  0.439461  0.758156  0.166012  0.011792
    H   H48  0.379296  0.769966  0.010831  0.090095
    H   H49  0.406741  0.872615  0.902865  0.064988
    H   H50  0.583311  0.973903  0.901746  0.075936
    H   H51  0.733008  0.972084  0.008694  0.101676
    H   H52  0.707507  0.869237  0.116152  0.113052
