# generated using pymatgen
data_ZnH18C29(NO2)2
_symmetry_space_group_name_H-M   'P 1'
_cell_length_a   15.43775300
_cell_length_b   11.66918500
_cell_length_c   9.41010000
_cell_angle_alpha   90.15913700
_cell_angle_beta   89.99687000
_cell_angle_gamma   90.00000000
_symmetry_Int_Tables_number   1
_chemical_formula_structural   ZnH18C29(NO2)2
_chemical_formula_sum   'Zn2 H36 C58 N4 O8'
_cell_volume   1695.18529338
_cell_formula_units_Z   2
loop_
 _symmetry_equiv_pos_site_id
 _symmetry_equiv_pos_as_xyz
  1  'x, y, z'
loop_
 _atom_site_type_symbol
 _atom_site_label
 _atom_site_symmetry_multiplicity
 _atom_site_fract_x
 _atom_site_fract_y
 _atom_site_fract_z
 _atom_site_occupancy
  Zn  Zn1  1  0.48666600  0.47416700  0.82523900  1
  Zn  Zn2  1  0.48665600  0.47334600  0.14322700  1
  H  H1  1  0.16313700  0.87618400  0.19524400  1
  H  H2  1  0.86587200  0.18538400  0.78869100  1
  H  H3  1  0.26051000  0.67734500  0.76350300  1
  H  H4  1  0.64954800  0.15451500  0.17008900  1
  H  H5  1  0.13357400  0.80033600  0.75804100  1
  H  H6  1  0.77621300  0.02829200  0.16848700  1
  H  H7  1  0.19318500  0.03356800  0.79036900  1
  H  H8  1  0.85966800  0.76754800  0.18179500  1
  H  H9  1  0.23908600  0.30764300  0.18041100  1
  H  H10  1  0.65179700  0.78758500  0.78668600  1
  H  H11  1  0.32281400  0.15624400  0.79125600  1
  H  H12  1  0.73086500  0.64708100  0.18518000  1
  H  H13  1  0.11062400  0.18571700  0.17885300  1
  H  H14  1  0.77950000  0.91256100  0.78812100  1
  H  H15  1  0.98621100  0.76349200  0.97787400  1
  H  H16  1  0.98617500  0.18390200  0.98410300  1
  H  H17  1  0.49199300  0.86382800  0.60912700  1
  H  H18  1  0.50791900  0.08477500  0.36011600  1
  H  H19  1  0.48784900  0.25671800  0.74091400  1
  H  H20  1  0.48812500  0.69076100  0.22753200  1
  H  H21  1  0.50536700  0.08746600  0.61917800  1
  H  H22  1  0.49609300  0.86094300  0.35009800  1
  H  H23  1  0.48927300  0.25091200  0.23334100  1
  H  H24  1  0.48320400  0.69664300  0.73558900  1
  H  H25  1  0.28763500  0.68286300  0.29162100  1
  H  H26  1  0.29317200  0.76517700  0.51516500  1
  H  H27  1  0.30035900  0.93854700  0.66051000  1
  H  H28  1  0.31755200  0.12744500  0.54658800  1
  H  H29  1  0.33690700  0.13986400  0.28910900  1
  H  H30  1  0.33723400  0.96719000  0.14306800  1
  H  H31  1  0.71544600  0.30044000  0.67047600  1
  H  H32  1  0.80369800  0.40091700  0.51691400  1
  H  H33  1  0.93505900  0.51455700  0.48150000  1
  H  H34  1  0.02068100  0.57908400  0.68694900  1
  H  H35  1  0.97375900  0.53061000  0.92906200  1
  H  H36  1  0.84235600  0.41877100  0.96712400  1
  C  C1  1  0.28821200  0.70789000  0.98434300  1
  C  C2  1  0.68519800  0.24163200  0.97872700  1
  C  C3  1  0.06352300  0.91472200  0.97516400  1
  C  C4  1  0.90842400  0.03272700  0.98033700  1
  C  C5  1  0.18851000  0.83526500  0.10081900  1
  C  C6  1  0.81769200  0.17906600  0.87169800  1
  C  C7  1  0.24227200  0.72257000  0.85922600  1
  C  C8  1  0.69628700  0.16135000  0.08501900  1
  C  C9  1  0.26155900  0.76623600  0.10591100  1
  C  C10  1  0.74639600  0.25002800  0.87111900  1
  C  C11  1  0.14380100  0.84908700  0.97582500  1
  C  C12  1  0.82826300  0.09882700  0.97707300  1
  C  C13  1  0.17014500  0.79193700  0.85541800  1
  C  C14  1  0.76712100  0.08904300  0.08327700  1
  C  C15  1  0.29021800  0.23940000  0.98626400  1
  C  C16  1  0.68207300  0.70923700  0.98634800  1
  C  C17  1  0.06394700  0.03318100  0.98146500  1
  C  C18  1  0.90813300  0.91434900  0.98206200  1
  C  C19  1  0.20472700  0.09133800  0.87805200  1
  C  C20  1  0.81320900  0.77363300  0.09619400  1
  C  C21  1  0.23063800  0.24603900  0.09554700  1
  C  C22  1  0.69642000  0.78409300  0.87507300  1
  C  C23  1  0.27674800  0.16203500  0.87716500  1
  C  C24  1  0.74006300  0.70605800  0.09813400  1
  C  C25  1  0.14476600  0.09924100  0.98643200  1
  C  C26  1  0.82737000  0.84875500  0.98588200  1
  C  C27  1  0.15777200  0.17756500  0.09448200  1
  C  C28  1  0.76806700  0.85534500  0.87630100  1
  C  C29  1  0.98589800  0.85611900  0.97845800  1
  C  C30  1  0.98618400  0.09126800  0.98212400  1
  C  C31  1  0.60871200  0.62930400  0.98476000  1
  C  C32  1  0.36440100  0.31825900  0.98430700  1
  C  C33  1  0.61123000  0.32046500  0.98308900  1
  C  C34  1  0.36220500  0.62792300  0.98471500  1
  C  C35  1  0.49176300  0.26839800  0.63005400  1
  C  C36  1  0.48899500  0.67937600  0.33861500  1
  C  C37  1  0.50117200  0.16659200  0.56018500  1
  C  C38  1  0.49278500  0.78165900  0.40889700  1
  C  C39  1  0.50232800  0.16510500  0.41676800  1
  C  C40  1  0.49070700  0.78325100  0.55229500  1
  C  C41  1  0.49322500  0.26529500  0.34378300  1
  C  C42  1  0.48595900  0.68248800  0.62505700  1
  C  C43  1  0.48987700  0.37282000  0.41048700  1
  C  C44  1  0.48592100  0.57487900  0.55813500  1
  C  C45  1  0.48882000  0.37438700  0.56031100  1
  C  C46  1  0.48744800  0.57331500  0.40827200  1
  C  C47  1  0.31137500  0.85430000  0.31862000  1
  C  C48  1  0.30265500  0.84717200  0.46435400  1
  C  C49  1  0.30611500  0.94492200  0.54649500  1
  C  C50  1  0.31663500  0.05030800  0.48315100  1
  C  C51  1  0.32708800  0.05749000  0.33826600  1
  C  C52  1  0.32639800  0.95970700  0.25616800  1
  C  C53  1  0.81474500  0.39960300  0.74413800  1
  C  C54  1  0.84076500  0.42847500  0.60829300  1
  C  C55  1  0.91473800  0.49257800  0.58792900  1
  C  C56  1  0.96274100  0.52874200  0.70303700  1
  C  C57  1  0.93648800  0.50139200  0.83872400  1
  C  C58  1  0.86254900  0.43728700  0.85960600  1
  N  N1  1  0.48838500  0.47233800  0.33294500  1
  N  N2  1  0.48504700  0.47526800  0.63554100  1
  N  N3  1  0.30713900  0.75369100  0.23510500  1
  N  N4  1  0.73869200  0.33409000  0.76418100  1
  O  O1  1  0.58199800  0.58841000  0.10685600  1
  O  O2  1  0.39214500  0.35755000  0.86142500  1
  O  O3  1  0.57632300  0.59656800  0.86195500  1
  O  O4  1  0.39610400  0.35227400  0.10685000  1
  O  O5  1  0.58164500  0.35971700  0.86233700  1
  O  O6  1  0.39240500  0.58922200  0.10607400  1
  O  O7  1  0.58011200  0.35267600  0.10692100  1
  O  O8  1  0.39242800  0.59349000  0.86145400  1
