# generated using pymatgen
data_Cu3H16C26(NO4)4
_symmetry_space_group_name_H-M   'P 1'
_cell_length_a   36.22222500
_cell_length_b   18.40482600
_cell_length_c   18.40958400
_cell_angle_alpha   90.00000000
_cell_angle_beta   118.82546100
_cell_angle_gamma   90.00000000
_symmetry_Int_Tables_number   1
_chemical_formula_structural   Cu3H16C26(NO4)4
_chemical_formula_sum   'Cu12 H64 C104 N16 O64'
_cell_volume   10752.28540271
_cell_formula_units_Z   4
loop_
 _symmetry_equiv_pos_site_id
 _symmetry_equiv_pos_as_xyz
  1  'x, y, z'
loop_
 _atom_site_type_symbol
 _atom_site_label
 _atom_site_symmetry_multiplicity
 _atom_site_fract_x
 _atom_site_fract_y
 _atom_site_fract_z
 _atom_site_occupancy
  Cu  Cu1  1  0.50106700  0.07170700  0.50136400  1
  Cu  Cu2  1  0.49965700  0.92688700  0.50008400  1
  Cu  Cu3  1  0.00106700  0.57170700  0.50136400  1
  Cu  Cu4  1  0.99965700  0.42688700  0.50008400  1
  Cu  Cu5  1  0.00245300  0.99914500  0.93060700  1
  Cu  Cu6  1  0.99826100  0.99910200  0.07128800  1
  Cu  Cu7  1  0.50245300  0.49914500  0.93060700  1
  Cu  Cu8  1  0.49826100  0.49910200  0.07128800  1
  Cu  Cu9  1  0.54234700  0.99888500  0.04029500  1
  Cu  Cu10  1  0.45836700  0.99935700  0.96114600  1
  Cu  Cu11  1  0.04234700  0.49888500  0.04029500  1
  Cu  Cu12  1  0.95836700  0.49935700  0.96114600  1
  H  H1  1  0.78772500  0.06467400  0.68605000  1
  H  H2  1  0.21305300  0.93129800  0.31399100  1
  H  H3  1  0.21835900  0.04859800  0.33080100  1
  H  H4  1  0.78300500  0.94694700  0.67297200  1
  H  H5  1  0.28772500  0.56467400  0.68605000  1
  H  H6  1  0.71305300  0.43129800  0.31399100  1
  H  H7  1  0.71835900  0.54859800  0.33080100  1
  H  H8  1  0.28300500  0.44694700  0.67297200  1
  H  H9  1  0.72374100  0.88040200  0.72652600  1
  H  H10  1  0.27632300  0.11782900  0.27559100  1
  H  H11  1  0.28624200  0.88857500  0.29842800  1
  H  H12  1  0.71455700  0.10959400  0.70077300  1
  H  H13  1  0.22374100  0.38040200  0.72652600  1
  H  H14  1  0.77632300  0.61782900  0.27559100  1
  H  H15  1  0.78624200  0.38857500  0.29842800  1
  H  H16  1  0.21455700  0.60959400  0.70077300  1
  H  H17  1  0.71455300  0.04997200  0.80959700  1
  H  H18  1  0.28589000  0.95000100  0.19059500  1
  H  H19  1  0.29072900  0.04695900  0.18961700  1
  H  H20  1  0.71005100  0.95304900  0.81245900  1
  H  H21  1  0.21455300  0.54997200  0.80959700  1
  H  H22  1  0.78589000  0.45000100  0.19059500  1
  H  H23  1  0.79072900  0.54695900  0.18961700  1
  H  H24  1  0.21005100  0.45304900  0.81245900  1
  H  H25  1  0.78527800  0.03384400  0.89070800  1
  H  H26  1  0.21515200  0.96753400  0.10977300  1
  H  H27  1  0.22032200  0.06200900  0.12729400  1
  H  H28  1  0.78050600  0.93902400  0.87608800  1
  H  H29  1  0.28527800  0.53384400  0.89070800  1
  H  H30  1  0.71515200  0.46753400  0.10977300  1
  H  H31  1  0.72032200  0.56200900  0.12729400  1
  H  H32  1  0.28050600  0.43902400  0.87608800  1
  H  H33  1  0.67517700  0.12864400  0.48599600  1
  H  H34  1  0.69657800  0.17907700  0.57337900  1
  H  H35  1  0.32588000  0.86607500  0.51279200  1
  H  H36  1  0.30456000  0.81697200  0.42443800  1
  H  H37  1  0.34412000  0.15213600  0.49406100  1
  H  H38  1  0.33533500  0.17491000  0.39820100  1
  H  H39  1  0.70685100  0.86288500  0.49720200  1
  H  H40  1  0.74826900  0.83354800  0.58510500  1
  H  H41  1  0.17517700  0.62864400  0.48599600  1
  H  H42  1  0.19657800  0.67907700  0.57337900  1
  H  H43  1  0.82588000  0.36607500  0.51279200  1
  H  H44  1  0.80456000  0.31697200  0.42443800  1
  H  H45  1  0.84412000  0.65213600  0.49406100  1
  H  H46  1  0.83533500  0.67491000  0.39820100  1
  H  H47  1  0.20685100  0.36288500  0.49720200  1
  H  H48  1  0.24826900  0.33354800  0.58510500  1
  H  H49  1  0.82539400  0.82098200  0.87533600  1
  H  H50  1  0.78556500  0.77253500  0.80065100  1
  H  H51  1  0.17318500  0.17804100  0.13162600  1
  H  H52  1  0.21420800  0.22554000  0.20471600  1
  H  H53  1  0.19890400  0.83351600  0.10683700  1
  H  H54  1  0.23863100  0.78907000  0.18623700  1
  H  H55  1  0.80192300  0.16739300  0.89068600  1
  H  H56  1  0.76225200  0.21086500  0.81016500  1
  H  H57  1  0.32539400  0.32098200  0.87533600  1
  H  H58  1  0.28556500  0.27253500  0.80065100  1
  H  H59  1  0.67318500  0.67804100  0.13162600  1
  H  H60  1  0.71420800  0.72554000  0.20471600  1
  H  H61  1  0.69890400  0.33351600  0.10683700  1
  H  H62  1  0.73863100  0.28907000  0.18623700  1
  H  H63  1  0.30192300  0.66739300  0.89068600  1
  H  H64  1  0.26225200  0.71086500  0.81016500  1
  C  C1  1  0.50060500  0.99923200  0.36156500  1
  C  C2  1  0.50011700  0.99935200  0.63985700  1
  C  C3  1  0.00060500  0.49923200  0.36156500  1
  C  C4  1  0.00011700  0.49935200  0.63985700  1
  C  C5  1  0.58119700  0.99748400  0.57727100  1
  C  C6  1  0.41953500  0.00111300  0.42295400  1
  C  C7  1  0.08119700  0.49748400  0.57727100  1
  C  C8  1  0.91953500  0.50111300  0.42295400  1
  C  C9  1  0.72704700  0.06298200  0.68136700  1
  C  C10  1  0.27374500  0.93455300  0.31874600  1
  C  C11  1  0.27203500  0.07522500  0.31330900  1
  C  C12  1  0.72865700  0.92241100  0.68902100  1
  C  C13  1  0.22704700  0.56298200  0.68136700  1
  C  C14  1  0.77374500  0.43455300  0.31874600  1
  C  C15  1  0.77203500  0.57522500  0.31330900  1
  C  C16  1  0.22865700  0.42241100  0.68902100  1
  C  C17  1  0.77604400  0.93243700  0.72333600  1
  C  C18  1  0.22484600  0.06467200  0.28020800  1
  C  C19  1  0.22578800  0.93264100  0.27009500  1
  C  C20  1  0.77499000  0.06483200  0.72996000  1
  C  C21  1  0.27604400  0.43243700  0.72333600  1
  C  C22  1  0.72484600  0.56467200  0.28020800  1
  C  C23  1  0.72578800  0.43264100  0.27009500  1
  C  C24  1  0.27499000  0.56483200  0.72996000  1
  C  C25  1  0.87449000  0.99797400  0.87024400  1
  C  C26  1  0.12622600  0.00013300  0.13168500  1
  C  C27  1  0.37449000  0.49797400  0.87024400  1
  C  C28  1  0.62622600  0.50013300  0.13168500  1
  C  C29  1  0.71048700  0.99391100  0.70248900  1
  C  C30  1  0.29026700  0.00435600  0.29889800  1
  C  C31  1  0.21048700  0.49391100  0.70248900  1
  C  C32  1  0.79026700  0.50435600  0.29889800  1
  C  C33  1  0.79052500  0.99649800  0.78343400  1
  C  C34  1  0.21019200  0.00192500  0.21833900  1
  C  C35  1  0.29052500  0.49649800  0.78343400  1
  C  C36  1  0.71019200  0.50192500  0.21833900  1
  C  C37  1  0.77208900  0.99126400  0.84249600  1
  C  C38  1  0.22856800  0.00899200  0.15926100  1
  C  C39  1  0.27208900  0.49126400  0.84249600  1
  C  C40  1  0.72856800  0.50899200  0.15926100  1
  C  C41  1  0.72451000  0.99776800  0.79441400  1
  C  C42  1  0.27615900  0.00188800  0.20690200  1
  C  C43  1  0.22451000  0.49776800  0.79441400  1
  C  C44  1  0.77615900  0.50188800  0.20690200  1
  C  C45  1  0.83656800  0.99746100  0.83102300  1
  C  C46  1  0.16414600  0.00102600  0.17089100  1
  C  C47  1  0.33656800  0.49746100  0.83102300  1
  C  C48  1  0.66414600  0.50102600  0.17089100  1
  C  C49  1  0.66436300  0.99483700  0.65768000  1
  C  C50  1  0.33636900  0.00370900  0.34385500  1
  C  C51  1  0.16436300  0.49483700  0.65768000  1
  C  C52  1  0.83636900  0.50370900  0.34385500  1
  C  C53  1  0.62639000  0.99611400  0.62110400  1
  C  C54  1  0.37434200  0.00248100  0.38010800  1
  C  C55  1  0.12639000  0.49611400  0.62110400  1
  C  C56  1  0.87434200  0.50248100  0.38010800  1
  C  C57  1  0.50058600  0.99919300  0.28363700  1
  C  C58  1  0.50013500  0.99934700  0.71779200  1
  C  C59  1  0.00058600  0.49919300  0.28363700  1
  C  C60  1  0.00013500  0.49934700  0.71779200  1
  C  C61  1  0.50050100  0.99913600  0.21812000  1
  C  C62  1  0.50021600  0.99929600  0.78331100  1
  C  C63  1  0.00050100  0.49913600  0.21812000  1
  C  C64  1  0.00021600  0.49929600  0.78331100  1
  C  C65  1  0.00011400  0.13831200  0.00072900  1
  C  C66  1  0.00059900  0.85990900  0.00115400  1
  C  C67  1  0.50011400  0.63831200  0.00072900  1
  C  C68  1  0.50059900  0.35990900  0.00115400  1
  C  C69  1  0.91963900  0.99804700  0.91690700  1
  C  C70  1  0.08108200  0.99899400  0.08500500  1
  C  C71  1  0.41963900  0.49804700  0.91690700  1
  C  C72  1  0.58108200  0.49899400  0.08500500  1
  C  C73  1  0.50039000  0.85968900  0.00081500  1
  C  C74  1  0.50032300  0.13854800  0.00069300  1
  C  C75  1  0.00039000  0.35968900  0.00081500  1
  C  C76  1  0.00032300  0.63854800  0.00069300  1
  C  C77  1  0.50033900  0.99908200  0.14005700  1
  C  C78  1  0.50037500  0.99921100  0.86137800  1
  C  C79  1  0.00033900  0.49908200  0.14005700  1
  C  C80  1  0.00037500  0.49921100  0.86137800  1
  C  C81  1  0.00013900  0.21626600  0.00073600  1
  C  C82  1  0.00057600  0.78196000  0.00109200  1
  C  C83  1  0.50013900  0.71626600  0.00073600  1
  C  C84  1  0.50057600  0.28196000  0.00109200  1
  C  C85  1  0.50022700  0.78173500  0.00075400  1
  C  C86  1  0.50048900  0.21649500  0.00093500  1
  C  C87  1  0.00022700  0.28173500  0.00075400  1
  C  C88  1  0.00048900  0.71649500  0.00093500  1
  C  C89  1  0.71098400  0.07300400  0.59025100  1
  C  C90  1  0.28988000  0.92298300  0.40966900  1
  C  C91  1  0.29415900  0.10344200  0.40109500  1
  C  C92  1  0.70647500  0.89366600  0.60120500  1
  C  C93  1  0.21098400  0.57300400  0.59025100  1
  C  C94  1  0.78988000  0.42298200  0.40966900  1
  C  C95  1  0.79415900  0.60344200  0.40109500  1
  C  C96  1  0.20647500  0.39366600  0.60120500  1
  C  C97  1  0.80033400  0.86404800  0.76134300  1
  C  C98  1  0.20052400  0.13353300  0.24507700  1
  C  C99  1  0.20976300  0.86432900  0.21992000  1
  C  C100  1  0.79106900  0.13397800  0.77842300  1
  C  C101  1  0.30033400  0.36404800  0.76134300  1
  C  C102  1  0.70052400  0.63353300  0.24507700  1
  C  C103  1  0.70976300  0.36432900  0.21992000  1
  C  C104  1  0.29106900  0.63397800  0.77842300  1
  N  N1  1  0.68165600  0.12984000  0.54772300  1
  N  N2  1  0.31936300  0.86605900  0.45102900  1
  N  N3  1  0.33595600  0.13158500  0.43537700  1
  N  N4  1  0.72899500  0.87847000  0.55713500  1
  N  N5  1  0.18165600  0.62984000  0.54772300  1
  N  N6  1  0.81936300  0.36605900  0.45102900  1
  N  N7  1  0.83595600  0.63158500  0.43537700  1
  N  N8  1  0.22899500  0.37847000  0.55713500  1
  N  N9  1  0.79562400  0.82492200  0.82328800  1
  N  N10  1  0.20356000  0.17344700  0.18172600  1
  N  N11  1  0.22497600  0.84008500  0.16552400  1
  N  N12  1  0.77585500  0.16002900  0.83215500  1
  N  N13  1  0.29562400  0.32492200  0.82328800  1
  N  N14  1  0.70356000  0.67344700  0.18172600  1
  N  N15  1  0.72497600  0.34008500  0.16552400  1
  N  N16  1  0.27585500  0.66002900  0.83215500  1
  O  O1  1  0.50294200  0.06176500  0.39757500  1
  O  O2  1  0.49785600  0.93667500  0.60396400  1
  O  O3  1  0.50247900  0.06200800  0.60832100  1
  O  O4  1  0.49817000  0.93673300  0.39307900  1
  O  O5  1  0.00294200  0.56176500  0.39757500  1
  O  O6  1  0.99785600  0.43667500  0.60396400  1
  O  O7  1  0.00247900  0.56200800  0.60832100  1
  O  O8  1  0.99817000  0.43673300  0.39307900  1
  O  O9  1  0.56224600  0.06068500  0.56251800  1
  O  O10  1  0.43846800  0.93791300  0.44447900  1
  O  O11  1  0.43973500  0.06316900  0.44549700  1
  O  O12  1  0.56097900  0.93543300  0.56122800  1
  O  O13  1  0.06224600  0.56068500  0.56251800  1
  O  O14  1  0.93846800  0.43791300  0.44447900  1
  O  O15  1  0.93973500  0.56316900  0.44549700  1
  O  O16  1  0.06097900  0.43543300  0.56122800  1
  O  O17  1  0.00027900  0.10454400  0.93810000  1
  O  O18  1  0.00051500  0.89372200  0.06372500  1
  O  O19  1  0.00004500  0.10452900  0.06344800  1
  O  O20  1  0.00058700  0.89374200  0.93851000  1
  O  O21  1  0.50027900  0.60454400  0.93810000  1
  O  O22  1  0.50051500  0.39372200  0.06372500  1
  O  O23  1  0.50004500  0.60452900  0.06344800  1
  O  O24  1  0.50058700  0.39374200  0.93851000  1
  O  O25  1  0.94097400  0.00158000  0.87627400  1
  O  O26  1  0.05972900  0.00223000  0.12561200  1
  O  O27  1  0.44097400  0.50158000  0.87627400  1
  O  O28  1  0.55972900  0.50223000  0.12561200  1
  O  O29  1  0.93739600  0.00140700  0.99797400  1
  O  O30  1  0.06330700  0.00212800  0.00392000  1
  O  O31  1  0.43739600  0.50140700  0.99797400  1
  O  O32  1  0.56330700  0.50212800  0.00392000  1
  O  O33  1  0.53678200  0.89325300  0.03203800  1
  O  O34  1  0.46392800  0.10498800  0.96940900  1
  O  O35  1  0.46413500  0.89374400  0.96958200  1
  O  O36  1  0.53657700  0.10449800  0.03186800  1
  O  O37  1  0.03678200  0.39325300  0.03203800  1
  O  O38  1  0.96392800  0.60498800  0.96940900  1
  O  O39  1  0.96413500  0.39374400  0.96958200  1
  O  O40  1  0.03657700  0.60449800  0.03186800  1
  O  O41  1  0.53659200  0.99590400  0.14042000  1
  O  O42  1  0.46412100  0.00234400  0.86102000  1
  O  O43  1  0.03659200  0.49590400  0.14042000  1
  O  O44  1  0.96412100  0.50234400  0.86102000  1
  O  O45  1  0.46394900  0.00231500  0.07198700  1
  O  O46  1  0.53676200  0.99593400  0.92945100  1
  O  O47  1  0.96394900  0.50231500  0.07198700  1
  O  O48  1  0.03676200  0.49593400  0.92945100  1
  O  O49  1  0.72376400  0.03539400  0.55257100  1
  O  O50  1  0.27701700  0.95934000  0.44812700  1
  O  O51  1  0.27511600  0.11060100  0.44011000  1
  O  O52  1  0.66959800  0.87549600  0.57014600  1
  O  O53  1  0.22376400  0.53539400  0.55257100  1
  O  O54  1  0.77701700  0.45934000  0.44812700  1
  O  O55  1  0.77511600  0.61060100  0.44011000  1
  O  O56  1  0.16959800  0.37549600  0.57014600  1
  O  O57  1  0.82390400  0.84043400  0.73703900  1
  O  O58  1  0.17845100  0.15687500  0.27305100  1
  O  O59  1  0.18445100  0.82694400  0.22882600  1
  O  O60  1  0.81642300  0.17043500  0.76862800  1
  O  O61  1  0.32390400  0.34043400  0.73703900  1
  O  O62  1  0.67845100  0.65687500  0.27305100  1
  O  O63  1  0.68445100  0.32694400  0.22882600  1
  O  O64  1  0.31642300  0.67043500  0.76862800  1
