# generated using pymatgen
data_Zn2H23C39N3(ClO4)2
_symmetry_space_group_name_H-M   'P 1'
_cell_length_a   8.53359000
_cell_length_b   10.68193900
_cell_length_c   14.25204300
_cell_angle_alpha   97.79595200
_cell_angle_beta   90.10280800
_cell_angle_gamma   90.00842300
_symmetry_Int_Tables_number   1
_chemical_formula_structural   Zn2H23C39N3(ClO4)2
_chemical_formula_sum   'Zn2 H23 C39 N3 Cl2 O8'
_cell_volume   1287.13942888
_cell_formula_units_Z   1
loop_
 _symmetry_equiv_pos_site_id
 _symmetry_equiv_pos_as_xyz
  1  'x, y, z'
loop_
 _atom_site_type_symbol
 _atom_site_label
 _atom_site_symmetry_multiplicity
 _atom_site_fract_x
 _atom_site_fract_y
 _atom_site_fract_z
 _atom_site_occupancy
  Zn  Zn1  1  0.51154900  0.48472500  0.08947200  1
  Zn  Zn2  1  0.50961400  0.49912600  0.88156200  1
  H  H1  1  0.62211700  0.88845300  0.00113300  1
  H  H2  1  0.00688700  0.58439800  0.04296200  1
  H  H3  1  0.00712700  0.39962300  0.92710800  1
  H  H4  1  0.26543500  0.89590200  0.98021800  1
  H  H5  1  0.26513600  0.08906500  0.99286100  1
  H  H6  1  0.75844400  0.52010200  0.42859600  1
  H  H7  1  0.43887900  0.29155600  0.39773800  1
  H  H8  1  0.64641900  0.31016800  0.38855700  1
  H  H9  1  0.68818200  0.36199200  0.54198300  1
  H  H10  1  0.34293600  0.63246500  0.42261200  1
  H  H11  1  0.26011000  0.47634500  0.39467900  1
  H  H12  1  0.29417200  0.61002700  0.57634900  1
  H  H13  1  0.64713000  0.65688900  0.40650300  1
  H  H14  1  0.53420000  0.68801600  0.55021700  1
  H  H15  1  0.26302300  0.44345100  0.54946500  1
  H  H16  1  0.27307100  0.23986100  0.49831700  1
  H  H17  1  0.32897300  0.99381600  0.70507200  1
  H  H18  1  0.58633700  0.08719100  0.74926000  1
  H  H19  1  0.68932500  0.25735800  0.66923100  1
  H  H20  1  0.64249800  0.80840700  0.67181700  1
  H  H21  1  0.08624800  0.72533900  0.78289700  1
  H  H22  1  0.09746900  0.52784100  0.67331200  1
  H  H23  1  0.89278900  0.47397600  0.55731100  1
  C  C1  1  0.00879700  0.68262300  0.03245000  1
  C  C2  1  0.14944700  0.73982400  0.01913500  1
  C  C3  1  0.15246600  0.86090900  0.99729000  1
  C  C4  1  0.87019200  0.74340600  0.01893100  1
  C  C5  1  0.87222100  0.86869500  0.00233200  1
  C  C6  1  0.01428500  0.92940800  0.99411500  1
  C  C7  1  0.01417600  0.05526600  0.97792300  1
  C  C8  1  0.15222500  0.12380300  0.97524300  1
  C  C9  1  0.14908800  0.24473100  0.95322800  1
  C  C10  1  0.73382800  0.93384100  0.99412000  1
  C  C11  1  0.87230900  0.11639000  0.96923900  1
  C  C12  1  0.87023900  0.24081000  0.95119600  1
  C  C13  1  0.00882100  0.30162100  0.93823700  1
  C  C14  1  0.29078600  0.66271100  0.00915200  1
  C  C15  1  0.29033400  0.32156100  0.96313800  1
  C  C16  1  0.72821300  0.31830000  0.96147800  1
  C  C17  1  0.72886600  0.66505900  0.00836000  1
  C  C18  1  0.64436500  0.56899600  0.43990600  1
  C  C19  1  0.53890400  0.35229200  0.42324500  1
  C  C20  1  0.56144200  0.36707600  0.53010900  1
  C  C21  1  0.51385400  0.48280200  0.39595400  1
  C  C22  1  0.60762600  0.60192600  0.54428200  1
  C  C23  1  0.50555600  0.49773800  0.57472800  1
  C  C24  1  0.34290200  0.52106100  0.53838900  1
  C  C25  1  0.35533900  0.53209200  0.43350900  1
  C  C26  1  0.50623800  0.50494800  0.67802900  1
  C  C27  1  0.51487300  0.47759100  0.29285700  1
  C  C28  1  0.49073000  0.26235300  0.57719800  1
  C  C29  1  0.34520800  0.20900200  0.55291500  1
  C  C30  1  0.28795200  0.11296800  0.59886000  1
  C  C31  1  0.37430600  0.06904600  0.66922200  1
  C  C32  1  0.51840700  0.12131900  0.69387100  1
  C  C33  1  0.57625100  0.21726600  0.64818300  1
  C  C34  1  0.74731100  0.63472600  0.60744600  1
  C  C35  1  0.74247100  0.74600900  0.66993800  1
  C  C36  1  0.86453900  0.77913800  0.73174700  1
  C  C37  1  0.99155000  0.70034000  0.73341000  1
  C  C38  1  0.99812000  0.58993600  0.67142400  1
  C  C39  1  0.87873500  0.55824800  0.60715600  1
  N  N1  1  0.73633400  0.05533600  0.97834900  1
  N  N2  1  0.50795200  0.50818100  0.75951800  1
  N  N3  1  0.51385100  0.47561700  0.21149200  1
  Cl  Cl1  1  0.10444800  0.04659300  0.56747800  1
  Cl  Cl2  1  0.85700700  0.92102800  0.80906900  1
  O  O1  1  0.34137100  0.62688000  0.92285800  1
  O  O2  1  0.34671800  0.61873600  0.08414300  1
  O  O3  1  0.34230400  0.35714600  0.04929100  1
  O  O4  1  0.34489800  0.36540300  0.88799100  1
  O  O5  1  0.67933300  0.35654300  0.04782200  1
  O  O6  1  0.67368500  0.36444400  0.88702700  1
  O  O7  1  0.67846700  0.62713600  0.92209800  1
  O  O8  1  0.67552000  0.61911600  0.08294100  1
