# generated using pymatgen
data_FeH15C31NO10
_symmetry_space_group_name_H-M   'P 1'
_cell_length_a   13.29835300
_cell_length_b   19.92692300
_cell_length_c   12.89965500
_cell_angle_alpha   125.30314100
_cell_angle_beta   112.08251500
_cell_angle_gamma   73.87147500
_symmetry_Int_Tables_number   1
_chemical_formula_structural   FeH15C31NO10
_chemical_formula_sum   'Fe2 H30 C62 N2 O20'
_cell_volume   2576.79260667
_cell_formula_units_Z   2
loop_
 _symmetry_equiv_pos_site_id
 _symmetry_equiv_pos_as_xyz
  1  'x, y, z'
loop_
 _atom_site_type_symbol
 _atom_site_label
 _atom_site_symmetry_multiplicity
 _atom_site_fract_x
 _atom_site_fract_y
 _atom_site_fract_z
 _atom_site_occupancy
  Fe  Fe1  1  0.45352800  0.98704900  0.22762900  1
  Fe  Fe2  1  0.46806600  0.95694700  0.65307800  1
  H  H1  1  0.93932500  0.97345000  0.73165100  1
  H  H2  1  0.05038500  0.01314700  0.07140600  1
  H  H3  1  0.87161800  0.93357800  0.81425700  1
  H  H4  1  0.98048200  0.97555100  0.15722400  1
  H  H5  1  0.33607600  0.93313100  0.87382500  1
  H  H6  1  0.58405900  0.02020900  0.01308300  1
  H  H7  1  0.87096500  0.99990000  0.29109100  1
  H  H8  1  0.69600400  0.49976100  0.45598700  1
  H  H9  1  0.80489600  0.40775100  0.52858500  1
  H  H10  1  0.23660200  0.44133400  0.42752300  1
  H  H11  1  0.23347300  0.20680300  0.40074800  1
  H  H12  1  0.24660700  0.23894300  0.81248400  1
  H  H13  1  0.14500800  0.34286200  0.76143000  1
  H  H14  1  0.68870800  0.73770600  0.48195100  1
  H  H15  1  0.69770300  0.71484900  0.08556500  1
  H  H16  1  0.79420500  0.60906100  0.13370400  1
  H  H17  1  0.16265200  0.59226300  0.37958400  1
  H  H18  1  0.07774600  0.52197400  0.21779900  1
  H  H19  1  0.34608500  0.56440300  0.38744500  1
  H  H20  1  0.50044400  0.46874600  0.31097000  1
  H  H21  1  0.47632500  0.32118900  0.14713500  1
  H  H22  1  0.29640300  0.26937400  0.05879200  1
  H  H23  1  0.14079300  0.36502300  0.13391600  1
  H  H24  1  0.04001600  0.01275000  0.58046300  1
  H  H25  1  0.93866800  0.95283900  0.54162000  1
  H  H26  1  0.07595400  0.95667300  0.38005800  1
  H  H27  1  0.12969900  0.83960300  0.18349700  1
  H  H28  1  0.14477600  0.69857300  0.13359600  1
  H  H29  1  0.10422500  0.67494100  0.27992400  1
  H  H30  1  0.04957900  0.79177200  0.47761200  1
  C  C1  1  0.24842600  0.93745100  0.83762100  1
  C  C2  1  0.18896300  0.95317700  0.91767200  1
  C  C3  1  0.07652800  0.96448700  0.87937200  1
  C  C4  1  0.02631800  0.96094500  0.76059800  1
  C  C5  1  0.08671200  0.94999300  0.68374200  1
  C  C6  1  0.19955200  0.93935100  0.72407100  1
  C  C7  1  0.01253100  0.98288100  0.96640300  1
  C  C8  1  0.90925000  0.96394400  0.91916200  1
  C  C9  1  0.73183400  0.99583600  0.96729900  1
  C  C10  1  0.67164200  0.01435500  0.04839300  1
  C  C11  1  0.71994700  0.01406100  0.16305400  1
  C  C12  1  0.83163400  0.00168100  0.20251400  1
  C  C13  1  0.89369500  0.98812600  0.12580800  1
  C  C14  1  0.84442400  0.98347700  0.00598900  1
  C  C15  1  0.64963400  0.01459200  0.22790200  1
  C  C16  1  0.57918000  0.85046900  0.22299900  1
  C  C17  1  0.25070400  0.97015900  0.05001800  1
  C  C18  1  0.34459400  0.08305200  0.41914600  1
  C  C19  1  0.58086200  0.86307100  0.46505100  1
  C  C20  1  0.66996100  0.97825500  0.83469200  1
  C  C21  1  0.35962300  0.10081200  0.67012300  1
  C  C22  1  0.27150800  0.94035700  0.66202600  1
  C  C23  1  0.91677900  0.58950800  0.34784100  1
  C  C24  1  0.76452400  0.57142700  0.37677100  1
  C  C25  1  0.82671800  0.51852000  0.41776300  1
  C  C26  1  0.93506400  0.49858200  0.41931400  1
  C  C27  1  0.98070100  0.53143000  0.37896000  1
  C  C28  1  0.78067700  0.48511500  0.45661100  1
  C  C29  1  0.84275200  0.43277600  0.49829200  1
  C  C30  1  0.95147000  0.41336000  0.50139100  1
  C  C31  1  0.99697900  0.44591300  0.46117700  1
  C  C32  1  0.10512500  0.42611700  0.46458500  1
  C  C33  1  0.15112700  0.45675000  0.42185400  1
  C  C34  1  0.08899100  0.50632000  0.37311400  1
  C  C35  1  0.01456200  0.36042500  0.54241300  1
  C  C36  1  0.16659900  0.37381200  0.50768000  1
  C  C37  1  0.23852700  0.21496700  0.49296300  1
  C  C38  1  0.29421600  0.15442200  0.51893800  1
  C  C39  1  0.29873900  0.16230600  0.63508300  1
  C  C40  1  0.24463900  0.23082700  0.72139300  1
  C  C41  1  0.18640300  0.28985900  0.69251200  1
  C  C42  1  0.18319500  0.28212800  0.57800100  1
  C  C43  1  0.68785400  0.73121200  0.39246000  1
  C  C44  1  0.63440600  0.79272900  0.36767500  1
  C  C45  1  0.63705300  0.78784500  0.25656400  1
  C  C46  1  0.69466400  0.72089500  0.17315800  1
  C  C47  1  0.74973000  0.66068000  0.20030400  1
  C  C48  1  0.74731000  0.66580800  0.31070600  1
  C  C49  1  0.13803600  0.52825000  0.30942300  1
  C  C50  1  0.23336700  0.47066600  0.26582100  1
  C  C51  1  0.33441800  0.49968700  0.31536600  1
  C  C52  1  0.42148900  0.44595200  0.27249400  1
  C  C53  1  0.40793700  0.36324300  0.18050500  1
  C  C54  1  0.30711300  0.33421400  0.13093000  1
  C  C55  1  0.21984600  0.38791000  0.17320700  1
  C  C56  1  0.02724700  0.95385500  0.56263500  1
  C  C57  1  0.06182400  0.88224400  0.44397500  1
  C  C58  1  0.08290700  0.89504500  0.35975200  1
  C  C59  1  0.11288100  0.82920700  0.24868200  1
  C  C60  1  0.12114600  0.75022300  0.22061900  1
  C  C61  1  0.09843700  0.73705300  0.30303000  1
  C  C62  1  0.06820100  0.80283100  0.41424500  1
  N  N1  1  0.81032700  0.60654400  0.34394700  1
  N  N2  1  0.12061200  0.34127600  0.54460100  1
  O  O1  1  0.54395700  0.02387300  0.18044900  1
  O  O2  1  0.59226500  0.84642900  0.12357000  1
  O  O3  1  0.68944500  0.99189600  0.31393500  1
  O  O4  1  0.51281000  0.90950300  0.28937700  1
  O  O5  1  0.33908900  0.92213100  0.06126000  1
  O  O6  1  0.24236800  0.04559200  0.15092700  1
  O  O7  1  0.41075000  0.09461400  0.37782800  1
  O  O8  1  0.31147300  0.00939900  0.35686900  1
  O  O9  1  0.51591300  0.85000800  0.50597400  1
  O  O10  1  0.60909700  0.93790500  0.52485400  1
  O  O11  1  0.57869500  0.02371500  0.82285800  1
  O  O12  1  0.68202900  0.90365900  0.73364600  1
  O  O13  1  0.23869700  0.97861300  0.59839900  1
  O  O14  1  0.40973800  0.03382400  0.58998600  1
  O  O15  1  0.37557000  0.91822100  0.69518600  1
  O  O16  1  0.36078400  0.11145300  0.78091800  1
  O  O17  1  0.96131000  0.63431800  0.33137700  1
  O  O18  1  0.65777500  0.58782800  0.36905800  1
  O  O19  1  0.96912800  0.32555400  0.57568100  1
  O  O20  1  0.27307300  0.35558700  0.51387000  1
