# Generated by REPEAT Assigner based on pymatgen
data_DB0-m29_o89_o530_f0_pts.sym.38
_audit_creation_date              2022-05-24
_audit_creation_method            REPEAT_Assigner
_cell_length_a                    14.153294
_cell_length_b                    18.452469
_cell_length_c                    13.183643
_cell_angle_alpha                 95.244174
_cell_angle_beta                  93.142182
_cell_angle_gamma                 75.852518
_cell_volume                      3322.797963
_symmetry_space_group_name_H-M    P1
_symmetry_Int_Tables_number       1
loop_
    _symmetry_equiv_pos_site_id
    _symmetry_equiv_pos_as_xyz
    1  x,y,z
loop_
    _atom_site_type_symbol
    _atom_site_label
    _atom_site_fract_x
    _atom_site_fract_y
    _atom_site_fract_z
    _atom_type_partial_charge
    C   C1   0.863374  0.995670  0.133690  -0.278026
    C   C2   0.771584  0.995555  0.091358  0.093587
    C   C3   0.756028  0.999536  0.986207  -0.153811
    C   C4   0.831240  0.005989  0.927816  -0.091007
    C   C5   0.922044  0.006415  0.970836  0.062948
    C   C6   0.938911  0.001385  0.074132  0.278616
    C   C7   0.995999  0.010968  0.909451  -0.269385
    C   C8   0.087403  0.011591  0.950889  0.230357
    C   C9   0.105102  0.007419  0.054209  0.135690
    C   C10  0.031068  0.001905  0.116478  -0.282879
    C   C11  0.160754  0.016492  0.888380  -0.184665
    C   C12  0.252904  0.018906  0.927989  -0.043028
    C   C13  0.269404  0.017576  0.033367  -0.026934
    C   C14  0.196398  0.010717  0.094399  -0.219197
    H   H1   0.874231  0.992456  0.214794  0.146263
    H   H2   0.819716  0.008453  0.846367  0.175827
    H   H3   0.982042  0.014416  0.828386  0.162866
    H   H4   0.145124  0.018041  0.807382  0.151207
    H   H5   0.212172  0.011101  0.175326  0.208585
    N   N1   0.019594  0.053554  0.297223  -0.244065
    C   C15  0.050051  0.027751  0.388539  -0.086734
    C   C16  0.100460  0.953509  0.375721  -0.177331
    C   C17  0.100501  0.933572  0.272242  -0.190816
    C   C18  0.050131  0.996583  0.226332  0.340346
    H   H6   0.979814  0.107572  0.283947  0.300183
    H   H7   0.036347  0.061005  0.460449  0.163918
    H   H8   0.133421  0.917904  0.435206  0.160690
    H   H9   0.133349  0.879384  0.234693  0.143976
    O   O1   0.601435  0.015542  0.130739  -0.587995
    C   C19  0.693160  0.995653  0.161147  0.603777
    O   O2   0.619208  0.850169  0.232369  -0.495217
    O   O3   0.714584  0.981557  0.256568  -0.497209
    O   O4   0.537660  0.943515  0.344085  -0.605078
    C   C20  0.588525  0.874350  0.324335  0.631158
    Fe  Fe1  0.507514  0.014230  0.235933  1.511323
    O   O5   0.392930  0.984116  0.163530  -0.695141
    O   O6   0.398193  0.081304  0.071941  -0.478992
    C   C21  0.360599  0.024845  0.086513  0.825245
    O   O7   0.491506  0.117394  0.306374  -0.671132
    O   O8   0.330717  0.119755  0.284038  -0.592822
    C   C22  0.400118  0.148770  0.327222  0.750745
    O   O9   0.520275  0.912039  0.708494  -0.651359
    O   O10  0.683426  0.895436  0.738534  -0.550114
    C   C23  0.610072  0.874074  0.690574  0.702071
    O   O11  0.634421  0.035080  0.853893  -0.692067
    O   O12  0.620116  0.942487  0.950057  -0.482842
    C   C24  0.664069  0.994693  0.931864  0.851091
    O   O13  0.309341  0.020768  0.758267  -0.522495
    O   O14  0.488423  0.086275  0.677880  -0.585017
    C   C25  0.421685  0.149243  0.693689  0.560277
    O   O15  0.420560  0.014471  0.889454  -0.603392
    C   C26  0.330161  0.019193  0.856394  0.685983
    O   O16  0.378253  0.166511  0.781063  -0.487775
    Fe  Fe2  0.514310  0.012950  0.782724  1.497704
    C   C27  0.895307  0.664080  0.459987  0.466460
    N   N2   0.806437  0.661855  0.488191  -0.122046
    C   C28  0.789762  0.599642  0.522526  0.368726
    C   C29  0.865665  0.534847  0.530779  -0.031187
    C   C30  0.958226  0.537963  0.503512  0.073896
    C   C31  0.972327  0.602379  0.467157  -0.131748
    C   C32  0.853639  0.467642  0.565967  -0.113480
    C   C33  0.934693  0.408053  0.574723  -0.035400
    C   C34  0.025775  0.412700  0.548565  -0.116574
    C   C35  0.037304  0.477324  0.512528  0.112916
    C   C36  0.128725  0.480747  0.485184  -0.094097
    C   C37  0.141875  0.545162  0.448734  -0.041918
    C   C38  0.064006  0.605709  0.439906  -0.047317
    C   C39  0.105277  0.351910  0.556000  0.420995
    N   N3   0.193830  0.356038  0.528047  -0.101907
    C   C40  0.206536  0.419214  0.493106  0.412502
    O   O17  0.909496  0.727845  0.428855  -0.469116
    O   O18  0.698705  0.602621  0.549059  -0.400952
    H   H10  0.927806  0.356503  0.602354  0.136723
    O   O19  0.093860  0.287375  0.587358  -0.458760
    O   O20  0.295531  0.422032  0.465604  -0.462789
    H   H11  0.212615  0.549359  0.426633  0.135104
    H   H12  0.076503  0.655518  0.411404  0.129047
    C   C41  0.303965  0.257072  0.429979  -0.238520
    H   H13  0.267671  0.279183  0.361105  0.140871
    C   C42  0.379469  0.194035  0.423545  0.059028
    C   C43  0.422544  0.163697  0.511023  -0.165149
    C   C44  0.386963  0.193163  0.605556  0.104782
    C   C45  0.312369  0.257812  0.612215  -0.244036
    H   H14  0.283626  0.281874  0.685336  0.164409
    C   C46  0.272422  0.290684  0.524057  0.249026
    C   C47  0.701409  0.763754  0.587035  -0.210992
    H   H15  0.737144  0.740784  0.655655  0.147025
    C   C48  0.628847  0.828703  0.593964  0.048170
    C   C49  0.586966  0.859970  0.506668  -0.123331
    C   C50  0.620642  0.829310  0.411871  0.019415
    C   C51  0.691347  0.762399  0.404637  -0.187464
    H   H16  0.718643  0.737467  0.331303  0.155446
    C   C52  0.730429  0.728911  0.492686  0.212731
    H   H17  0.477721  0.111700  0.503127  0.140135
    H   H18  0.533892  0.913070  0.514660  0.131851
    C   C53  0.756819  0.455603  0.594284  0.670167
    F   F1   0.720787  0.504144  0.677110  -0.200737
    F   F2   0.766103  0.383475  0.621108  -0.228492
    F   F3   0.691327  0.466066  0.511993  -0.201320
