# generated using pymatgen
data_FeH10C29NO10F
_symmetry_space_group_name_H-M   'P 1'
_cell_length_a   15.29956900
_cell_length_b   29.23346200
_cell_length_c   11.52412100
_cell_angle_alpha   51.04946100
_cell_angle_beta   78.60187400
_cell_angle_gamma   96.62353400
_symmetry_Int_Tables_number   1
_chemical_formula_structural   FeH10C29NO10F
_chemical_formula_sum   'Fe2 H20 C58 N2 O20 F2'
_cell_volume   3730.28081798
_cell_formula_units_Z   2
loop_
 _symmetry_equiv_pos_site_id
 _symmetry_equiv_pos_as_xyz
  1  'x, y, z'
loop_
 _atom_site_type_symbol
 _atom_site_label
 _atom_site_symmetry_multiplicity
 _atom_site_fract_x
 _atom_site_fract_y
 _atom_site_fract_z
 _atom_site_occupancy
  Fe  Fe1  1  0.50177600  0.99954400  0.25488000  1
  Fe  Fe2  1  0.50041700  0.99994000  0.74573600  1
  H  H1  1  0.77260100  0.97553800  0.75726400  1
  H  H2  1  0.92587600  0.97745700  0.79082100  1
  H  H3  1  0.84732800  0.02716000  0.06513400  1
  H  H4  1  0.04735800  0.01803400  0.84453500  1
  H  H5  1  0.07189400  0.01205500  0.23481000  1
  H  H6  1  0.22662100  0.01567500  0.26198900  1
  H  H7  1  0.15653700  0.98028400  0.92147200  1
  H  H8  1  0.70837500  0.22378400  0.88141800  1
  H  H9  1  0.78723900  0.30912200  0.85361500  1
  H  H10  1  0.78781700  0.47955100  0.77800700  1
  H  H11  1  0.32120600  0.80717600  0.63941600  1
  H  H12  1  0.06349900  0.71659400  0.63581300  1
  H  H13  1  0.97467300  0.63543700  0.66796800  1
  H  H14  1  0.87480000  0.56358300  0.73698300  1
  H  H15  1  0.68595900  0.19255800  0.35934600  1
  H  H16  1  0.95889700  0.28686500  0.32869500  1
  H  H17  1  0.10249000  0.43455000  0.29307100  1
  H  H18  1  0.19164200  0.51890600  0.24843700  1
  H  H19  1  0.20122500  0.69372800  0.14297600  1
  H  H20  1  0.05112800  0.36830700  0.29190500  1
  C  C1  1  0.78809600  0.98483900  0.82940300  1
  C  C2  1  0.87459500  0.98655000  0.84696000  1
  C  C3  1  0.89649500  0.00060700  0.93385500  1
  C  C4  1  0.83077900  0.01319400  0.00295500  1
  C  C5  1  0.74343200  0.01045800  0.98766200  1
  C  C6  1  0.72306000  0.99788300  0.89708000  1
  C  C7  1  0.99105100  0.00449300  0.94366400  1
  C  C8  1  0.00852100  0.99176900  0.06874700  1
  C  C9  1  0.12448800  0.00663400  0.17018000  1
  C  C10  1  0.21178500  0.00929900  0.18428900  1
  C  C11  1  0.27848600  0.00046000  0.10677700  1
  C  C12  1  0.25925000  0.99171600  0.00859100  1
  C  C13  1  0.17169100  0.98949700  0.99363800  1
  C  C14  1  0.10377800  0.99662300  0.07526000  1
  C  C15  1  0.40022400  0.91034800  0.57034900  1
  C  C16  1  0.36515600  0.99521600  0.14175000  1
  C  C17  1  0.67104800  0.01615900  0.07781000  1
  C  C18  1  0.60806600  0.10841800  0.14976200  1
  C  C19  1  0.38786100  0.89288700  0.84954800  1
  C  C20  1  0.33205400  0.98818400  0.91326600  1
  C  C21  1  0.63737000  0.00401600  0.85882600  1
  C  C22  1  0.60220300  0.08982900  0.42940900  1
  C  C23  1  0.78686500  0.36385400  0.97884900  1
  C  C24  1  0.84544100  0.29564200  0.17581400  1
  C  C25  1  0.69166800  0.19959400  0.25385000  1
  C  C26  1  0.64925800  0.15059600  0.27001800  1
  C  C27  1  0.70330000  0.21652500  0.98707700  1
  C  C28  1  0.74655800  0.26516800  0.97116100  1
  C  C29  1  0.74154100  0.25682200  0.10448400  1
  C  C30  1  0.89458100  0.40287700  0.04422300  1
  C  C31  1  0.83836800  0.41266700  0.95607000  1
  C  C32  1  0.83311700  0.47115600  0.84605400  1
  C  C33  1  0.89748200  0.34369300  0.15531300  1
  C  C34  1  0.65504700  0.15894100  0.13630500  1
  C  C35  1  0.34079500  0.84220400  0.86329100  1
  C  C36  1  0.00160200  0.56077500  0.87757300  1
  C  C37  1  0.05327800  0.48927700  0.09380000  1
  C  C38  1  0.05371300  0.54923300  0.97413200  1
  C  C39  1  0.00779300  0.62193900  0.75404600  1
  C  C40  1  0.06067500  0.66972800  0.73233700  1
  C  C41  1  0.10937400  0.65794300  0.83163800  1
  C  C42  1  0.10643400  0.59807000  0.95121500  1
  C  C43  1  0.15635400  0.58759900  0.04827200  1
  C  C44  1  0.20741900  0.63643600  0.02580600  1
  C  C45  1  0.16053000  0.70600000  0.81198100  1
  C  C46  1  0.31093100  0.80065700  0.74498600  1
  C  C47  1  0.35152200  0.84977800  0.72960500  1
  C  C48  1  0.28805300  0.78528800  0.01193900  1
  C  C49  1  0.24577500  0.73681200  0.02654800  1
  C  C50  1  0.25676800  0.74420800  0.89334000  1
  C  C51  1  0.94524400  0.51133800  0.90540500  1
  C  C52  1  0.94761700  0.45171500  0.02098600  1
  C  C53  1  0.00272900  0.44051300  0.11324100  1
  C  C54  1  0.88544600  0.51995000  0.82114200  1
  C  C55  1  0.95418500  0.33282600  0.24311600  1
  C  C56  1  0.10307500  0.47951200  0.19251000  1
  C  C57  1  0.15414500  0.52820300  0.16921300  1
  C  C58  1  0.00646900  0.38050400  0.22240500  1
  N  N1  1  0.79119100  0.30626300  0.08758300  1
  N  N2  1  0.20855000  0.69473600  0.90903600  1
  O  O1  1  0.46850100  0.91647700  0.46808500  1
  O  O2  1  0.39189600  0.94701000  0.18629300  1
  O  O3  1  0.36869400  0.95714400  0.52362200  1
  O  O4  1  0.40580400  0.03159000  0.15885900  1
  O  O5  1  0.58255400  0.99827400  0.09765400  1
  O  O6  1  0.69257900  0.03064900  0.15798700  1
  O  O7  1  0.55621100  0.05426000  0.28908700  1
  O  O8  1  0.61500900  0.11802000  0.02023500  1
  O  O9  1  0.44564400  0.94524500  0.71157400  1
  O  O10  1  0.37639800  0.88490100  0.97771400  1
  O  O11  1  0.41975900  0.00121700  0.90315900  1
  O  O12  1  0.31138600  0.97788300  0.82478700  1
  O  O13  1  0.63487900  0.04356800  0.47475200  1
  O  O14  1  0.59641200  0.96777400  0.84157900  1
  O  O15  1  0.53351600  0.08305200  0.53250800  1
  O  O16  1  0.61087200  0.05226600  0.81456900  1
  O  O17  1  0.73077600  0.37365100  0.89428400  1
  O  O18  1  0.15902100  0.76386100  0.69985800  1
  O  O19  1  0.85184800  0.23849000  0.27986300  1
  O  O20  1  0.25767800  0.62584800  0.11902500  1
  F  F1  1  0.27604000  0.77661700  0.14492000  1
  F  F2  1  0.93749600  0.97219000  0.19637300  1
