# generated using pymatgen
data_FeH13C32S4O9
_symmetry_space_group_name_H-M   'P 1'
_cell_length_a   15.36295400
_cell_length_b   20.18375700
_cell_length_c   21.60636500
_cell_angle_alpha   102.25502100
_cell_angle_beta   105.02364700
_cell_angle_gamma   70.29122200
_symmetry_Int_Tables_number   1
_chemical_formula_structural   FeH13C32S4O9
_chemical_formula_sum   'Fe2 H26 C64 S8 O18'
_cell_volume   6033.98284279
_cell_formula_units_Z   2
loop_
 _symmetry_equiv_pos_site_id
 _symmetry_equiv_pos_as_xyz
  1  'x, y, z'
loop_
 _atom_site_type_symbol
 _atom_site_label
 _atom_site_symmetry_multiplicity
 _atom_site_fract_x
 _atom_site_fract_y
 _atom_site_fract_z
 _atom_site_occupancy
  Fe  Fe1  1  0.48957200  0.99763000  0.86029200  1
  Fe  Fe2  1  0.50997000  0.00281400  0.13926800  1
  H  H1  1  0.79239500  0.01987400  0.16105600  1
  H  H2  1  0.82368800  0.01190400  0.93941000  1
  H  H3  1  0.01892300  0.05266100  0.06197800  1
  H  H4  1  0.97733900  0.95399700  0.93678700  1
  H  H5  1  0.06123500  0.97080500  0.85984000  1
  H  H6  1  0.20598400  0.97844600  0.83879000  1
  H  H7  1  0.17245700  0.99770100  0.06208500  1
  H  H8  1  0.97034900  0.49280500  0.37943400  1
  H  H9  1  0.00945100  0.49698600  0.61263600  1
  H  H10  1  0.72538000  0.77589100  0.45115800  1
  H  H11  1  0.27419600  0.22139500  0.53562200  1
  H  H12  1  0.27087200  0.22793900  0.42876800  1
  H  H13  1  0.65371800  0.77116200  0.16884900  1
  H  H14  1  0.74268200  0.67092900  0.23663300  1
  H  H15  1  0.17156100  0.33350700  0.23357400  1
  H  H16  1  0.27941500  0.25652000  0.15922500  1
  H  H17  1  0.34551600  0.22297900  0.82196800  1
  H  H18  1  0.25233700  0.32145100  0.75357500  1
  H  H19  1  0.83556000  0.66625200  0.76561500  1
  H  H20  1  0.73659900  0.74272600  0.84559900  1
  H  H21  1  0.82693300  0.83899000  0.60310500  1
  H  H22  1  0.71111100  0.89809800  0.61225800  1
  H  H23  1  0.74282400  0.87568800  0.53396200  1
  H  H24  1  0.05496500  0.92779200  0.11847700  1
  H  H25  1  0.07091600  0.94269200  0.20530800  1
  H  H26  1  0.10929700  0.99481300  0.16542300  1
  C  C1  1  0.79877400  0.01899100  0.11221000  1
  C  C2  1  0.88289900  0.01997400  0.10140100  1
  C  C3  1  0.89339300  0.01522000  0.03854600  1
  C  C4  1  0.81786600  0.01095600  0.98788300  1
  C  C5  1  0.73401800  0.00794500  0.99850300  1
  C  C6  1  0.72584700  0.01017700  0.06157800  1
  C  C7  1  0.98115500  0.02021900  0.02628000  1
  C  C8  1  0.01565700  0.98532600  0.97350200  1
  C  C9  1  0.11741700  0.97868500  0.89998300  1
  C  C10  1  0.19947000  0.98237300  0.88815600  1
  C  C11  1  0.27114500  0.99455300  0.93854300  1
  C  C12  1  0.26267400  0.99866500  0.00197900  1
  C  C13  1  0.17903100  0.99598600  0.01324300  1
  C  C14  1  0.10522200  0.98803800  0.96255000  1
  C  C15  1  0.41072100  0.08481300  0.76313700  1
  C  C16  1  0.35099800  0.00680500  0.92258100  1
  C  C17  1  0.65622200  0.00453300  0.94212000  1
  C  C18  1  0.59776200  0.86836000  0.81247800  1
  C  C19  1  0.40943000  0.13022400  0.19330700  1
  C  C20  1  0.34053700  0.00246800  0.05809800  1
  C  C21  1  0.64594000  0.99753200  0.07694000  1
  C  C22  1  0.59579300  0.91012000  0.22983800  1
  C  C23  1  0.09706300  0.37996900  0.42546400  1
  C  C24  1  0.16057900  0.32352300  0.45442100  1
  C  C25  1  0.16972900  0.32339000  0.51958300  1
  C  C26  1  0.11830500  0.38110000  0.55516600  1
  C  C27  1  0.05348000  0.43839300  0.52608200  1
  C  C28  1  0.04236800  0.43734900  0.46037900  1
  C  C29  1  0.00069300  0.49638300  0.56153500  1
  C  C30  1  0.93795000  0.55365000  0.53167300  1
  C  C31  1  0.92724100  0.55227000  0.46605900  1
  C  C32  1  0.97882800  0.49391200  0.43052700  1
  C  C33  1  0.88497600  0.61256600  0.56645800  1
  C  C34  1  0.82577900  0.67131500  0.53819600  1
  C  C35  1  0.81813800  0.67052200  0.47223000  1
  C  C36  1  0.86547400  0.61011900  0.43684500  1
  C  C37  1  0.76613600  0.72374500  0.43445600  1
  C  C38  1  0.77007100  0.70337700  0.36996400  1
  C  C39  1  0.79831100  0.70333800  0.64288400  1
  C  C40  1  0.77790100  0.72357300  0.58155000  1
  C  C41  1  0.22907700  0.27070400  0.55561700  1
  C  C42  1  0.22582300  0.28891400  0.62056900  1
  C  C43  1  0.19312000  0.29395900  0.35267300  1
  C  C44  1  0.21439900  0.27411600  0.41365300  1
  C  C45  1  0.72341200  0.74827600  0.32346400  1
  C  C46  1  0.75339300  0.73936100  0.69444500  1
  C  C47  1  0.27768500  0.24477900  0.66707300  1
  C  C48  1  0.24376700  0.25910700  0.30456500  1
  C  C49  1  0.63781900  0.84408800  0.25781100  1
  C  C50  1  0.66563200  0.77898000  0.22107400  1
  C  C51  1  0.71491200  0.72523000  0.25789200  1
  C  C52  1  0.22587400  0.28561800  0.24711100  1
  C  C53  1  0.28509400  0.24450300  0.20680200  1
  C  C54  1  0.34908700  0.18560200  0.23215400  1
  C  C55  1  0.36806000  0.15018800  0.73379600  1
  C  C56  1  0.33583400  0.21496500  0.76985100  1
  C  C57  1  0.28412700  0.26782000  0.73255500  1
  C  C58  1  0.77870500  0.71329700  0.75311000  1
  C  C59  1  0.72454700  0.75427600  0.79692800  1
  C  C60  1  0.65632500  0.81235700  0.77310800  1
  C  C61  1  0.71432300  0.79287000  0.56538600  1
  C  C62  1  0.75109100  0.85533300  0.57960000  1
  C  C63  1  0.95991300  0.02343000  0.15778000  1
  C  C64  1  0.05464700  0.96884600  0.16168100  1
  S  S1  1  0.84102200  0.61414900  0.35162800  1
  S  S2  1  0.88674300  0.61916600  0.65045800  1
  S  S3  1  0.14622900  0.37517700  0.63999900  1
  S  S4  1  0.09791400  0.37428400  0.34199400  1
  S  S5  1  0.66997000  0.84196500  0.34313700  1
  S  S6  1  0.33946800  0.17800300  0.31115300  1
  S  S7  1  0.33797000  0.15208500  0.64814400  1
  S  S8  1  0.65496300  0.81935200  0.69214700  1
  O  O1  1  0.45208900  0.08809600  0.82467200  1
  O  O2  1  0.37054200  0.06693700  0.94567900  1
  O  O3  1  0.40067700  0.02469800  0.72946800  1
  O  O4  1  0.39609400  0.96145800  0.87964900  1
  O  O5  1  0.57089300  0.01038500  0.94838000  1
  O  O6  1  0.67186400  0.99701200  0.88378400  1
  O  O7  1  0.54580300  0.92777500  0.78947100  1
  O  O8  1  0.60287300  0.86194000  0.87258400  1
  O  O9  1  0.45645000  0.06845900  0.21317100  1
  O  O10  1  0.40863200  0.13948600  0.13484600  1
  O  O11  1  0.42611800  0.99508000  0.05140900  1
  O  O12  1  0.32560000  0.00923400  0.11651200  1
  O  O13  1  0.61036300  0.96895200  0.26358500  1
  O  O14  1  0.60277500  0.04098500  0.12165900  1
  O  O15  1  0.54776300  0.90950800  0.16997400  1
  O  O16  1  0.62571400  0.93788700  0.05232900  1
  O  O17  1  0.63177000  0.79938400  0.53956500  1
  O  O18  1  0.94338100  0.06692300  0.20516700  1
