# generated using pymatgen
data_CuH20C29NO4
_symmetry_space_group_name_H-M   'P 1'
_cell_length_a   10.86862400
_cell_length_b   19.34795600
_cell_length_c   17.93976000
_cell_angle_alpha   89.98399400
_cell_angle_beta   89.98378400
_cell_angle_gamma   90.00445400
_symmetry_Int_Tables_number   1
_chemical_formula_structural   CuH20C29NO4
_chemical_formula_sum   'Cu2 H40 C58 N2 O8'
_cell_volume   3772.47394298
_cell_formula_units_Z   2
loop_
 _symmetry_equiv_pos_site_id
 _symmetry_equiv_pos_as_xyz
  1  'x, y, z'
loop_
 _atom_site_type_symbol
 _atom_site_label
 _atom_site_symmetry_multiplicity
 _atom_site_fract_x
 _atom_site_fract_y
 _atom_site_fract_z
 _atom_site_occupancy
  Cu  Cu1  1  0.50096200  0.50291600  0.57451100  1
  Cu  Cu2  1  0.49924300  0.49679300  0.42549800  1
  H  H1  1  0.25187500  0.67838200  0.21934700  1
  H  H2  1  0.74830500  0.32111700  0.78064100  1
  H  H3  1  0.28363100  0.71520900  0.34904900  1
  H  H4  1  0.71630100  0.28439600  0.65092800  1
  H  H5  1  0.19624500  0.64748900  0.45187800  1
  H  H6  1  0.80365900  0.35213300  0.54810500  1
  H  H7  1  0.04374800  0.50562400  0.29482200  1
  H  H8  1  0.95665100  0.49380100  0.70519600  1
  H  H9  1  0.13118800  0.57382000  0.19244000  1
  H  H10  1  0.86922700  0.42558800  0.80756700  1
  H  H11  1  0.88209600  0.54753900  0.39544600  1
  H  H12  1  0.11808300  0.45199300  0.60455100  1
  H  H13  1  0.55419800  0.71860500  0.37692300  1
  H  H14  1  0.44596800  0.28113800  0.62307600  1
  H  H15  1  0.55471500  0.84444400  0.37893100  1
  H  H16  1  0.44549500  0.15530100  0.62108300  1
  H  H17  1  0.44754000  0.84101900  0.60834800  1
  H  H18  1  0.55305200  0.15870200  0.39173800  1
  H  H19  1  0.44854100  0.71685000  0.60667700  1
  H  H20  1  0.55210400  0.28286700  0.39339700  1
  H  H21  1  0.58637100  0.93416600  0.60483600  1
  H  H22  1  0.41403000  0.06558100  0.39521500  1
  H  H23  1  0.58204800  0.05909500  0.61065600  1
  H  H24  1  0.41831900  0.94065200  0.38939900  1
  H  H25  1  0.36991400  0.42903600  0.69006800  1
  H  H26  1  0.62891900  0.57186800  0.31007200  1
  H  H27  1  0.36568500  0.42212300  0.82510600  1
  H  H28  1  0.63228800  0.57943500  0.17506000  1
  H  H29  1  0.63278300  0.58214400  0.83590300  1
  H  H30  1  0.36676700  0.41862100  0.16391800  1
  H  H31  1  0.69592700  0.51022900  0.93349200  1
  H  H32  1  0.30260300  0.49111800  0.06661100  1
  H  H33  1  0.69426900  0.51205800  0.06842000  1
  H  H34  1  0.30419900  0.48939700  0.93164700  1
  H  H35  1  0.71621900  0.62905500  0.73671900  1
  H  H36  1  0.72557800  0.58113700  0.65316100  1
  H  H37  1  0.60477100  0.64521600  0.66697500  1
  H  H38  1  0.28437500  0.37096600  0.26313800  1
  H  H39  1  0.39768900  0.35437500  0.33171300  1
  H  H40  1  0.27642200  0.41775700  0.34752900  1
  C  C1  1  0.49543900  0.36712900  0.50686000  1
  C  C2  1  0.50489100  0.63261500  0.49315300  1
  C  C3  1  0.26340800  0.50464400  0.50128700  1
  C  C4  1  0.73675600  0.49491700  0.49872600  1
  C  C5  1  0.23185800  0.66879100  0.33730000  1
  C  C6  1  0.76816800  0.33077900  0.66268500  1
  C  C7  1  0.18321800  0.63045500  0.39504100  1
  C  C8  1  0.81679100  0.36912700  0.60494800  1
  C  C9  1  0.11662100  0.57115200  0.38019200  1
  C  C10  1  0.88352700  0.42837900  0.61980700  1
  C  C11  1  0.09683200  0.55147600  0.30713700  1
  C  C12  1  0.90346100  0.44799000  0.69286900  1
  C  C13  1  0.14604500  0.58969900  0.24950000  1
  C  C14  1  0.85425600  0.40975800  0.75050200  1
  C  C15  1  0.21372700  0.64828300  0.26456400  1
  C  C16  1  0.78644200  0.35122500  0.73542800  1
  C  C17  1  0.93380300  0.52477300  0.44065300  1
  C  C18  1  0.06636200  0.47475600  0.55934800  1
  C  C19  1  0.87226400  0.49385400  0.49910400  1
  C  C20  1  0.12789900  0.50568000  0.50090000  1
  C  C21  1  0.93989600  0.46781600  0.55883500  1
  C  C22  1  0.06026400  0.53171500  0.44116700  1
  C  C23  1  0.53062500  0.74520700  0.42793200  1
  C  C24  1  0.46964900  0.25453700  0.57208500  1
  C  C25  1  0.53021800  0.81669400  0.42906800  1
  C  C26  1  0.47007000  0.18305000  0.57095900  1
  C  C27  1  0.50259300  0.85206500  0.49412500  1
  C  C28  1  0.49779800  0.14767500  0.50592300  1
  C  C29  1  0.47357400  0.81498400  0.55745700  1
  C  C30  1  0.52693000  0.18474700  0.44260700  1
  C  C31  1  0.47378800  0.74393800  0.55631600  1
  C  C32  1  0.52672100  0.25579300  0.44373900  1
  C  C33  1  0.50328800  0.70845400  0.49187000  1
  C  C34  1  0.49708900  0.29128600  0.50815800  1
  C  C35  1  0.54671800  0.96244300  0.55878300  1
  C  C36  1  0.45366900  0.03730000  0.44127000  1
  C  C37  1  0.54412300  0.03363300  0.56223400  1
  C  C38  1  0.45625200  0.96611100  0.43782100  1
  C  C39  1  0.49769100  0.07166500  0.50345300  1
  C  C40  1  0.50269200  0.92807700  0.49660000  1
  C  C41  1  0.42877100  0.46308900  0.72172400  1
  C  C42  1  0.57009100  0.53784700  0.27836100  1
  C  C43  1  0.42562600  0.45932300  0.79861100  1
  C  C44  1  0.57278100  0.54197500  0.20149100  1
  C  C45  1  0.50091800  0.50136400  0.84054600  1
  C  C46  1  0.49768100  0.49989200  0.15948400  1
  C  C47  1  0.57666100  0.54691600  0.80393400  1
  C  C48  1  0.42261600  0.45391500  0.19598200  1
  C  C49  1  0.57781400  0.55034400  0.72704500  1
  C  C50  1  0.42210900  0.45003300  0.27284700  1
  C  C51  1  0.60863000  0.50687700  0.96211100  1
  C  C52  1  0.38985700  0.49456600  0.03795300  1
  C  C53  1  0.60783800  0.50814400  0.03896300  1
  C  C54  1  0.39063400  0.49333800  0.96109300  1
  C  C55  1  0.49844000  0.50186400  0.07752000  1
  C  C56  1  0.50004700  0.49959300  0.92252900  1
  C  C57  1  0.65997600  0.60387300  0.69298700  1
  C  C58  1  0.34130600  0.39580000  0.30677600  1
  N  N1  1  0.50299800  0.50837200  0.68610400  1
  N  N2  1  0.49657800  0.49212100  0.31386900  1
  O  O1  1  0.49208700  0.40209100  0.56961400  1
  O  O2  1  0.50832200  0.59760000  0.43059900  1
  O  O3  1  0.49946200  0.39706500  0.44156900  1
  O  O4  1  0.50054800  0.60260900  0.55823800  1
  O  O5  1  0.32178300  0.50272900  0.56531700  1
  O  O6  1  0.67843700  0.49685200  0.43460400  1
  O  O7  1  0.32107000  0.50259000  0.43741900  1
  O  O8  1  0.67916800  0.49721300  0.56268700  1
