# generated using pymatgen
data_Fe2H26C67(NO10)2
_symmetry_space_group_name_H-M   'P 1'
_cell_length_a   17.75215000
_cell_length_b   9.48750500
_cell_length_c   23.13445600
_cell_angle_alpha   84.25846900
_cell_angle_beta   76.66281600
_cell_angle_gamma   109.40960300
_symmetry_Int_Tables_number   1
_chemical_formula_structural   Fe2H26C67(NO10)2
_chemical_formula_sum   'Fe2 H26 C67 N2 O20'
_cell_volume   3508.92165173
_cell_formula_units_Z   1
loop_
 _symmetry_equiv_pos_site_id
 _symmetry_equiv_pos_as_xyz
  1  'x, y, z'
loop_
 _atom_site_type_symbol
 _atom_site_label
 _atom_site_symmetry_multiplicity
 _atom_site_fract_x
 _atom_site_fract_y
 _atom_site_fract_z
 _atom_site_occupancy
  Fe  Fe1  1  0.50093500  0.01485300  0.10432600  1
  Fe  Fe2  1  0.50067300  0.98040300  0.88931500  1
  H  H1  1  0.22221600  0.01002600  0.14570000  1
  H  H2  1  0.09026100  0.02736300  0.17224500  1
  H  H3  1  0.22656300  0.85801300  0.90633700  1
  H  H4  1  0.97031700  0.03877100  0.14710500  1
  H  H5  1  0.10996700  0.86312600  0.87912700  1
  H  H6  1  0.90237100  0.14010400  0.10846100  1
  H  H7  1  0.00813500  0.87469800  0.85586800  1
  H  H8  1  0.78471400  0.15013600  0.08249600  1
  H  H9  1  0.88777200  0.88656600  0.83314200  1
  H  H10  1  0.76064500  0.92498600  0.85867500  1
  H  H11  1  0.34463900  0.60289400  0.47264800  1
  H  H12  1  0.35030100  0.60529600  0.57584100  1
  H  H13  1  0.68534400  0.41490300  0.51484200  1
  H  H14  1  0.67960200  0.41228500  0.41149800  1
  H  H15  1  0.52336400  0.29352300  0.72110100  1
  H  H16  1  0.53236000  0.75093900  0.69366200  1
  H  H17  1  0.50426600  0.72244500  0.26710400  1
  H  H18  1  0.49601400  0.26589800  0.29384300  1
  H  H19  1  0.52367500  0.53835200  0.86647100  1
  H  H20  1  0.56099700  0.48516700  0.05814400  1
  H  H21  1  0.50240200  0.45584500  0.97231600  1
  H  H22  1  0.38786600  0.39966500  0.93185100  1
  H  H23  1  0.31513700  0.48316700  0.96656200  1
  H  H24  1  0.28949000  0.27980400  0.98443600  1
  H  H25  1  0.26205800  0.37796300  0.08875000  1
  H  H26  1  0.32134400  0.40820900  0.17467200  1
  C  C1  1  0.21547600  0.98759200  0.10189900  1
  C  C2  1  0.08454300  0.01298600  0.12748700  1
  C  C3  1  0.28037600  0.97245400  0.06074100  1
  C  C4  1  0.27355500  0.94992600  0.00334700  1
  C  C5  1  0.14539300  0.98745200  0.08642700  1
  C  C6  1  0.13643700  0.96311800  0.03039700  1
  C  C7  1  0.19865100  0.93623300  0.99007800  1
  C  C8  1  0.18474200  0.89598700  0.93675400  1
  C  C9  1  0.01655300  0.02344400  0.11178200  1
  C  C10  1  0.00819900  0.00839200  0.05413600  1
  C  C11  1  0.06631800  0.96926200  0.01450400  1
  C  C12  1  0.05516400  0.93788700  0.95907300  1
  C  C13  1  0.11442100  0.89612400  0.92158300  1
  C  C14  1  0.89001500  0.08981300  0.07036200  1
  C  C15  1  0.94183100  0.02787100  0.03625600  1
  C  C16  1  0.92844500  0.99076800  0.98214000  1
  C  C17  1  0.98448500  0.94495300  0.94332400  1
  C  C18  1  0.96870800  0.90973100  0.88913900  1
  C  C19  1  0.82079500  0.09620800  0.05529900  1
  C  C20  1  0.80098100  0.04116800  0.00566100  1
  C  C21  1  0.85798900  0.99811700  0.96712500  1
  C  C22  1  0.84331800  0.95898600  0.91406000  1
  C  C23  1  0.72581300  0.03106600  0.99385700  1
  C  C24  1  0.71294300  0.99308000  0.93947500  1
  C  C25  1  0.89891300  0.91656400  0.87509700  1
  C  C26  1  0.77235000  0.95945600  0.89990600  1
  C  C27  1  0.65556300  0.03008700  0.04285800  1
  C  C28  1  0.48614700  0.73830700  0.15468400  1
  C  C29  1  0.35906500  0.01307900  0.07626900  1
  C  C30  1  0.47892500  0.20877300  0.18638800  1
  C  C31  1  0.52598500  0.79402400  0.80649100  1
  C  C32  1  0.63274400  0.96022600  0.92641100  1
  C  C33  1  0.52146100  0.26808700  0.83901600  1
  C  C34  1  0.34819100  0.96954100  0.95407100  1
  C  C35  1  0.56701000  0.47164600  0.36475600  1
  C  C36  1  0.44919000  0.53882100  0.38639200  1
  C  C37  1  0.45218100  0.54204700  0.44544800  1
  C  C38  1  0.51356200  0.50865800  0.46415300  1
  C  C39  1  0.57149400  0.47349500  0.42364000  1
  C  C40  1  0.39357300  0.57652400  0.48609200  1
  C  C41  1  0.39676900  0.57776500  0.54497100  1
  C  C42  1  0.45861300  0.54460000  0.56360200  1
  C  C43  1  0.51677500  0.50991000  0.52314400  1
  C  C44  1  0.57799200  0.47620500  0.54201700  1
  C  C45  1  0.63652300  0.44152700  0.50132100  1
  C  C46  1  0.63327900  0.44016200  0.44236500  1
  C  C47  1  0.46259500  0.54569000  0.62250500  1
  C  C48  1  0.58054000  0.47882800  0.60130400  1
  C  C49  1  0.52601800  0.39624700  0.73837400  1
  C  C50  1  0.52489400  0.40111600  0.79818100  1
  C  C51  1  0.52397600  0.53137300  0.82020500  1
  C  C52  1  0.52620100  0.65650100  0.78281600  1
  C  C53  1  0.52988900  0.65235500  0.72297800  1
  C  C54  1  0.52761300  0.52133600  0.70094000  1
  C  C55  1  0.49730900  0.61732400  0.25076400  1
  C  C56  1  0.48628500  0.60580900  0.19391400  1
  C  C57  1  0.47784200  0.46999400  0.17361000  1
  C  C58  1  0.48461200  0.35012000  0.20869100  1
  C  C59  1  0.49429400  0.36207700  0.26561600  1
  C  C60  1  0.49980700  0.49480200  0.28707500  1
  C  C61  1  0.44401700  0.44216300  0.12224300  1
  C  C62  1  0.49500100  0.45804400  0.06516600  1
  C  C63  1  0.46185800  0.44266700  0.01670900  1
  C  C64  1  0.37784600  0.41221000  0.02518600  1
  C  C65  1  0.34057000  0.39278400  0.97372300  1
  C  C66  1  0.32756400  0.39994700  0.08200500  1
  C  C67  1  0.36074400  0.41600400  0.13027500  1
  N  N1  1  0.50618000  0.50375300  0.34710200  1
  N  N2  1  0.52339400  0.51408100  0.64037400  1
  O  O1  1  0.59572500  0.06926200  0.03084700  1
  O  O2  1  0.49752400  0.74291500  0.09634000  1
  O  O3  1  0.64688000  0.97032600  0.09875500  1
  O  O4  1  0.48491300  0.86161700  0.17525600  1
  O  O5  1  0.39718200  0.91690800  0.07978300  1
  O  O6  1  0.38460300  0.13921200  0.09647700  1
  O  O7  1  0.52224800  0.21596000  0.13103800  1
  O  O8  1  0.43335300  0.07660700  0.22211700  1
  O  O9  1  0.47609000  0.78216800  0.86000800  1
  O  O10  1  0.57739900  0.92826600  0.77502600  1
  O  O11  1  0.60608100  0.06975400  0.91298200  1
  O  O12  1  0.59285700  0.82209400  0.91967500  1
  O  O13  1  0.35892900  0.04416300  0.90010300  1
  O  O14  1  0.51714700  0.13976400  0.82037300  1
  O  O15  1  0.40725400  0.92423700  0.96393500  1
  O  O16  1  0.51780800  0.27408100  0.89594200  1
  O  O17  1  0.62426200  0.44025900  0.32459300  1
  O  O18  1  0.38756800  0.56569000  0.36851100  1
  O  O19  1  0.40450500  0.57520000  0.66263900  1
  O  O20  1  0.64142400  0.45037400  0.61970200  1
