# generated using pymatgen
data_Fe2H19C43N5O17
_symmetry_space_group_name_H-M   'P 1'
_cell_length_a   14.23551600
_cell_length_b   9.16883900
_cell_length_c   17.42986500
_cell_angle_alpha   86.78358900
_cell_angle_beta   90.66971900
_cell_angle_gamma   111.11704500
_symmetry_Int_Tables_number   1
_chemical_formula_structural   Fe2H19C43N5O17
_chemical_formula_sum   'Fe2 H19 C43 N5 O17'
_cell_volume   2118.79460580
_cell_formula_units_Z   1
loop_
 _symmetry_equiv_pos_site_id
 _symmetry_equiv_pos_as_xyz
  1  'x, y, z'
loop_
 _atom_site_type_symbol
 _atom_site_label
 _atom_site_symmetry_multiplicity
 _atom_site_fract_x
 _atom_site_fract_y
 _atom_site_fract_z
 _atom_site_occupancy
  Fe  Fe1  1  0.53001700  0.03217700  0.20983700  1
  Fe  Fe2  1  0.47354600  0.99156700  0.79943500  1
  H  H1  1  0.91558900  0.22297000  0.23163900  1
  H  H2  1  0.71720800  0.72418500  0.80986500  1
  H  H3  1  0.88572200  0.69009100  0.81228500  1
  H  H4  1  0.08118800  0.79400400  0.77256100  1
  H  H5  1  0.29580100  0.92447500  0.00986600  1
  H  H6  1  0.10816300  0.31847400  0.19558400  1
  H  H7  1  0.70055200  0.08635800  0.99638600  1
  H  H8  1  0.01216300  0.85429700  0.00166100  1
  H  H9  1  0.98619900  0.16156700  0.00307800  1
  H  H10  1  0.47432600  0.14710400  0.59156300  1
  H  H11  1  0.44381700  0.52182500  0.75867600  1
  H  H12  1  0.56803300  0.49771700  0.24860400  1
  H  H13  1  0.52353900  0.76986500  0.54471600  1
  H  H14  1  0.51015800  0.74608600  0.42727400  1
  H  H15  1  0.15242000  0.06969000  0.26193200  1
  H  H16  1  0.17733500  0.24174700  0.31624800  1
  H  H17  1  0.33548600  0.21452400  0.36272000  1
  H  H18  1  0.22730100  0.03990300  0.38633100  1
  H  H19  1  0.30847000  0.04198700  0.30689600  1
  C  C1  1  0.71378100  0.89807300  0.89054700  1
  C  C2  1  0.75199800  0.80097300  0.85525800  1
  C  C3  1  0.84562800  0.82738100  0.88607700  1
  C  C4  1  0.78454600  0.97571600  0.94343300  1
  C  C5  1  0.90923800  0.76454300  0.86042500  1
  C  C6  1  0.01517000  0.81305800  0.88284400  1
  C  C7  1  0.09028100  0.81989600  0.83254800  1
  C  C8  1  0.17894700  0.87218100  0.87250900  1
  C  C9  1  0.15452200  0.89378100  0.94663200  1
  C  C10  1  0.22644600  0.94773800  0.00973800  1
  C  C11  1  0.21159400  0.03399400  0.06394600  1
  C  C12  1  0.27775800  0.09864600  0.12259100  1
  C  C13  1  0.23699100  0.19082100  0.15915300  1
  C  C14  1  0.14871500  0.17912300  0.12285500  1
  C  C15  1  0.08665400  0.24694200  0.14636900  1
  C  C16  1  0.98235300  0.20562600  0.12152700  1
  C  C17  1  0.90706300  0.19943100  0.17135600  1
  C  C18  1  0.81887700  0.14750500  0.13110800  1
  C  C19  1  0.84382700  0.12632800  0.05717000  1
  C  C20  1  0.77134800  0.06771800  0.99524300  1
  C  C21  1  0.72091300  0.10624400  0.16863900  1
  C  C22  1  0.54443400  0.76300000  0.27750100  1
  C  C23  1  0.37898700  0.09944800  0.13994800  1
  C  C24  1  0.54123700  0.23161100  0.32835300  1
  C  C25  1  0.45914600  0.52040900  0.69821200  1
  C  C26  1  0.47994900  0.65553900  0.65241600  1
  C  C27  1  0.50406400  0.65869000  0.57621800  1
  C  C28  1  0.46852600  0.38915600  0.66952100  1
  C  C29  1  0.48830600  0.38953700  0.59100200  1
  C  C30  1  0.50298600  0.52367400  0.54328600  1
  C  C31  1  0.51793400  0.51979600  0.46400700  1
  C  C32  1  0.52238400  0.64293900  0.41107100  1
  C  C33  1  0.54084600  0.63511100  0.33387800  1
  C  C34  1  0.49029100  0.25628300  0.55874200  1
  C  C35  1  0.52452900  0.38530000  0.43630200  1
  C  C36  1  0.54392500  0.37826900  0.35936400  1
  C  C37  1  0.55564000  0.50515500  0.30903500  1
  C  C38  1  0.61462300  0.90414400  0.87251200  1
  C  C39  1  0.48582900  0.79995600  0.68664700  1
  C  C40  1  0.27689600  0.90943300  0.83533600  1
  C  C41  1  0.45492500  0.25399000  0.72445100  1
  C  C42  1  0.21235900  0.17270700  0.28444300  1
  C  C43  1  0.27555000  0.11350700  0.33880700  1
  N  N1  1  0.86576300  0.93289800  0.94047700  1
  N  N2  1  0.05376300  0.85712200  0.95245200  1
  N  N3  1  0.13218300  0.08224000  0.06477900  1
  N  N4  1  0.94447000  0.16175300  0.05174800  1
  N  N5  1  0.51016100  0.25844700  0.48368200  1
  O  O1  1  0.63574600  0.06645100  0.13096000  1
  O  O2  1  0.58992600  0.77540400  0.21111900  1
  O  O3  1  0.71852100  0.10622800  0.24383600  1
  O  O4  1  0.50141500  0.86373500  0.29221500  1
  O  O5  1  0.39743100  0.96990900  0.15536600  1
  O  O6  1  0.44727200  0.23330200  0.15711300  1
  O  O7  1  0.58224600  0.23674700  0.26085100  1
  O  O8  1  0.48373100  0.09685900  0.36061100  1
  O  O9  1  0.60052300  0.03800900  0.86051400  1
  O  O10  1  0.54529400  0.77554200  0.85052000  1
  O  O11  1  0.42223500  0.79556200  0.74131700  1
  O  O12  1  0.56291000  0.92914600  0.67035300  1
  O  O13  1  0.39046100  0.22726800  0.78138700  1
  O  O14  1  0.36178400  0.95335200  0.87359600  1
  O  O15  1  0.51330400  0.17057500  0.72223100  1
  O  O16  1  0.27943600  0.90551500  0.76032200  1
  O  O17  1  0.27281300  0.26743300  0.22462800  1
