# Generated by REPEAT Assigner based on pymatgen
data_DB0-m3_o42_o155_f0_fsc.sym.17
_audit_creation_date              2022-05-24
_audit_creation_method            REPEAT_Assigner
_cell_length_a                    8.550452
_cell_length_b                    10.934161
_cell_length_c                    17.642174
_cell_angle_alpha                 90.000000
_cell_angle_beta                  90.000000
_cell_angle_gamma                 90.000000
_cell_volume                      1649.402453
_symmetry_space_group_name_H-M    P1
_symmetry_Int_Tables_number       1
loop_
    _symmetry_equiv_pos_site_id
    _symmetry_equiv_pos_as_xyz
    1  x,y,z
loop_
    _atom_site_type_symbol
    _atom_site_label
    _atom_site_fract_x
    _atom_site_fract_y
    _atom_site_fract_z
    _atom_type_partial_charge
    C   C1   0.138354  0.739867  0.005505  0.157160
    C   C2   0.861198  0.260209  0.994303  0.101492
    C   C3   0.138354  0.260133  0.994495  0.157139
    C   C4   0.861198  0.739790  0.005697  0.101439
    C   C5   0.139649  0.865302  0.997411  -0.250164
    C   C6   0.859621  0.134728  0.001714  -0.243148
    C   C7   0.139649  0.134698  0.002589  -0.250224
    C   C8   0.859621  0.865272  0.998286  -0.242974
    H   H1   0.252133  0.907292  0.989986  0.141403
    H   H2   0.746800  0.092922  0.008081  0.149462
    H   H3   0.252133  0.092708  0.010014  0.141416
    H   H4   0.746800  0.907078  0.991919  0.149443
    C   C9   0.999640  0.931568  0.999780  0.082829
    C   C10  0.999640  0.068432  0.000220  0.083004
    C   C11  0.504039  0.600354  0.223010  0.131322
    C   C12  0.504039  0.399646  0.776990  0.131139
    C   C13  0.495912  0.386276  0.224299  0.144139
    C   C14  0.495912  0.613724  0.775701  0.144184
    N   N1   0.499758  0.492496  0.185293  -0.018364
    N   N2   0.499758  0.507504  0.814707  -0.018261
    C   C15  0.999830  0.680253  0.015971  -0.315903
    C   C16  0.999830  0.319747  0.984029  -0.315874
    C   C17  0.496387  0.610866  0.538651  0.054496
    C   C18  0.496387  0.389134  0.461349  0.054589
    C   C19  0.505046  0.391289  0.540495  0.049394
    C   C20  0.505046  0.608711  0.459505  0.049507
    C   C21  0.500607  0.502085  0.578827  -0.040313
    C   C22  0.500607  0.497915  0.421173  -0.040346
    H   H5   0.536534  0.798492  0.310922  0.085727
    H   H6   0.536534  0.201508  0.689078  0.085664
    H   H7   0.467317  0.192207  0.315453  0.076364
    H   H8   0.467317  0.807793  0.684547  0.076341
    H   H9   0.999910  0.584296  0.027840  0.142427
    H   H10  0.999910  0.415704  0.972160  0.142429
    C   C23  0.481423  0.719677  0.578864  -0.202892
    C   C24  0.481423  0.280323  0.421136  -0.202926
    C   C25  0.520922  0.284649  0.582496  -0.201058
    C   C26  0.520922  0.715351  0.417504  -0.201111
    O   O1   0.333453  0.631874  0.935717  -0.670522
    O   O2   0.665886  0.367968  0.064272  -0.580973
    O   O3   0.667790  0.380614  0.933648  -0.637038
    O   O4   0.331924  0.619545  0.066329  -0.573237
    O   O5   0.333453  0.368126  0.064283  -0.670519
    O   O6   0.665886  0.632032  0.935728  -0.580995
    O   O7   0.667790  0.619386  0.066352  -0.637007
    O   O8   0.331924  0.380455  0.933671  -0.573263
    C   C27  0.500554  0.495896  0.342202  0.244856
    C   C28  0.500554  0.504104  0.657798  0.244917
    C   C29  0.280392  0.665645  0.002469  0.678696
    C   C30  0.719179  0.334422  0.997474  0.684575
    C   C31  0.280392  0.334355  0.997531  0.678689
    C   C32  0.719179  0.665578  0.002526  0.684638
    H   H11  0.464448  0.807023  0.552297  0.140403
    H   H12  0.464448  0.192977  0.447703  0.140394
    H   H13  0.538713  0.196177  0.557547  0.139941
    H   H14  0.538713  0.803823  0.442453  0.139933
    C   C33  0.508337  0.603017  0.301563  -0.101806
    C   C34  0.508337  0.396982  0.698437  -0.101818
    C   C35  0.492802  0.386922  0.303114  -0.117517
    C   C36  0.492802  0.613077  0.696886  -0.117577
    Zn  Zn1  0.499763  0.494125  0.085626  0.965349
    Zn  Zn2  0.499763  0.505874  0.914374  0.965353
    C   C37  0.521917  0.712453  0.339847  -0.071513
    C   C38  0.521917  0.287547  0.660153  -0.071474
    C   C39  0.480518  0.279362  0.343307  -0.064732
    C   C40  0.480518  0.720638  0.656693  -0.064704
    S   S1   0.497790  0.244306  0.173733  -0.114771
    C   C41  0.702198  0.218177  0.196377  0.098650
    H   H15  0.761556  0.175739  0.147128  0.014559
    H   H16  0.711846  0.156883  0.246221  -0.025621
    H   H17  0.759367  0.306881  0.209084  -0.003943
    S   S2   0.497790  0.755694  0.826267  -0.114837
    C   C42  0.702198  0.781823  0.803623  0.098624
    H   H18  0.761556  0.824260  0.852872  0.014539
    H   H19  0.711846  0.843117  0.753779  -0.025602
    H   H20  0.759367  0.693119  0.790916  -0.003926
    S   S3   0.500898  0.741873  0.171706  -0.136655
    C   C43  0.297376  0.769407  0.195688  0.100204
    H   H21  0.237529  0.813176  0.146990  0.018232
    H   H22  0.289700  0.830141  0.245870  -0.030633
    H   H23  0.239172  0.681070  0.208281  -0.001078
    S   S4   0.500898  0.258127  0.828294  -0.136524
    C   C44  0.297376  0.230593  0.804312  0.100593
    H   H24  0.237529  0.186824  0.853010  0.018131
    H   H25  0.289700  0.169858  0.754130  -0.030755
    H   H26  0.239172  0.318930  0.791719  -0.001184
