# Generated by REPEAT Assigner based on pymatgen
data_DB0-m2_o17_o26_f0_pcu.sym.105
_audit_creation_date              2022-05-24
_audit_creation_method            REPEAT_Assigner
_cell_length_a                    13.529429
_cell_length_b                    14.995578
_cell_length_c                    17.423851
_cell_angle_alpha                 89.996969
_cell_angle_beta                  86.264884
_cell_angle_gamma                 89.987854
_cell_volume                      3527.470037
_symmetry_space_group_name_H-M    P1
_symmetry_Int_Tables_number       1
loop_
    _symmetry_equiv_pos_site_id
    _symmetry_equiv_pos_as_xyz
    1  x,y,z
loop_
    _atom_site_type_symbol
    _atom_site_label
    _atom_site_fract_x
    _atom_site_fract_y
    _atom_site_fract_z
    _atom_type_partial_charge
    O   O1   0.417659  0.624192  0.497666  -0.532911
    O   O2   0.589005  0.365450  0.492289  -0.578638
    O   O3   0.587899  0.624629  0.492782  -0.569731
    O   O4   0.419053  0.365018  0.497135  -0.605968
    C   C1   0.502636  0.666442  0.495347  0.618828
    C   C2   0.504155  0.323401  0.494756  0.704580
    O   O5   0.408272  0.497444  0.606485  -0.452249
    O   O6   0.598633  0.492134  0.383423  -0.461050
    O   O7   0.577682  0.491671  0.606947  -0.555961
    O   O8   0.428963  0.497974  0.382960  -0.589682
    C   C3   0.489572  0.494858  0.643075  0.611734
    C   C4   0.517179  0.495273  0.346740  0.676850
    Cu  Cu1  0.404626  0.494341  0.494650  0.829301
    Cu  Cu2  0.602125  0.495200  0.495392  0.758459
    C   C5   0.483001  0.495033  0.727835  -0.270182
    C   C6   0.523538  0.492354  0.261887  -0.327254
    C   C7   0.567347  0.478055  0.766093  -0.009817
    C   C8   0.438113  0.479122  0.223811  0.019945
    C   C9   0.564526  0.476524  0.845291  -0.313858
    C   C10  0.441742  0.472188  0.144705  -0.322301
    C   C11  0.476201  0.491245  0.888259  0.318276
    C   C12  0.531580  0.477511  0.102196  0.320634
    C   C13  0.391991  0.508929  0.850107  -0.432758
    C   C14  0.616916  0.489362  0.140074  -0.443098
    C   C15  0.394947  0.512545  0.770738  0.543907
    C   C16  0.613309  0.499896  0.218953  0.572549
    C   C17  0.467630  0.492525  0.973283  -0.227564
    C   C18  0.540885  0.469852  0.017740  -0.206450
    H   H1   0.637298  0.465388  0.734517  0.102831
    H   H2   0.367092  0.472598  0.255384  0.102220
    H   H3   0.612245  0.449118  0.992757  0.133597
    H   H4   0.398240  0.516297  0.999995  0.142814
    H   H5   0.322553  0.521243  0.882720  0.162990
    H   H6   0.687402  0.493922  0.107385  0.168909
    H   H7   0.373587  0.459788  0.117650  0.145885
    H   H8   0.633257  0.464257  0.871301  0.151246
    C   C19  0.592459  0.179109  0.494209  -0.250472
    C   C20  0.414239  0.811330  0.496175  -0.245146
    C   C21  0.504198  0.225704  0.494903  -0.024553
    C   C22  0.502548  0.764470  0.495418  -0.043698
    C   C23  0.415780  0.179535  0.495663  -0.228072
    C   C24  0.590979  0.810894  0.494568  -0.150932
    C   C25  0.415516  0.087573  0.495813  0.203083
    C   C26  0.591276  0.902957  0.494557  0.125165
    C   C27  0.503590  0.041267  0.495354  -0.048683
    C   C28  0.503160  0.949214  0.495438  0.023262
    C   C29  0.591989  0.087082  0.494390  0.232569
    C   C30  0.414759  0.903448  0.496057  0.174765
    C   C31  0.327064  0.041837  0.496132  -0.229454
    C   C32  0.679783  0.948863  0.493443  -0.182251
    C   C33  0.326671  0.949946  0.496314  -0.206343
    C   C34  0.680162  0.040754  0.493329  -0.250632
    H   H9   0.662358  0.214059  0.493660  0.129710
    H   H10  0.344269  0.776492  0.496955  0.139758
    H   H11  0.346107  0.214767  0.496083  0.126505
    H   H12  0.660661  0.775719  0.494210  0.090731
    H   H13  0.257737  0.077741  0.495932  0.134924
    H   H14  0.749285  0.913183  0.492343  0.127418
    H   H15  0.257003  0.914775  0.496321  0.133276
    H   H16  0.749848  0.076174  0.492054  0.140995
    C   C35  0.210732  0.555997  0.453166  -0.070502
    C   C36  0.795792  0.434275  0.538441  -0.103878
    N   N1   0.256882  0.494437  0.493988  -0.065988
    N   N2   0.750009  0.494967  0.495887  -0.020712
    C   C37  0.204203  0.433937  0.537303  -0.066287
    C   C38  0.802760  0.557728  0.455915  -0.157943
    C   C39  0.102116  0.432809  0.538007  0.140183
    C   C40  0.904783  0.557912  0.454598  0.132253
    C   C41  0.054268  0.494663  0.495486  0.001348
    C   C42  0.952487  0.494979  0.496076  0.056702
    C   C43  0.108753  0.556862  0.453060  0.118551
    C   C44  0.897885  0.433193  0.538786  0.098810
    C   C45  0.047600  0.370757  0.581281  -0.215203
    C   C46  0.959143  0.620732  0.412168  -0.203154
    C   C47  0.945465  0.370845  0.581647  -0.172895
    C   C48  0.061167  0.619996  0.411094  -0.191532
    H   H17  0.253650  0.604940  0.419919  0.112433
    H   H18  0.752633  0.385069  0.571242  0.148104
    H   H19  0.242204  0.386083  0.571179  0.123755
    H   H20  0.765125  0.606926  0.423403  0.200033
    H   H21  0.084524  0.321987  0.615057  0.140157
    H   H22  0.922175  0.670607  0.379645  0.148593
    H   H23  0.903232  0.322068  0.615743  0.127587
    H   H24  0.103374  0.669184  0.377640  0.129035
    O   O9   0.699509  0.516124  0.253433  -0.518889
    C   C49  0.715569  0.608011  0.246590  0.398586
    H   H25  0.706347  0.639239  0.304133  -0.074574
    H   H26  0.661558  0.638963  0.209511  -0.065605
    C   C50  0.819709  0.624560  0.212148  0.133412
    H   H27  0.873754  0.593808  0.249366  -0.013826
    H   H28  0.828162  0.594254  0.154066  -0.028300
    C   C51  0.838998  0.723891  0.205797  -0.266600
    H   H29  0.785494  0.754695  0.168112  0.060965
    H   H30  0.915393  0.735093  0.180603  0.067992
    H   H31  0.830900  0.754840  0.263675  0.033457
    O   O10  0.309650  0.531727  0.735807  -0.518116
    C   C52  0.305216  0.624814  0.731659  0.380126
    H   H32  0.310311  0.645516  0.670443  -0.032655
    H   H33  0.367469  0.655268  0.760676  -0.062849
    C   C53  0.207584  0.656740  0.769667  0.156718
    H   H34  0.145835  0.625773  0.740400  -0.017565
    H   H35  0.202545  0.637051  0.831144  -0.036062
    C   C54  0.200168  0.757345  0.763658  -0.289877
    H   H36  0.261530  0.788965  0.792943  0.056759
    H   H37  0.128406  0.779662  0.791623  0.070523
    H   H38  0.204260  0.777565  0.702294  0.048919
