# Generated by REPEAT Assigner based on pymatgen
data_DB0-m2_o24_o28_f0_nbo.sym.52_sqe
_audit_creation_date              2022-05-24
_audit_creation_method            REPEAT_Assigner
_cell_length_a                    21.325759
_cell_length_b                    21.325861
_cell_length_c                    46.665891
_cell_angle_alpha                 90.000000
_cell_angle_beta                  90.000000
_cell_angle_gamma                 90.000000
_cell_volume                      21223.188221
_symmetry_space_group_name_H-M    P1
_symmetry_Int_Tables_number       1
loop_
    _symmetry_equiv_pos_site_id
    _symmetry_equiv_pos_as_xyz
    1  x,y,z
loop_
    _atom_site_type_symbol
    _atom_site_label
    _atom_site_fract_x
    _atom_site_fract_y
    _atom_site_fract_z
    _atom_type_partial_charge
    O   O1    0.090404  0.994385  0.475800  -0.632900
    O   O2    0.999416  0.090563  0.475749  -0.631503
    O   O3    0.908297  0.999430  0.475387  -0.611743
    O   O4    0.994377  0.908456  0.475445  -0.612701
    O   O5    0.590399  0.494385  0.975800  -0.632884
    O   O6    0.499410  0.590563  0.975749  -0.631415
    O   O7    0.408291  0.499431  0.975387  -0.611672
    O   O8    0.494371  0.408457  0.975445  -0.612752
    O   O9    0.090635  0.002391  0.525143  -0.626754
    O   O10   0.001835  0.090650  0.525214  -0.623795
    O   O11   0.908519  0.001830  0.524852  -0.646069
    O   O12   0.002402  0.908535  0.524787  -0.647190
    O   O13   0.590629  0.502390  0.025143  -0.626813
    O   O14   0.501829  0.590650  0.025215  -0.623774
    O   O15   0.408514  0.501829  0.024852  -0.646065
    O   O16   0.502397  0.408535  0.024787  -0.647284
    C   C1    0.119627  0.997943  0.500456  0.660962
    C   C2    0.001019  0.119702  0.500465  0.652880
    C   C3    0.879313  0.001092  0.500132  0.657194
    C   C4    0.998044  0.879386  0.500127  0.660973
    C   C5    0.619622  0.497943  0.000456  0.660868
    C   C6    0.501013  0.619702  0.000465  0.652867
    C   C7    0.379307  0.501091  0.000132  0.656621
    C   C8    0.498038  0.379386  0.000127  0.661397
    C   C9    0.999851  0.499351  0.644875  0.259612
    C   C10   0.499552  0.999917  0.644875  0.259863
    C   C11   0.499843  0.999355  0.144875  0.259716
    C   C12   0.999547  0.499922  0.144875  0.259594
    C   C13   0.514878  0.945416  0.368209  -0.204572
    C   C14   0.053276  0.515040  0.368178  -0.206772
    C   C15   0.484161  0.052953  0.368149  -0.205240
    C   C16   0.945732  0.484345  0.368180  -0.206314
    C   C17   0.014877  0.445412  0.868210  -0.204393
    C   C18   0.553273  0.015037  0.868178  -0.206766
    C   C19   0.984159  0.552949  0.868148  -0.205292
    C   C20   0.445729  0.984342  0.868180  -0.206171
    H   H1    0.527811  0.903206  0.356827  0.145912
    H   H2    0.095461  0.527957  0.356772  0.146080
    H   H3    0.471293  0.095121  0.356718  0.145792
    H   H4    0.903533  0.471477  0.356773  0.146167
    H   H5    0.027811  0.403201  0.856828  0.145842
    H   H6    0.595457  0.027953  0.856772  0.146114
    H   H7    0.971293  0.595116  0.856717  0.145823
    H   H8    0.403530  0.971474  0.856773  0.146144
    Cu  Cu1   0.999456  0.999465  0.471737  1.003482
    Cu  Cu2   0.499451  0.499466  0.971737  1.003309
    Cu  Cu3   0.999560  0.999548  0.528855  1.014185
    Cu  Cu4   0.499554  0.499548  0.028855  1.014083
    C   C21   0.499421  0.999279  0.412646  -0.096217
    C   C22   0.999539  0.499586  0.412646  -0.100420
    C   C23   0.999417  0.499276  0.912646  -0.096187
    C   C24   0.499535  0.999584  0.912646  -0.100392
    C   C25   0.499566  0.999158  0.353264  0.248246
    C   C26   0.999496  0.499722  0.353264  0.248858
    C   C27   0.999566  0.499154  0.853264  0.248200
    C   C28   0.499493  0.999718  0.853264  0.248793
    C   C29   0.043019  0.229008  0.519301  -0.096074
    C   C30   0.770079  0.043080  0.519082  -0.090697
    C   C31   0.956808  0.770152  0.519366  -0.091758
    C   C32   0.228947  0.956665  0.519576  -0.099944
    C   C33   0.543012  0.729008  0.019302  -0.096176
    C   C34   0.270074  0.543082  0.019081  -0.091487
    C   C35   0.456802  0.270152  0.019365  -0.091610
    C   C36   0.728942  0.456665  0.019576  -0.100022
    C   C37   0.986580  0.269995  0.525440  0.027658
    C   C38   0.729156  0.986627  0.525288  0.036798
    C   C39   0.013481  0.729264  0.525182  0.042435
    C   C40   0.269879  0.013333  0.525335  0.043986
    C   C41   0.486571  0.769995  0.025440  0.027725
    C   C42   0.229150  0.486631  0.025288  0.037053
    C   C43   0.513475  0.229264  0.025181  0.042777
    C   C44   0.769873  0.513334  0.025335  0.044020
    H   H9    0.076880  0.210321  0.535181  0.060655
    H   H10   0.788825  0.076980  0.534930  0.059130
    H   H11   0.923451  0.788925  0.535445  0.056058
    H   H12   0.210242  0.923331  0.535682  0.058039
    H   H13   0.576870  0.710321  0.035183  0.060708
    H   H14   0.288819  0.576985  0.034928  0.059320
    H   H15   0.423445  0.288925  0.035445  0.056023
    H   H16   0.710237  0.423332  0.035682  0.058063
    C   C45   0.002045  0.309778  0.499847  0.088065
    C   C46   0.689231  0.002020  0.499732  0.083524
    C   C47   0.997243  0.689303  0.499748  0.083104
    C   C48   0.309707  0.997057  0.499861  0.076065
    C   C49   0.502039  0.809778  0.999847  0.088096
    C   C50   0.189226  0.502020  0.999732  0.083515
    C   C51   0.497237  0.189303  0.999747  0.082998
    C   C52   0.809701  0.497058  0.999861  0.076019
    C   C53   0.058638  0.269640  0.493391  -0.077434
    C   C54   0.729301  0.058625  0.493210  -0.078564
    C   C55   0.940405  0.729339  0.493617  -0.069548
    C   C56   0.269625  0.940223  0.493787  -0.064223
    C   C57   0.558633  0.769641  0.993392  -0.077399
    C   C58   0.229296  0.558624  0.993209  -0.078299
    C   C59   0.440399  0.229339  0.993616  -0.069597
    C   C60   0.769619  0.440223  0.993787  -0.064173
    C   C61   0.017386  0.228547  0.474510  -0.086689
    C   C62   0.770319  0.017363  0.474300  -0.085890
    C   C63   0.980996  0.770354  0.474406  -0.089796
    C   C64   0.228519  0.980805  0.474611  -0.087860
    C   C65   0.517383  0.728547  0.974511  -0.086653
    C   C66   0.270314  0.517360  0.974300  -0.086275
    C   C67   0.480991  0.270354  0.974406  -0.089667
    C   C68   0.728513  0.480804  0.974611  -0.087949
    C   C69   0.960892  0.269682  0.480991  -0.050744
    C   C70   0.729254  0.960857  0.480848  -0.052269
    C   C71   0.037740  0.729323  0.480564  -0.060473
    C   C72   0.269598  0.037544  0.480713  -0.057332
    C   C73   0.460888  0.769682  0.980990  -0.050784
    C   C74   0.229248  0.460855  0.980849  -0.051967
    C   C75   0.537734  0.229323  0.980564  -0.060519
    C   C76   0.769592  0.537543  0.980712  -0.057270
    C   C77   0.944968  0.229241  0.506889  -0.180583
    C   C78   0.769839  0.945007  0.506708  -0.181070
    C   C79   0.054446  0.769948  0.506300  -0.177280
    C   C80   0.229112  0.054288  0.506488  -0.182596
    C   C81   0.444962  0.729241  0.006888  -0.180462
    C   C82   0.269833  0.445008  0.006710  -0.181552
    C   C83   0.554440  0.269948  0.006300  -0.177189
    C   C84   0.729106  0.554289  0.006488  -0.182638
    C   C85   0.001606  0.189256  0.500383  0.184680
    C   C86   0.809757  0.001657  0.500136  0.178214
    C   C87   0.997559  0.809830  0.500118  0.175346
    C   C88   0.189182  0.997407  0.500363  0.179533
    C   C89   0.501600  0.689256  0.000383  0.184558
    C   C90   0.309751  0.501657  0.000136  0.179363
    C   C91   0.497554  0.309830  0.000118  0.174823
    C   C92   0.689176  0.497407  0.000362  0.179651
    H   H17   0.105801  0.287543  0.487642  0.056936
    H   H18   0.711340  0.105766  0.487463  0.057036
    H   H19   0.893078  0.711357  0.488211  0.054450
    H   H20   0.287569  0.892887  0.488373  0.053512
    H   H21   0.605796  0.787543  0.987645  0.056938
    H   H22   0.211335  0.605764  0.987460  0.057002
    H   H23   0.393073  0.211357  0.988210  0.054472
    H   H24   0.787563  0.392886  0.988373  0.053522
    H   H25   0.030382  0.209876  0.453144  0.061250
    H   H26   0.788870  0.030333  0.452909  0.060838
    H   H27   0.967299  0.788824  0.453096  0.063630
    H   H28   0.209931  0.967089  0.453325  0.062611
    H   H29   0.530381  0.709876  0.953145  0.061235
    H   H30   0.288864  0.530326  0.952908  0.060850
    H   H31   0.467294  0.288825  0.953095  0.063612
    H   H32   0.709925  0.467088  0.953325  0.062633
    H   H33   0.927059  0.287934  0.464993  0.058594
    H   H34   0.710938  0.926983  0.464884  0.059561
    H   H35   0.071079  0.710996  0.464370  0.061290
    H   H36   0.287849  0.070860  0.464490  0.060907
    H   H37   0.427057  0.787934  0.964992  0.058596
    H   H38   0.210933  0.426979  0.964886  0.059493
    H   H39   0.571074  0.210997  0.964369  0.061306
    H   H40   0.787843  0.570859  0.964490  0.060896
    H   H41   0.897821  0.210857  0.512333  0.080971
    H   H42   0.788277  0.897881  0.512151  0.081424
    H   H43   0.101744  0.788412  0.511405  0.080941
    H   H44   0.210685  0.101596  0.511602  0.082057
    H   H45   0.397814  0.710857  0.012331  0.080951
    H   H46   0.288272  0.397882  0.012154  0.081459
    H   H47   0.601738  0.288411  0.011405  0.080922
    H   H48   0.710680  0.601596  0.011601  0.082065
    C   C93   0.514437  0.945311  0.397743  -0.010804
    C   C94   0.053464  0.514603  0.397711  -0.007731
    C   C95   0.484459  0.053179  0.397682  -0.009816
    C   C96   0.945588  0.484648  0.397715  -0.007957
    C   C97   0.014434  0.445308  0.897744  -0.010903
    C   C98   0.553460  0.014600  0.897711  -0.007721
    C   C99   0.984456  0.553176  0.897682  -0.009792
    C   C100  0.445584  0.984646  0.897715  -0.008040
    H   H49   0.526796  0.902707  0.408925  0.106595
    H   H50   0.096105  0.526951  0.408866  0.106421
    H   H51   0.472060  0.095835  0.408815  0.106341
    H   H52   0.902965  0.472256  0.408874  0.105819
    H   H53   0.026792  0.402704  0.908926  0.106600
    H   H54   0.596101  0.026949  0.908866  0.106405
    H   H55   0.972057  0.595832  0.908814  0.106338
    H   H56   0.402961  0.972254  0.908874  0.105829
    O   O17   0.945732  0.497400  0.540765  -0.615470
    O   O18   0.501702  0.945687  0.540783  -0.617234
    O   O19   0.053695  0.501713  0.540733  -0.616065
    O   O20   0.497344  0.053648  0.540715  -0.616070
    O   O21   0.445726  0.997400  0.040765  -0.615408
    O   O22   0.001696  0.445689  0.040783  -0.617209
    O   O23   0.553689  0.001713  0.040733  -0.616085
    O   O24   0.997338  0.553650  0.040714  -0.615962
    C   C101  0.999734  0.499554  0.554161  0.672177
    C   C102  0.499540  0.999708  0.554160  0.672859
    C   C103  0.499727  0.999555  0.054161  0.672163
    C   C104  0.999534  0.499710  0.054160  0.672851
    O   O25   0.946502  0.407497  0.498650  -0.619839
    O   O26   0.591533  0.946427  0.498636  -0.621434
    O   O27   0.052802  0.591581  0.498602  -0.620505
    O   O28   0.407402  0.052645  0.498617  -0.619904
    O   O29   0.446496  0.907497  0.998650  -0.619809
    O   O30   0.091528  0.446427  0.998636  -0.621416
    O   O31   0.552796  0.091581  0.998602  -0.620621
    O   O32   0.907397  0.552645  0.998616  -0.619896
    O   O33   0.054554  0.409233  0.497439  -0.627574
    O   O34   0.589748  0.054476  0.497386  -0.628277
    O   O35   0.944746  0.589843  0.497455  -0.628631
    O   O36   0.409185  0.944589  0.497507  -0.629187
    O   O37   0.554548  0.909233  0.997440  -0.627607
    O   O38   0.089742  0.554476  0.997386  -0.628240
    O   O39   0.444740  0.089843  0.997454  -0.628682
    O   O40   0.909179  0.444589  0.997507  -0.629275
    C   C105  0.001058  0.379338  0.499437  0.669010
    C   C106  0.619671  0.000998  0.499386  0.673648
    C   C107  0.998246  0.619742  0.499401  0.673764
    C   C108  0.379267  0.998080  0.499452  0.675269
    C   C109  0.501053  0.879338  0.999437  0.668957
    C   C110  0.119665  0.500998  0.999386  0.673501
    C   C111  0.498240  0.119742  0.999400  0.673893
    C   C112  0.879261  0.498080  0.999452  0.675318
    Cu  Cu5   0.937140  0.498566  0.499107  0.994744
    Cu  Cu6   0.500469  0.937025  0.499129  0.997268
    Cu  Cu7   0.062166  0.500512  0.499070  0.996108
    Cu  Cu8   0.498469  0.062049  0.499049  0.995468
    Cu  Cu9   0.437134  0.998566  0.999107  0.994801
    Cu  Cu10  0.000463  0.437026  0.999129  0.997309
    Cu  Cu11  0.562160  0.000512  0.999070  0.996234
    Cu  Cu12  0.998463  0.562050  0.999048  0.995408
    O   O41   0.945656  0.494873  0.457472  -0.581118
    O   O42   0.504089  0.945472  0.457490  -0.582141
    O   O43   0.053530  0.504173  0.457440  -0.583198
    O   O44   0.494741  0.053342  0.457423  -0.581946
    O   O45   0.445651  0.994872  0.957472  -0.581110
    O   O46   0.004084  0.445471  0.957490  -0.582038
    O   O47   0.553525  0.004173  0.957440  -0.583200
    O   O48   0.994736  0.553340  0.957422  -0.581907
    C   C113  0.999575  0.499531  0.444043  0.662199
    C   C114  0.499405  0.999366  0.444043  0.659563
    C   C115  0.499570  0.999530  0.944043  0.662206
    C   C116  0.999400  0.499364  0.944043  0.659507
    C   C117  0.536567  0.039899  0.308337  0.471134
    C   C118  0.958717  0.536641  0.308325  0.471459
    C   C119  0.462866  0.958319  0.308300  0.472306
    C   C120  0.040288  0.462930  0.308311  0.471777
    C   C121  0.036570  0.539893  0.808337  0.470938
    C   C122  0.458715  0.036636  0.808325  0.471284
    C   C123  0.962869  0.458314  0.808300  0.472422
    C   C124  0.540286  0.962925  0.808312  0.471383
    N   N1    0.499676  0.999115  0.322664  -0.190224
    N   N2    0.999493  0.499761  0.322664  -0.189605
    N   N3    0.999678  0.499110  0.822664  -0.190186
    N   N4    0.499490  0.999756  0.822664  -0.189525
    C   C125  0.462846  0.957420  0.278676  -0.119006
    C   C126  0.041219  0.462898  0.278688  -0.121382
    C   C127  0.536718  0.040811  0.278713  -0.120874
    C   C128  0.957836  0.536780  0.278701  -0.119220
    C   C129  0.962850  0.457414  0.778675  -0.119608
    C   C130  0.541218  0.962893  0.778688  -0.121204
    C   C131  0.036722  0.540805  0.778713  -0.121061
    C   C132  0.457835  0.036774  0.778700  -0.119253
    C   C133  0.499807  0.999126  0.263843  0.105312
    C   C134  0.999541  0.499865  0.263843  0.107305
    C   C135  0.999812  0.499120  0.763843  0.106032
    C   C136  0.499540  0.999860  0.763843  0.107106
    C   C137  0.425871  0.915340  0.263786  -0.054538
    C   C138  0.083318  0.425918  0.263812  -0.051526
    C   C139  0.573749  0.082907  0.263862  -0.051055
    C   C140  0.915767  0.573814  0.263835  -0.054153
    C   C141  0.925876  0.415334  0.763785  -0.054195
    C   C142  0.583317  0.925912  0.763813  -0.051820
    C   C143  0.073754  0.582901  0.763862  -0.051034
    C   C144  0.415766  0.073809  0.763834  -0.054384
    C   C145  0.926294  0.415031  0.734264  -0.056645
    C   C146  0.583676  0.926339  0.734293  -0.057231
    C   C147  0.073416  0.583266  0.734342  -0.057745
    C   C148  0.415456  0.073477  0.734313  -0.057348
    C   C149  0.426288  0.915037  0.234265  -0.056191
    C   C150  0.083676  0.426344  0.234293  -0.057072
    C   C151  0.573410  0.083272  0.234342  -0.057529
    C   C152  0.915455  0.573483  0.234314  -0.057193
    C   C153  0.963275  0.457169  0.719413  -0.118207
    C   C154  0.541573  0.963333  0.719428  -0.115534
    C   C155  0.036459  0.541173  0.719452  -0.118653
    C   C156  0.457577  0.036524  0.719437  -0.113423
    C   C157  0.463269  0.957175  0.219414  -0.118814
    C   C158  0.041573  0.463338  0.219428  -0.115392
    C   C159  0.536452  0.041178  0.219452  -0.119118
    C   C160  0.957576  0.536529  0.219437  -0.113315
    C   C161  0.999853  0.499150  0.734284  0.096229
    C   C162  0.499565  0.999907  0.734284  0.091516
    C   C163  0.499846  0.999156  0.234284  0.097051
    C   C164  0.999564  0.499913  0.234284  0.091377
    C   C165  0.964176  0.457429  0.689790  0.457438
    C   C166  0.541380  0.964247  0.689806  0.453561
    C   C167  0.035588  0.541022  0.689829  0.457141
    C   C168  0.457792  0.035666  0.689812  0.453135
    C   C169  0.464168  0.957434  0.189790  0.457988
    C   C170  0.041378  0.464253  0.189805  0.453770
    C   C171  0.535580  0.041027  0.189828  0.457704
    C   C172  0.957790  0.535671  0.189813  0.453323
    N   N5    0.999881  0.499258  0.675469  -0.165540
    N   N6    0.499585  0.999961  0.675469  -0.161276
    N   N7    0.499873  0.999264  0.175469  -0.166157
    N   N8    0.999582  0.499966  0.175469  -0.161203
    O   O49   0.574404  0.078853  0.322945  -0.498642
    O   O50   0.919755  0.574489  0.322923  -0.498987
    O   O51   0.424964  0.919362  0.322871  -0.499803
    O   O52   0.079226  0.425028  0.322893  -0.498771
    O   O53   0.074406  0.578847  0.822946  -0.498668
    O   O54   0.419752  0.074484  0.822922  -0.499205
    O   O55   0.924966  0.419357  0.822870  -0.499907
    O   O56   0.579223  0.925023  0.822894  -0.498942
    H   H57   0.396413  0.882024  0.274869  0.131457
    H   H58   0.116613  0.396455  0.274906  0.130263
    H   H59   0.603173  0.116204  0.274975  0.129961
    H   H60   0.882455  0.603241  0.274938  0.131265
    H   H61   0.896418  0.382018  0.774868  0.131422
    H   H62   0.616612  0.896450  0.774907  0.130318
    H   H63   0.103178  0.616198  0.774976  0.129978
    H   H64   0.382454  0.103236  0.774937  0.131301
    H   H65   0.897072  0.381558  0.723150  0.126940
    H   H66   0.617167  0.897116  0.723191  0.126910
    H   H67   0.102665  0.616765  0.723259  0.127418
    H   H68   0.381980  0.102732  0.723218  0.127175
    H   H69   0.397065  0.881564  0.223151  0.126896
    H   H70   0.117167  0.397121  0.223190  0.126911
    H   H71   0.602658  0.116771  0.223258  0.127400
    H   H72   0.881979  0.602737  0.223219  0.127184
    O   O57   0.930421  0.414902  0.675172  -0.496736
    O   O58   0.583938  0.930497  0.675205  -0.495931
    O   O59   0.069351  0.583607  0.675251  -0.496702
    O   O60   0.415243  0.069439  0.675218  -0.496531
    O   O61   0.430413  0.914907  0.175173  -0.496742
    O   O62   0.083936  0.430502  0.175205  -0.495753
    O   O63   0.569343  0.083612  0.175250  -0.496725
    O   O64   0.915240  0.569445  0.175219  -0.496337
    C   C173  0.055103  0.490877  0.629950  -0.233234
    C   C174  0.508065  0.055156  0.629944  -0.234280
    C   C175  0.944567  0.507924  0.629986  -0.234416
    C   C176  0.491020  0.944621  0.629992  -0.235529
    C   C177  0.555095  0.990881  0.129950  -0.233129
    C   C178  0.008061  0.555160  0.129943  -0.234188
    C   C179  0.444560  0.007927  0.129986  -0.234435
    C   C180  0.991015  0.444625  0.129992  -0.235426
    H   H73   0.098579  0.483308  0.641344  0.148738
    H   H74   0.515603  0.098642  0.641334  0.149028
    H   H75   0.901117  0.515426  0.641411  0.149424
    H   H76   0.483485  0.901181  0.641419  0.149481
    H   H77   0.598571  0.983311  0.141344  0.148717
    H   H78   0.015599  0.598647  0.141334  0.149002
    H   H79   0.401109  0.015430  0.141410  0.149444
    H   H80   0.983481  0.401185  0.141420  0.149439
    C   C181  0.055185  0.491365  0.600424  0.018205
    C   C182  0.507659  0.055210  0.600417  0.018263
    C   C183  0.944415  0.507606  0.600461  0.015567
    C   C184  0.491422  0.944441  0.600468  0.017262
    C   C185  0.555177  0.991367  0.100425  0.018064
    C   C186  0.007654  0.555214  0.100417  0.018358
    C   C187  0.444408  0.007608  0.100461  0.015555
    C   C188  0.991416  0.444445  0.100468  0.017421
    H   H81   0.098989  0.484379  0.589243  0.093146
    H   H82   0.514666  0.099004  0.589230  0.093443
    H   H83   0.900581  0.514640  0.589310  0.094418
    H   H84   0.484408  0.900597  0.589322  0.094127
    H   H85   0.598982  0.984381  0.089243  0.093168
    H   H86   0.014660  0.599007  0.089229  0.093405
    H   H87   0.400574  0.014642  0.089309  0.094417
    H   H88   0.984402  0.400601  0.089323  0.094099
    C   C189  0.999780  0.499519  0.585528  -0.052570
    C   C190  0.499548  0.999791  0.585528  -0.053317
    C   C191  0.499773  0.999521  0.085528  -0.052516
    C   C192  0.999542  0.499795  0.085528  -0.053525
    C   C193  0.968375  0.295412  0.554764  0.539768
    C   C194  0.944139  0.242554  0.573501  -0.426088
    C   C195  0.024411  0.325800  0.569303  -0.498196
    H   H89   0.930781  0.330872  0.552136  -0.099995
    H   H90   0.979200  0.204215  0.574460  0.085971
    H   H91   0.899544  0.224159  0.564672  0.067240
    H   H92   0.935343  0.260438  0.595445  0.115010
    H   H93   0.060276  0.289884  0.574403  0.098991
    H   H94   0.008969  0.348559  0.589470  0.101171
    H   H95   0.045372  0.361888  0.555207  0.092503
    C   C196  0.703893  0.968455  0.554644  0.533167
    C   C197  0.756868  0.944340  0.573345  -0.421352
    C   C198  0.673483  0.024479  0.569184  -0.498918
    H   H96   0.668477  0.930803  0.552066  -0.099170
    H   H97   0.795150  0.979469  0.574260  0.085609
    H   H98   0.775306  0.899764  0.564514  0.065795
    H   H99   0.739088  0.935546  0.595306  0.113756
    H   H100  0.709363  0.060418  0.574226  0.098487
    H   H101  0.650849  0.009053  0.589384  0.102516
    H   H102  0.637285  0.045341  0.555117  0.091772
    C   C199  0.032641  0.704047  0.554414  0.527657
    C   C200  0.057339  0.757058  0.572934  -0.412037
    C   C201  0.977121  0.673614  0.569343  -0.502223
    H   H103  0.070228  0.668655  0.551584  -0.099023
    H   H104  0.022219  0.795318  0.574085  0.083874
    H   H105  0.101602  0.775518  0.563790  0.064523
    H   H106  0.066873  0.739305  0.594835  0.110756
    H   H107  0.941370  0.709492  0.574661  0.099144
    H   H108  0.993238  0.650924  0.589417  0.105343
    H   H109  0.955760  0.637461  0.555408  0.091254
    C   C202  0.295242  0.032514  0.554537  0.530255
    C   C203  0.242335  0.057291  0.573098  -0.416694
    C   C204  0.325681  0.976985  0.569456  -0.504085
    H   H110  0.330659  0.070062  0.551665  -0.098864
    H   H111  0.204038  0.022218  0.574288  0.084533
    H   H112  0.223891  0.101569  0.563962  0.065918
    H   H113  0.260189  0.066823  0.594982  0.112255
    H   H114  0.289788  0.941286  0.574823  0.100294
    H   H115  0.348483  0.993111  0.589502  0.105006
    H   H116  0.361741  0.955560  0.555491  0.092681
    C   C205  0.468364  0.795412  0.054763  0.539742
    C   C206  0.444126  0.742554  0.073501  -0.426162
    C   C207  0.524398  0.825800  0.069304  -0.498352
    H   H117  0.430769  0.830871  0.052135  -0.100056
    H   H118  0.479188  0.704215  0.074460  0.085986
    H   H119  0.399532  0.724158  0.064670  0.067244
    H   H120  0.435327  0.760438  0.095444  0.115066
    H   H121  0.560262  0.789885  0.074405  0.099017
    H   H122  0.508954  0.848560  0.089471  0.101252
    H   H123  0.545360  0.861888  0.055208  0.092587
    C   C208  0.203887  0.468462  0.054645  0.533066
    C   C209  0.256863  0.444350  0.073347  -0.420935
    C   C210  0.173477  0.524488  0.069184  -0.498113
    H   H124  0.168472  0.430809  0.052069  -0.099256
    H   H125  0.295145  0.479479  0.074261  0.085484
    H   H126  0.275301  0.399773  0.064517  0.065707
    H   H127  0.239082  0.435559  0.095308  0.113612
    H   H128  0.209358  0.560428  0.074224  0.098253
    H   H129  0.150843  0.509065  0.089384  0.102302
    H   H130  0.137279  0.545348  0.055116  0.091567
    C   C211  0.532634  0.204046  0.054413  0.526947
    C   C212  0.557332  0.257058  0.072933  -0.412115
    C   C213  0.477113  0.173614  0.069343  -0.502150
    H   H131  0.570221  0.168654  0.051584  -0.098723
    H   H132  0.522212  0.295318  0.074085  0.083944
    H   H133  0.601596  0.275517  0.063790  0.064549
    H   H134  0.566866  0.239304  0.094835  0.110828
    H   H135  0.441363  0.209493  0.074661  0.099175
    H   H136  0.493230  0.150923  0.089416  0.105376
    H   H137  0.455752  0.137462  0.055407  0.091233
    C   C214  0.795236  0.532516  0.054537  0.530269
    C   C215  0.742329  0.557293  0.073098  -0.416619
    C   C216  0.825676  0.476987  0.069456  -0.503944
    H   H138  0.830653  0.570063  0.051664  -0.098907
    H   H139  0.704032  0.522220  0.074288  0.084530
    H   H140  0.723886  0.601571  0.063962  0.065895
    H   H141  0.760183  0.566825  0.094982  0.112227
    H   H142  0.789782  0.441288  0.074824  0.100210
    H   H143  0.848477  0.493114  0.089501  0.104962
    H   H144  0.861736  0.455561  0.055491  0.092679
