# generated using pymatgen
data_Fe2H21C46NO19
_symmetry_space_group_name_H-M   'P 1'
_cell_length_a   14.21059000
_cell_length_b   9.47811000
_cell_length_c   18.29517800
_cell_angle_alpha   86.14388300
_cell_angle_beta   90.79816900
_cell_angle_gamma   109.84150700
_symmetry_Int_Tables_number   1
_chemical_formula_structural   Fe2H21C46NO19
_chemical_formula_sum   'Fe2 H21 C46 N1 O19'
_cell_volume   2312.53253945
_cell_formula_units_Z   1
loop_
 _symmetry_equiv_pos_site_id
 _symmetry_equiv_pos_as_xyz
  1  'x, y, z'
loop_
 _atom_site_type_symbol
 _atom_site_label
 _atom_site_symmetry_multiplicity
 _atom_site_fract_x
 _atom_site_fract_y
 _atom_site_fract_z
 _atom_site_occupancy
  Fe  Fe1  1  0.50253800  0.00120300  0.16428900  1
  Fe  Fe2  1  0.51809800  0.01429200  0.84826600  1
  H  H1  1  0.85199800  0.99379300  0.15120700  1
  H  H2  1  0.99549900  0.99061000  0.87485000  1
  H  H3  1  0.15293300  0.97789800  0.86439300  1
  H  H4  1  0.19707700  0.98688200  0.13036700  1
  H  H5  1  0.03443900  0.76967900  0.18811500  1
  H  H6  1  0.05215200  0.84071000  0.32213000  1
  H  H7  1  0.04746300  0.11849700  0.32609400  1
  H  H8  1  0.02622500  0.21364000  0.18795900  1
  H  H9  1  0.52803900  0.75336700  0.60900900  1
  H  H10  1  0.49115500  0.26214400  0.40401000  1
  H  H11  1  0.49932100  0.71486200  0.37216200  1
  H  H12  1  0.50420600  0.46217900  0.18785400  1
  H  H13  1  0.62338300  0.34113300  0.57240700  1
  H  H14  1  0.52325800  0.20377300  0.52599300  1
  H  H15  1  0.58663700  0.14437600  0.60171400  1
  H  H16  1  0.35234300  0.45231200  0.85811800  1
  H  H17  1  0.40569900  0.61164000  0.91316400  1
  H  H18  1  0.42380400  0.43661400  0.93934800  1
  H  H19  1  0.94177600  0.23269100  0.85061600  1
  H  H20  1  0.84019700  0.20638400  0.78645800  1
  H  H21  1  0.93124000  0.11499400  0.77460100  1
  C  C1  1  0.84919700  0.00092300  0.09236300  1
  C  C2  1  0.76143400  0.00458300  0.06010400  1
  C  C3  1  0.75432100  0.00995800  0.98423400  1
  C  C4  1  0.83555200  0.01432000  0.94192000  1
  C  C5  1  0.92238700  0.00559000  0.97508600  1
  C  C6  1  0.92992800  0.00094100  0.05062500  1
  C  C7  1  0.99986700  0.99381700  0.93355700  1
  C  C8  1  0.08528800  0.98358900  0.96642300  1
  C  C9  1  0.09455600  0.98256900  0.04138300  1
  C  C10  1  0.01654700  0.99071100  0.08399200  1
  C  C11  1  0.16243900  0.97792200  0.92306500  1
  C  C12  1  0.25225500  0.97893200  0.95339200  1
  C  C13  1  0.26272600  0.98113600  0.02905000  1
  C  C14  1  0.18361000  0.97948900  0.07237600  1
  C  C15  1  0.04392800  0.91207100  0.27562300  1
  C  C16  1  0.04148800  0.05612900  0.27788400  1
  C  C17  1  0.03037900  0.10525700  0.20661200  1
  C  C18  1  0.02623300  0.98881900  0.16390600  1
  C  C19  1  0.67844200  0.00111300  0.10862300  1
  C  C20  1  0.49867300  0.72982600  0.22384500  1
  C  C21  1  0.35885700  0.00404700  0.06497400  1
  C  C22  1  0.49373600  0.20631800  0.26350300  1
  C  C23  1  0.52634700  0.80901500  0.74956100  1
  C  C24  1  0.65921700  0.99522800  0.94789200  1
  C  C25  1  0.50104100  0.27443300  0.78936400  1
  C  C26  1  0.33391400  0.98201700  0.90379600  1
  C  C27  1  0.50038000  0.40392500  0.73949100  1
  C  C28  1  0.49997100  0.39456700  0.66372800  1
  C  C29  1  0.50965000  0.52035700  0.61741500  1
  C  C30  1  0.52037200  0.65568300  0.64565200  1
  C  C31  1  0.51625100  0.66495900  0.72015100  1
  C  C32  1  0.50541400  0.53986800  0.76735200  1
  C  C33  1  0.50441200  0.50995200  0.53933300  1
  C  C34  1  0.50043200  0.50159600  0.47379000  1
  C  C35  1  0.49432700  0.35794900  0.36752000  1
  C  C36  1  0.49890200  0.34874900  0.29294400  1
  C  C37  1  0.50294400  0.47169600  0.24632100  1
  C  C38  1  0.50003600  0.60276800  0.27416600  1
  C  C39  1  0.49882100  0.61242800  0.34927200  1
  C  C40  1  0.49726600  0.49056600  0.39577100  1
  C  C41  1  0.48411500  0.25099500  0.63139300  1
  C  C42  1  0.55905200  0.23471900  0.57942900  1
  C  C43  1  0.51065400  0.56003900  0.84638300  1
  C  C44  1  0.41726200  0.51187400  0.89193300  1
  C  C45  1  0.82568500  0.01836400  0.86184200  1
  C  C46  1  0.88891300  0.15146500  0.81551100  1
  N  N1  1  0.03477900  0.87203200  0.20602000  1
  O  O1  1  0.60129100  0.03586400  0.08399400  1
  O  O2  1  0.50318300  0.71970600  0.15287600  1
  O  O3  1  0.68281100  0.96655500  0.17893500  1
  O  O4  1  0.49430800  0.85481200  0.24853200  1
  O  O5  1  0.36648200  0.91351100  0.12057100  1
  O  O6  1  0.43392900  0.12845800  0.04891500  1
  O  O7  1  0.54348900  0.20593600  0.20351800  1
  O  O8  1  0.43470600  0.07927700  0.29501000  1
  O  O9  1  0.46991300  0.81336500  0.80496000  1
  O  O10  1  0.59496400  0.93254600  0.72289600  1
  O  O11  1  0.65487400  0.08833300  0.89239000  1
  O  O12  1  0.58004700  0.87766000  0.96553700  1
  O  O13  1  0.32203700  0.99328100  0.83262200  1
  O  O14  1  0.53146700  0.16840100  0.76679100  1
  O  O15  1  0.42036600  0.98059900  0.92922200  1
  O  O16  1  0.47551200  0.26633500  0.85838000  1
  O  O17  1  0.41071900  0.14237100  0.64898200  1
  O  O18  1  0.59031600  0.62987900  0.87351500  1
  O  O19  1  0.76196400  0.91656300  0.83320000  1
