# Generated by REPEAT Assigner based on pymatgen
data_DB0-m2_o27_o28_f0_pcu.sym.42_sqe
_audit_creation_date              2022-05-24
_audit_creation_method            REPEAT_Assigner
_cell_length_a                    19.400700
_cell_length_b                    17.771141
_cell_length_c                    23.306544
_cell_angle_alpha                 90.000000
_cell_angle_beta                  90.007185
_cell_angle_gamma                 90.000000
_cell_volume                      8035.457041
_symmetry_space_group_name_H-M    P1
_symmetry_Int_Tables_number       1
loop_
    _symmetry_equiv_pos_site_id
    _symmetry_equiv_pos_as_xyz
    1  x,y,z
loop_
    _atom_site_type_symbol
    _atom_site_label
    _atom_site_fract_x
    _atom_site_fract_y
    _atom_site_fract_z
    _atom_type_partial_charge
    O   O1   0.398167  0.564208  0.496615  -0.553201
    O   O2   0.598423  0.435294  0.501278  -0.522951
    O   O3   0.598393  0.563776  0.501941  -0.530452
    O   O4   0.398136  0.435915  0.505025  -0.569100
    C   C1   0.364970  0.500147  0.500805  0.860694
    C   C2   0.631806  0.499533  0.501652  0.787768
    O   O5   0.498920  0.564466  0.417691  -0.587889
    O   O6   0.502604  0.435367  0.584549  -0.603956
    O   O7   0.492786  0.564202  0.584375  -0.606990
    O   O8   0.498421  0.435335  0.417838  -0.601899
    C   C3   0.498812  0.499846  0.390844  0.663108
    C   C4   0.497516  0.499832  0.611383  0.676204
    Cu  Cu1  0.498252  0.574854  0.501153  0.813853
    Cu  Cu2  0.498115  0.424751  0.501134  0.774658
    C   C5   0.559331  0.494665  0.882565  0.447242
    C   C6   0.438906  0.503103  0.119907  0.415688
    N   N1   0.499064  0.499992  0.854055  -0.179453
    N   N2   0.499248  0.500107  0.148328  -0.136823
    C   C7   0.438878  0.505326  0.882641  0.448180
    C   C8   0.559568  0.496887  0.119889  0.417520
    C   C9   0.438016  0.504862  0.941960  -0.104717
    C   C10  0.560432  0.496237  0.060575  -0.067054
    C   C11  0.499175  0.499993  0.971647  0.105764
    C   C12  0.499206  0.499970  0.030831  0.045913
    C   C13  0.560293  0.495076  0.941903  -0.097375
    C   C14  0.438004  0.503687  0.060599  -0.062325
    C   C15  0.376541  0.508970  0.971721  -0.070316
    C   C16  0.621887  0.491738  0.030774  -0.079233
    C   C17  0.376501  0.507943  0.030834  -0.081961
    C   C18  0.621793  0.490853  0.971644  -0.074951
    O   O9   0.618626  0.490337  0.852966  -0.503208
    O   O10  0.379634  0.505981  0.149628  -0.507880
    O   O11  0.379525  0.509673  0.853116  -0.497522
    O   O12  0.618841  0.493793  0.149603  -0.504692
    H   H1   0.327809  0.512746  0.949468  0.132476
    H   H2   0.670638  0.488539  0.053065  0.137669
    H   H3   0.327750  0.510820  0.053133  0.139506
    H   H4   0.670509  0.487027  0.949392  0.135228
    C   C19  0.508000  0.566432  0.239007  -0.206212
    C   C20  0.480975  0.564284  0.763327  -0.202748
    H   H5   0.515085  0.618589  0.215911  0.135576
    H   H6   0.467718  0.614950  0.786532  0.141041
    C   C21  0.507580  0.566479  0.298125  -0.054231
    C   C22  0.480846  0.564511  0.704158  -0.050240
    H   H7   0.514562  0.619205  0.320522  0.103473
    H   H8   0.466830  0.615519  0.681820  0.101139
    C   C23  0.499007  0.499818  0.327971  -0.055321
    C   C24  0.497675  0.499892  0.674242  -0.056396
    C   C25  0.490476  0.433281  0.297973  -0.073390
    C   C26  0.514877  0.435295  0.704042  -0.077388
    H   H9   0.483307  0.380446  0.320193  0.109858
    H   H10  0.528405  0.384243  0.681540  0.108377
    C   C27  0.490302  0.433577  0.238844  -0.198139
    C   C28  0.515970  0.435622  0.763192  -0.189015
    H   H11  0.483455  0.381492  0.215628  0.134296
    H   H12  0.529757  0.385056  0.786301  0.138793
    C   C29  0.499234  0.500027  0.209340  0.303007
    C   C30  0.498859  0.500023  0.792937  0.281087
    C   C31  0.250872  0.562852  0.521535  0.552311
    C   C32  0.746704  0.436632  0.521366  0.493693
    C   C33  0.746381  0.562559  0.481043  0.539023
    C   C34  0.250833  0.438367  0.479138  0.521138
    C   C35  0.179349  0.563438  0.517688  -0.205296
    C   C36  0.818262  0.436472  0.517353  -0.174728
    C   C37  0.817989  0.562715  0.484259  -0.216857
    C   C38  0.179277  0.438142  0.482214  -0.190860
    H   H13  0.149713  0.612137  0.529883  0.095873
    H   H14  0.848258  0.387735  0.528621  0.086263
    H   H15  0.847883  0.611262  0.472383  0.104246
    H   H16  0.149493  0.389847  0.469330  0.088949
    C   C39  0.143640  0.500792  0.499917  -0.369632
    C   C40  0.853737  0.499639  0.500641  -0.367476
    C   C41  0.287846  0.500388  0.500641  -0.639566
    C   C42  0.709218  0.499629  0.501494  -0.599016
    N   N3   0.032986  0.435024  0.498939  -0.347467
    N   N4   0.964401  0.565449  0.500724  -0.354038
    N   N5   0.964826  0.434706  0.499368  -0.356822
    N   N6   0.032566  0.565808  0.500757  -0.351359
    C   C43  0.929605  0.499916  0.500192  0.952514
    C   C44  0.067765  0.500573  0.499780  0.948535
    C   C45  0.538657  0.274472  0.538462  -0.048562
    C   C46  0.457477  0.725077  0.464129  0.065526
    C   C47  0.463823  0.274921  0.459921  -0.004199
    C   C48  0.544122  0.724657  0.533795  0.072499
    H   H17  0.567346  0.304755  0.570774  0.153122
    H   H18  0.421836  0.694658  0.437038  0.101899
    H   H19  0.432735  0.305461  0.429372  0.142906
    H   H20  0.577570  0.693853  0.562485  0.089056
    C   C49  0.544012  0.197139  0.535704  0.107601
    C   C50  0.460623  0.802547  0.460495  0.031296
    C   C51  0.467490  0.197584  0.456173  0.069305
    C   C52  0.548663  0.802029  0.531351  0.030284
    H   H21  0.576437  0.168419  0.566396  0.007353
    H   H22  0.426657  0.831294  0.431066  0.047236
    H   H23  0.438624  0.169317  0.422910  0.015627
    H   H24  0.585547  0.830281  0.558576  0.045497
    C   C53  0.507900  0.157757  0.494380  -0.410592
    C   C54  0.506693  0.841873  0.494370  -0.425780
    N   N7   0.498122  0.312179  0.501440  -0.026270
    N   N8   0.498294  0.687439  0.501052  -0.086252
    N   N9   0.470777  0.037222  0.454771  -0.300959
    N   N10  0.550694  0.962401  0.528814  -0.336484
    N   N11  0.551037  0.036810  0.528823  -0.310757
    N   N12  0.470326  0.962781  0.454837  -0.345199
    C   C55  0.509890  0.924450  0.492186  0.908088
    C   C56  0.510704  0.075148  0.492094  0.859931
    C   C57  0.287595  0.629501  0.547961  -0.592801
    C   C58  0.241638  0.680757  0.581265  0.364609
    C   C59  0.226681  0.751813  0.560639  -0.258438
    C   C60  0.184369  0.799116  0.591541  -0.079934
    C   C61  0.157503  0.775958  0.643351  -0.158834
    C   C62  0.173477  0.705689  0.664558  -0.065223
    C   C63  0.215692  0.658211  0.633687  -0.221254
    H   H25  0.312242  0.662596  0.513306  0.141045
    H   H26  0.327415  0.609435  0.578485  0.174646
    H   H27  0.247406  0.770680  0.520054  0.123526
    H   H28  0.172269  0.854446  0.575108  0.108236
    H   H29  0.124197  0.813066  0.667455  0.110314
    H   H30  0.152898  0.687815  0.705441  0.102580
    H   H31  0.228162  0.603182  0.650523  0.112042
    C   C64  0.710894  0.368785  0.546918  -0.515257
    C   C65  0.757776  0.315207  0.577202  0.306177
    C   C66  0.771702  0.245449  0.553640  -0.185940
    C   C67  0.814711  0.195970  0.581822  -0.104354
    C   C68  0.843336  0.215623  0.633820  -0.144942
    C   C69  0.828798  0.284733  0.657783  -0.072901
    C   C70  0.785836  0.334340  0.629683  -0.209582
    H   H32  0.684600  0.337520  0.512088  0.133891
    H   H33  0.672693  0.387666  0.579268  0.151181
    H   H34  0.749696  0.229308  0.512843  0.097150
    H   H35  0.826036  0.141690  0.563117  0.110016
    H   H36  0.876992  0.176738  0.655889  0.109799
    H   H37  0.851113  0.300010  0.698644  0.103531
    H   H38  0.774601  0.388468  0.648653  0.109022
    C   C71  0.710328  0.630251  0.455516  -0.571817
    C   C72  0.756935  0.683330  0.424468  0.368830
    C   C73  0.771628  0.753088  0.447697  -0.280073
    C   C74  0.813709  0.802605  0.418589  -0.069733
    C   C75  0.840962  0.782855  0.366120  -0.160785
    C   C76  0.826340  0.713403  0.342763  -0.061525
    C   C77  0.784175  0.663781  0.371743  -0.231195
    H   H39  0.684587  0.661897  0.490428  0.143099
    H   H40  0.671440  0.611270  0.423760  0.161601
    H   H41  0.750905  0.769177  0.488947  0.130111
    H   H42  0.825354  0.856962  0.437003  0.106031
    H   H43  0.873843  0.821821  0.343325  0.110914
    H   H44  0.847921  0.697882  0.301686  0.101891
    H   H45  0.772917  0.609371  0.353272  0.116784
    C   C78  0.287634  0.372188  0.452358  -0.498206
    C   C79  0.241785  0.320959  0.419065  0.312496
    C   C80  0.227182  0.249848  0.439705  -0.217617
    C   C81  0.185438  0.202122  0.408664  -0.084455
    C   C82  0.158489  0.225072  0.356831  -0.154750
    C   C83  0.173416  0.295774  0.335917  -0.067517
    C   C84  0.215244  0.343618  0.366855  -0.211785
    H   H46  0.312600  0.338868  0.486741  0.122835
    H   H47  0.327198  0.392906  0.421867  0.135957
    H   H48  0.247707  0.231299  0.480435  0.109878
    H   H49  0.173772  0.146689  0.425085  0.106732
    H   H50  0.125679  0.187587  0.332599  0.110256
    H   H51  0.152295  0.313709  0.295243  0.102954
    H   H52  0.226806  0.399038  0.350340  0.108095
