# Generated by REPEAT Assigner based on pymatgen
data_DB0-m3_o7_o9_f0_pcu.sym.92
_audit_creation_date              2022-05-24
_audit_creation_method            REPEAT_Assigner
_cell_length_a                    10.993816
_cell_length_b                    17.788215
_cell_length_c                    16.588366
_cell_angle_alpha                 90.000513
_cell_angle_beta                  90.002971
_cell_angle_gamma                 89.998468
_cell_volume                      3244.026782
_symmetry_space_group_name_H-M    P1
_symmetry_Int_Tables_number       1
loop_
    _symmetry_equiv_pos_site_id
    _symmetry_equiv_pos_as_xyz
    1  x,y,z
loop_
    _atom_site_type_symbol
    _atom_site_label
    _atom_site_fract_x
    _atom_site_fract_y
    _atom_site_fract_z
    _atom_type_partial_charge
    O   O1   0.512624  0.388885  0.568654  -0.642348
    O   O2   0.524072  0.610571  0.426620  -0.647127
    O   O3   0.516837  0.386613  0.429866  -0.698589
    O   O4   0.519870  0.612874  0.565416  -0.703986
    C   C1   0.513671  0.352418  0.499883  0.769208
    C   C2   0.523010  0.647035  0.495361  0.778074
    O   O5   0.335347  0.503454  0.565141  -0.650037
    O   O6   0.701331  0.496074  0.430155  -0.650874
    O   O7   0.338956  0.500606  0.426480  -0.579428
    O   O8   0.697673  0.498936  0.568783  -0.567121
    C   C3   0.279677  0.503449  0.495118  0.679435
    C   C4   0.757032  0.496162  0.500202  0.670765
    Zn  Zn1  0.515995  0.501175  0.589148  1.019660
    Zn  Zn2  0.520656  0.498303  0.406131  1.024591
    H   H1   0.256138  0.641204  0.158848  0.062608
    H   H2   0.780510  0.373029  0.843236  0.063098
    C   C5   0.238572  0.652724  0.286444  -0.186867
    C   C6   0.796755  0.355623  0.716336  -0.235916
    H   H3   0.288362  0.705053  0.288586  0.127384
    H   H4   0.745175  0.303999  0.717103  0.164437
    C   C7   0.192736  0.621991  0.356439  -0.103942
    C   C8   0.842981  0.382552  0.644667  -0.095594
    H   H5   0.205949  0.650831  0.413133  0.103201
    H   H6   0.828423  0.351373  0.589563  0.105741
    C   C9   0.129386  0.554911  0.353997  0.119439
    C   C10  0.907745  0.449120  0.643408  0.116495
    C   C11  0.109300  0.520026  0.280799  -0.127784
    C   C12  0.929299  0.487059  0.714666  -0.115780
    H   H7   0.058289  0.468126  0.278119  0.093099
    H   H8   0.981400  0.538605  0.714470  0.091437
    C   C13  0.155347  0.550794  0.210871  -0.138405
    C   C14  0.883337  0.459890  0.786291  -0.147078
    H   H9   0.140276  0.523039  0.153765  0.089241
    H   H10  0.899606  0.490048  0.841830  0.090117
    C   C15  0.220276  0.617022  0.213704  -0.026098
    C   C16  0.816644  0.394317  0.787095  -0.014978
    C   C17  0.951012  0.517935  0.431037  -0.120084
    C   C18  0.085853  0.482060  0.564443  -0.122209
    H   H11  0.899355  0.535253  0.378848  0.089428
    H   H12  0.137469  0.465098  0.616785  0.090083
    C   C19  0.891434  0.495582  0.500488  -0.078303
    C   C20  0.145358  0.504257  0.494979  -0.078694
    C   C21  0.960654  0.477120  0.568045  0.019343
    C   C22  0.076218  0.523560  0.427749  0.023773
    C   C23  0.511724  0.846519  0.563545  -0.283066
    C   C24  0.532562  0.153274  0.431279  -0.268904
    H   H13  0.500051  0.877380  0.619148  0.145608
    H   H14  0.546686  0.122749  0.375712  0.145754
    C   C25  0.512760  0.769326  0.564961  0.009956
    C   C26  0.531571  0.230470  0.430379  0.004337
    H   H15  0.501942  0.740864  0.622053  0.084535
    H   H16  0.545741  0.259256  0.373799  0.083754
    C   C27  0.524809  0.729623  0.494026  -0.200234
    C   C28  0.513497  0.269789  0.501007  -0.180566
    C   C29  0.537978  0.768028  0.421885  0.024290
    C   C30  0.495889  0.230969  0.572479  -0.030080
    H   H17  0.545554  0.735587  0.367731  0.072844
    H   H18  0.479090  0.263174  0.625902  0.082899
    C   C31  0.541146  0.846253  0.419811  -0.172465
    C   C32  0.497846  0.152677  0.574507  -0.109895
    C   C33  0.524925  0.885055  0.492064  0.261899
    C   C34  0.515763  0.114307  0.502145  0.214965
    C   C35  0.520259  0.965826  0.495105  -0.161946
    C   C36  0.517319  0.033518  0.498292  -0.128230
    C   C37  0.439539  0.453937  0.832939  -0.269990
    C   C38  0.598636  0.544647  0.162340  -0.242475
    H   H19  0.380896  0.415394  0.864997  0.150110
    H   H20  0.658543  0.582439  0.130281  0.141974
    C   C39  0.439801  0.455094  0.749814  -0.003032
    C   C40  0.598405  0.543454  0.245467  -0.034777
    H   H21  0.381199  0.417210  0.716847  0.155898
    H   H22  0.658264  0.580578  0.278435  0.168094
    N   N1   0.513343  0.502703  0.709646  -0.100406
    N   N2   0.523322  0.496773  0.285633  -0.088409
    C   C41  0.587303  0.550063  0.749818  0.170850
    C   C42  0.447712  0.450417  0.245463  0.160906
    H   H23  0.646249  0.587740  0.716856  0.081829
    H   H24  0.387540  0.413490  0.278429  0.082995
    C   C43  0.589123  0.550301  0.832941  -0.317153
    C   C44  0.445786  0.450259  0.162343  -0.310103
    H   H25  0.649041  0.588090  0.865000  0.163746
    H   H26  0.384563  0.413275  0.130287  0.162620
    C   C45  0.515006  0.501723  0.874846  0.390852
    C   C46  0.521519  0.497873  0.120437  0.379813
    C   C47  0.517246  0.500413  0.961331  -0.162854
    C   C48  0.519282  0.499219  0.033952  -0.160679
    C   C49  0.557610  0.890325  0.342086  0.262299
    C   C50  0.682853  0.927406  0.337356  -0.043382
    C   C51  0.778639  0.874209  0.305476  0.079072
    C   C52  0.744232  0.850167  0.221366  -0.002528
    C   C53  0.629275  0.804065  0.225629  0.086514
    C   C54  0.525481  0.848794  0.263727  -0.131343
    H   H27  0.490280  0.936645  0.343857  -0.037730
    H   H28  0.712449  0.947426  0.397389  0.008090
    H   H29  0.677018  0.976802  0.296744  -0.001595
    H   H30  0.786627  0.824438  0.345376  -0.035575
    H   H31  0.867392  0.903779  0.303471  -0.025342
    H   H32  0.818273  0.815317  0.195575  -0.028724
    H   H33  0.729752  0.900121  0.182531  -0.001944
    H   H34  0.648676  0.751589  0.258801  -0.009329
    H   H35  0.602216  0.788274  0.163491  -0.029311
    H   H36  0.445205  0.812095  0.272891  0.003933
    H   H37  0.498028  0.892162  0.219270  0.030229
    C   C55  0.475413  0.108051  0.651230  0.225170
    C   C56  0.590836  0.069881  0.682419  -0.004666
    C   C57  0.666100  0.121708  0.734487  0.021252
    C   C58  0.591883  0.145611  0.806492  -0.035920
    C   C59  0.486570  0.192878  0.777731  0.083495
    C   C60  0.406701  0.149277  0.718661  -0.061759
    H   H38  0.412080  0.062163  0.634523  -0.038694
    H   H39  0.648591  0.050466  0.631936  0.002173
    H   H40  0.564420  0.020007  0.718515  -0.004548
    H   H41  0.694816  0.171460  0.699132  -0.024428
    H   H42  0.748072  0.091167  0.755597  -0.010048
    H   H43  0.649483  0.179558  0.847569  -0.011731
    H   H44  0.557693  0.095564  0.839297  0.009437
    H   H45  0.522534  0.245239  0.751082  -0.012959
    H   H46  0.430399  0.208733  0.830592  -0.030878
    H   H47  0.336027  0.186730  0.692944  -0.020098
    H   H48  0.358012  0.105836  0.754138  0.016191
