# Generated by REPEAT Assigner based on pymatgen
data_DB0-m3_o52_o159_f0_fsc.sym.28
_audit_creation_date              2022-05-24
_audit_creation_method            REPEAT_Assigner
_cell_length_a                    13.431299
_cell_length_b                    8.537225
_cell_length_c                    14.997421
_cell_angle_alpha                 90.000000
_cell_angle_beta                  90.996136
_cell_angle_gamma                 90.000000
_cell_volume                      1719.434654
_symmetry_space_group_name_H-M    P1
_symmetry_Int_Tables_number       1
loop_
    _symmetry_equiv_pos_site_id
    _symmetry_equiv_pos_as_xyz
    1  x,y,z
loop_
    _atom_site_type_symbol
    _atom_site_label
    _atom_site_fract_x
    _atom_site_fract_y
    _atom_site_fract_z
    _atom_type_partial_charge
    H   H1   0.947183  0.966253  0.560667  0.074881
    C   C1   0.989289  0.105707  0.671581  -0.129608
    C   C2   0.988271  0.826111  0.671591  -0.123137
    C   C3   0.012191  0.106417  0.761542  0.049121
    C   C4   0.011266  0.825139  0.761553  0.045535
    H   H2   0.023369  0.216971  0.795344  0.022751
    H   H3   0.021856  0.714456  0.795362  0.021761
    C   C5   0.017107  0.965762  0.807817  -0.393281
    C   C6   0.970055  0.966062  0.629413  -0.019251
    N   N1   0.023227  0.829614  0.950483  -0.321941
    N   N2   0.023476  0.102062  0.950435  -0.326352
    N   N3   0.021120  0.829690  0.038578  -0.353395
    N   N4   0.021355  0.102143  0.038533  -0.337568
    C   C7   0.019454  0.965949  0.083589  0.902685
    C   C8   0.024378  0.965801  0.905392  0.844309
    C   C9   0.010444  0.106836  0.227397  0.060953
    C   C10  0.010979  0.825000  0.227316  0.102928
    H   H4   0.010647  0.217693  0.192639  0.019025
    H   H5   0.012127  0.714203  0.192524  -0.004961
    C   C11  0.007682  0.105539  0.319275  -0.043662
    C   C12  0.006961  0.826030  0.319116  -0.031468
    C   C13  0.009381  0.965695  0.363731  -0.200282
    H   H6   0.012765  0.965544  0.434987  0.135831
    C   C14  0.014093  0.965965  0.181117  -0.475589
    O   O1   0.078906  0.635263  0.590805  -0.754141
    O   O2   0.079959  0.296899  0.590943  -0.737900
    O   O3   0.907038  0.629615  0.584029  -0.785624
    O   O4   0.908225  0.301824  0.583951  -0.761398
    C   C15  0.991337  0.684476  0.616800  0.946180
    C   C16  0.992472  0.247434  0.616915  0.922296
    O   O5   0.915081  0.634477  0.398812  -0.680216
    O   O6   0.916060  0.296139  0.399504  -0.714492
    O   O7   0.086681  0.629347  0.405853  -0.782547
    O   O8   0.087699  0.302778  0.405822  -0.808752
    C   C17  0.002638  0.683529  0.372738  0.915946
    C   C18  0.003591  0.247866  0.373061  0.971777
    Zn  Zn1  0.886171  0.465624  0.488727  1.026870
    Zn  Zn2  0.108319  0.466205  0.501210  1.074684
    C   C19  0.286060  0.474743  0.428602  -0.226162
    N   N5   0.238838  0.467220  0.506718  0.223914
    C   C20  0.291283  0.459221  0.583704  -0.206122
    C   C21  0.394242  0.459108  0.583515  -0.143647
    C   C22  0.444974  0.467713  0.503395  0.045557
    C   C23  0.388454  0.476538  0.425831  0.219145
    C   C24  0.610957  0.452519  0.572171  -0.194038
    C   C25  0.549211  0.467803  0.497902  0.049664
    C   C26  0.593879  0.483348  0.415567  0.267211
    C   C27  0.534919  0.489422  0.338909  -0.301253
    C   C28  0.433228  0.485640  0.344371  -0.181102
    C   C29  0.712638  0.449899  0.563267  -0.109929
    N   N6   0.755404  0.464624  0.483112  0.180243
    C   C30  0.697345  0.488236  0.409577  -0.236260
    H   H7   0.252765  0.452909  0.646291  0.183071
    H   H8   0.565592  0.490567  0.272967  0.213031
    H   H9   0.388532  0.489575  0.283772  0.142136
    H   H10  0.431125  0.453703  0.647569  0.142581
    H   H11  0.583782  0.439776  0.638691  0.149935
    H   H12  0.243216  0.479579  0.367046  0.182167
    H   H13  0.758124  0.439655  0.622981  0.177771
    C   C31  0.742019  0.530111  0.324095  0.661839
    O   O9   0.806124  0.448185  0.291651  -0.466866
    O   O10  0.708953  0.657618  0.279606  -0.447345
    C   C32  0.743741  0.692187  0.196533  0.502771
    C   C33  0.694264  0.840407  0.162456  -0.344291
    H   H14  0.726182  0.594324  0.150227  -0.058739
    H   H15  0.825361  0.710018  0.200319  -0.034025
    H   H16  0.612492  0.822862  0.158570  0.074830
    H   H17  0.722327  0.868457  0.095206  0.090986
    H   H18  0.711730  0.938474  0.208630  0.090956
