# Generated by REPEAT Assigner based on pymatgen
data_DB0-m3_o11_o25_f0_nbo.sym.12_sqe
_audit_creation_date              2022-05-24
_audit_creation_method            REPEAT_Assigner
_cell_length_a                    22.064255
_cell_length_b                    22.272259
_cell_length_c                    22.376810
_cell_angle_alpha                 60.172616
_cell_angle_beta                  119.506387
_cell_angle_gamma                 89.960464
_cell_volume                      7850.630227
_symmetry_space_group_name_H-M    P1
_symmetry_Int_Tables_number       1
loop_
    _symmetry_equiv_pos_site_id
    _symmetry_equiv_pos_as_xyz
    1  x,y,z
loop_
    _atom_site_type_symbol
    _atom_site_label
    _atom_site_fract_x
    _atom_site_fract_y
    _atom_site_fract_z
    _atom_type_partial_charge
    O   O1   0.579263  0.455266  0.494414  -0.706896
    O   O2   0.578187  0.561406  0.489444  -0.651046
    C   C1   0.605944  0.508891  0.489934  0.769240
    O   O3   0.423270  0.517516  0.373106  -0.672847
    O   O4   0.426792  0.621509  0.372259  -0.639228
    C   C2   0.404477  0.588916  0.333754  0.621120
    Zn  Zn1  0.490405  0.437482  0.497299  1.287362
    Zn  Zn2  0.491944  0.573394  0.497372  1.283771
    O   O5   0.404243  0.449404  0.505394  -0.675349
    O   O6   0.403296  0.555335  0.500654  -0.705321
    O   O7   0.555737  0.389366  0.622384  -0.640943
    O   O8   0.559423  0.493469  0.621540  -0.673774
    C   C3   0.376869  0.501472  0.505747  0.813225
    C   C4   0.578281  0.422083  0.660731  0.632662
    C   C5   0.281194  0.740814  0.973414  0.240812
    C   C6   0.315002  0.766612  0.029883  -0.231813
    H   H1   0.371426  0.769850  0.059630  0.074699
    H   H2   0.238151  0.887742  0.949897  0.085327
    C   C7   0.360700  0.633782  0.243875  0.155194
    C   C8   0.136480  0.886993  0.749901  0.101967
    C   C9   0.251719  0.692305  0.021328  -0.241967
    C   C10  0.284024  0.719287  0.077073  0.879948
    C   C11  0.180537  0.756003  0.963905  -0.262789
    C   C12  0.211192  0.803129  0.916571  0.837654
    C   C13  0.213434  0.781813  0.021315  -0.138356
    C   C14  0.243317  0.829789  0.972382  -0.238160
    C   C15  0.325467  0.672149  0.168493  -0.669005
    C   C16  0.170761  0.849423  0.825223  -0.613181
    H   H3   0.186051  0.797695  0.044028  0.067981
    H   H4   0.123807  0.753430  0.934467  0.093690
    H   H5   0.257067  0.634416  0.043346  0.095981
    C   C17  0.752073  0.565964  0.450422  -0.234866
    C   C18  0.816711  0.514713  0.518220  -0.160127
    H   H6   0.748884  0.608851  0.395508  0.185882
    H   H7   0.822299  0.476126  0.576322  0.116841
    C   C19  0.685528  0.569421  0.450493  0.366619
    C   C20  0.671489  0.507978  0.488242  -0.315600
    H   H8   0.706767  0.455857  0.514156  0.144179
    C   C21  0.731354  0.201264  0.025940  -0.246997
    C   C22  0.699086  0.283367  0.974313  0.226879
    H   H9   0.706871  0.160913  0.052025  0.103047
    H   H10  0.780140  0.323588  0.052859  0.088643
    C   C23  0.627274  0.377175  0.750233  0.143036
    C   C24  0.890116  0.124556  0.243674  0.105721
    C   C25  0.752419  0.209209  0.967523  -0.276627
    C   C26  0.719064  0.291248  0.916532  0.875897
    C   C27  0.825871  0.215638  0.020322  -0.119663
    C   C28  0.804040  0.208893  0.076973  0.853342
    C   C29  0.791652  0.298535  0.967619  -0.247768
    C   C30  0.770848  0.291233  0.026066  -0.237616
    C   C31  0.668732  0.338641  0.825378  -0.649578
    C   C32  0.851967  0.162203  0.168329  -0.621987
    H   H11  0.815537  0.339376  0.941078  0.087536
    H   H12  0.880605  0.185767  0.042395  0.059222
    H   H13  0.744166  0.176765  0.940960  0.094236
    C   C33  0.239199  0.437269  0.560129  0.241059
    C   C34  0.175443  0.492659  0.498852  -0.297654
    H   H14  0.167931  0.535121  0.440868  0.132959
    C   C35  0.303021  0.437180  0.553921  0.224161
    C   C36  0.314138  0.499948  0.512937  -0.334552
    H   H15  0.279931  0.551377  0.489749  0.139164
    O   O9   0.060408  0.906546  0.508005  -0.681863
    O   O10  0.951961  0.921258  0.498930  -0.690267
    C   C37  0.004769  0.884619  0.506418  0.765985
    O   O11  0.128738  0.944023  0.623477  -0.652834
    O   O12  0.022091  0.953537  0.618963  -0.681653
    C   C38  0.094030  0.930778  0.660086  0.681149
    Zn  Zn3  0.083480  0.997488  0.499345  1.297714
    Zn  Zn4  0.944270  0.014503  0.493956  1.290345
    O   O13  0.075066  0.091402  0.492863  -0.678901
    O   O14  0.967530  0.105213  0.485884  -0.677113
    O   O15  0.005608  0.057748  0.374310  -0.675761
    O   O16  0.899012  0.068569  0.369845  -0.663930
    C   C39  0.022930  0.127376  0.486749  0.678754
    C   C40  0.933625  0.081063  0.333336  0.676030
    O   O17  0.962631  0.630870  0.427386  -0.668814
    O   O18  0.035918  0.564496  0.571632  -0.682215
    C   C41  0.000751  0.626619  0.497321  0.690523
    O   O19  0.872120  0.543465  0.443144  -0.708507
    O   O20  0.946955  0.474761  0.587576  -0.686283
    C   C42  0.881858  0.511385  0.516178  0.764042
    Zn  Zn5  0.947157  0.546781  0.415342  1.278329
    Zn  Zn6  0.046151  0.460490  0.604298  1.266207
    O   O21  0.958163  0.442584  0.448199  -0.637391
    O   O22  0.029526  0.376584  0.592310  -0.577086
    O   O23  0.046320  0.533367  0.432010  -0.674867
    O   O24  0.121106  0.463079  0.576400  -0.695147
    C   C43  0.992948  0.380377  0.522720  0.509272
    C   C44  0.111341  0.495753  0.503145  0.757268
    C   C45  0.055078  0.693556  0.557936  -0.246672
    C   C46  0.003301  0.694723  0.492023  -0.107125
    H   H16  0.098005  0.642451  0.614001  0.189449
    H   H17  0.964594  0.746185  0.432658  0.103444
    C   C47  0.060636  0.761096  0.554094  0.350647
    C   C48  0.000152  0.816707  0.511487  -0.306402
    H   H18  0.946305  0.810443  0.484240  0.138350
    C   C49  0.988540  0.299981  0.476811  0.091459
    C   C50  0.988134  0.311581  0.529793  0.270204
    C   C51  0.984770  0.229723  0.487357  -0.115660
    C   C52  0.025361  0.197467  0.476300  -0.099077
    H   H19  0.951771  0.202524  0.508443  0.137020
    H   H20  0.062428  0.222318  0.461282  0.112833
    O   O25  0.628761  0.321588  0.943091  -0.387072
    C   C53  0.633115  0.317551  0.009546  0.083417
    H   H21  0.655250  0.359905  0.016798  0.023964
    H   H22  0.667816  0.262371  0.068509  -0.011315
    H   H23  0.577014  0.328038  0.995524  0.066244
    O   O26  0.245083  0.377935  0.628179  -0.227093
    C   C54  0.222129  0.329491  0.605903  -0.126649
    H   H24  0.266166  0.275512  0.652987  0.089015
    H   H25  0.210559  0.350366  0.543600  0.038944
    H   H26  0.171361  0.323213  0.603712  0.147985
    O   O27  0.353003  0.371255  0.594276  -0.222743
    C   C55  0.404649  0.351453  0.675450  -0.018900
    H   H27  0.391168  0.393994  0.683181  0.037755
    H   H28  0.460194  0.345103  0.687591  0.083954
    H   H29  0.404437  0.298878  0.721101  0.045629
    O   O28  0.312828  0.722433  0.941269  -0.398805
    C   C56  0.384936  0.675980  0.008315  0.085881
    H   H30  0.387316  0.636684  0.065559  -0.011083
    H   H31  0.421466  0.708699  0.019771  0.024776
    H   H32  0.404700  0.644207  0.992198  0.066740
    O   O29  0.129220  0.764597  0.598767  -0.293155
    C   C57  0.147914  0.730643  0.680253  0.110278
    H   H33  0.192224  0.677402  0.722298  0.009091
    H   H34  0.099413  0.721224  0.682261  -0.008552
    H   H35  0.167490  0.766336  0.701884  0.065373
    O   O30  0.000872  0.349438  0.419230  -0.269931
    C   C58  0.933586  0.381837  0.341687  0.131197
    H   H36  0.887725  0.378994  0.349791  -0.006652
    H   H37  0.932681  0.353147  0.312678  0.008575
    H   H38  0.926531  0.440130  0.300260  0.039037
    O   O31  0.985016  0.257514  0.593736  -0.374007
    C   C59  0.058090  0.214919  0.661432  0.243164
    H   H39  0.070092  0.217120  0.714474  0.008979
    H   H40  0.096464  0.235513  0.643920  -0.082330
    H   H41  0.066386  0.157462  0.680723  -0.000619
    O   O32  0.636028  0.636612  0.407099  -0.318759
    C   C60  0.591568  0.658658  0.324030  0.169632
    H   H42  0.601501  0.612741  0.319481  -0.027753
    H   H43  0.604079  0.704699  0.285352  -0.004583
    H   H44  0.532855  0.676595  0.300278  0.043571
