# generated using pymatgen
data_Fe2H15C40O16F
_symmetry_space_group_name_H-M   'P 1'
_cell_length_a   13.32896600
_cell_length_b   12.41719100
_cell_length_c   13.21653000
_cell_angle_alpha   80.75746100
_cell_angle_beta   84.93406900
_cell_angle_gamma   109.97681500
_symmetry_Int_Tables_number   1
_chemical_formula_structural   Fe2H15C40O16F
_chemical_formula_sum   'Fe2 H15 C40 O16 F1'
_cell_volume   2004.82398559
_cell_formula_units_Z   1
loop_
 _symmetry_equiv_pos_site_id
 _symmetry_equiv_pos_as_xyz
  1  'x, y, z'
loop_
 _atom_site_type_symbol
 _atom_site_label
 _atom_site_symmetry_multiplicity
 _atom_site_fract_x
 _atom_site_fract_y
 _atom_site_fract_z
 _atom_site_occupancy
  Fe  Fe1  1  0.47398900  0.93212900  0.23823300  1
  Fe  Fe2  1  0.46953400  0.93863700  0.78255000  1
  H  H1  1  0.19376300  0.03210300  0.20530400  1
  H  H2  1  0.03249200  0.05752700  0.15522000  1
  H  H3  1  0.09287900  0.95355800  0.86989500  1
  H  H4  1  0.81492000  0.05164000  0.77996000  1
  H  H5  1  0.86607600  0.94565800  0.13933600  1
  H  H6  1  0.45849100  0.79742400  0.53901700  1
  H  H7  1  0.52022300  0.53423900  0.73974100  1
  H  H8  1  0.55868400  0.09759400  0.46989300  1
  H  H9  1  0.50301700  0.36656200  0.27013800  1
  H  H10  1  0.48265300  0.52278500  0.33111400  1
  H  H11  1  0.53020600  0.36942900  0.68160000  1
  H  H12  1  0.95825900  0.00495300  0.68971800  1
  H  H13  1  0.10287200  0.12197500  0.54600200  1
  H  H14  1  0.24496100  0.35895600  0.73805000  1
  H  H15  1  0.09962000  0.24375200  0.88216500  1
  C  C1  1  0.17276800  0.01645500  0.13044800  1
  C  C2  1  0.08031400  0.02992400  0.10200000  1
  C  C3  1  0.05012700  0.00847600  0.00764500  1
  C  C4  1  0.11740100  0.97729000  0.94130900  1
  C  C5  1  0.21532500  0.97326200  0.96554900  1
  C  C6  1  0.24150800  0.98966200  0.06314200  1
  C  C7  1  0.92989000  0.04896100  0.88093000  1
  C  C8  1  0.82642700  0.02851100  0.85924300  1
  C  C9  1  0.73772400  0.98094400  0.93639700  1
  C  C10  1  0.75397600  0.96346500  0.03963000  1
  C  C11  1  0.85631200  0.97229900  0.06021900  1
  C  C12  1  0.94478500  0.01153400  0.98178000  1
  C  C13  1  0.67027900  0.94694700  0.12834600  1
  C  C14  1  0.47690700  0.72656900  0.36511800  1
  C  C15  1  0.33979400  0.98146700  0.09948100  1
  C  C16  1  0.51863400  0.15552400  0.28279800  1
  C  C17  1  0.49869400  0.74468600  0.72358600  1
  C  C18  1  0.63073100  0.94961200  0.90359400  1
  C  C19  1  0.52924500  0.15901900  0.64319500  1
  C  C20  1  0.28852900  0.95568100  0.88468800  1
  C  C21  1  0.47623200  0.66006400  0.46834800  1
  C  C22  1  0.46758700  0.71332500  0.55107900  1
  C  C23  1  0.48426400  0.66938300  0.64758800  1
  C  C24  1  0.50484900  0.56716500  0.66418700  1
  C  C25  1  0.50669800  0.50797200  0.58414000  1
  C  C26  1  0.49431500  0.55468800  0.48555900  1
  C  C27  1  0.52269000  0.40257300  0.60348800  1
  C  C28  1  0.52936300  0.34281700  0.52440100  1
  C  C29  1  0.51726600  0.39029900  0.42585300  1
  C  C30  1  0.49797600  0.49352300  0.40739500  1
  C  C31  1  0.54229600  0.23430000  0.54096300  1
  C  C32  1  0.55021600  0.18196700  0.45744700  1
  C  C33  1  0.53602700  0.22851500  0.36071700  1
  C  C34  1  0.51791000  0.33190400  0.34534500  1
  C  C35  1  0.01984000  0.11553700  0.79627700  1
  C  C36  1  0.02076600  0.08274200  0.70109800  1
  C  C37  1  0.10234200  0.14816200  0.62013700  1
  C  C38  1  0.18285500  0.24723500  0.63341700  1
  C  C39  1  0.18215400  0.28072900  0.72788000  1
  C  C40  1  0.10073700  0.21529500  0.80909600  1
  O  O1  1  0.57123200  0.93626000  0.11429300  1
  O  O2  1  0.54562500  0.73222100  0.28536800  1
  O  O3  1  0.69828800  0.95586900  0.22026000  1
  O  O4  1  0.42685800  0.80152600  0.36059800  1
  O  O5  1  0.33151900  0.92125100  0.19326300  1
  O  O6  1  0.43514800  0.04839100  0.04715200  1
  O  O7  1  0.56290000  0.07544000  0.28621900  1
  O  O8  1  0.43830600  0.14932900  0.23083900  1
  O  O9  1  0.41796900  0.77601200  0.75410400  1
  O  O10  1  0.59764600  0.81068000  0.72947500  1
  O  O11  1  0.61888500  0.00903700  0.81684200  1
  O  O12  1  0.55336600  0.85036800  0.94857700  1
  O  O13  1  0.27953600  0.98441600  0.78689000  1
  O  O14  1  0.47884100  0.04585300  0.65092300  1
  O  O15  1  0.36688100  0.91924100  0.90785700  1
  O  O16  1  0.57364800  0.19960500  0.72063600  1
  F  F1  1  0.26209300  0.31217900  0.55329600  1
