# Generated by REPEAT Assigner based on pymatgen
data_DB0-m9_o17_o24_f0_sra.sym.82
_audit_creation_date              2022-05-24
_audit_creation_method            REPEAT_Assigner
_cell_length_a                    6.325671
_cell_length_b                    16.340430
_cell_length_c                    18.757466
_cell_angle_alpha                 110.030975
_cell_angle_beta                  90.732691
_cell_angle_gamma                 90.821848
_cell_volume                      1821.053791
_symmetry_space_group_name_H-M    P1
_symmetry_Int_Tables_number       1
loop_
    _symmetry_equiv_pos_site_id
    _symmetry_equiv_pos_as_xyz
    1  x,y,z
loop_
    _atom_site_type_symbol
    _atom_site_label
    _atom_site_fract_x
    _atom_site_fract_y
    _atom_site_fract_z
    _atom_type_partial_charge
    O  O1   0.407469  0.404608  0.523987  -0.303110
    O  O2   0.202006  0.381487  0.435129  -0.534129
    O  O3   0.989689  0.510096  0.401869  -0.577743
    C  C1   0.321933  0.385167  0.378401  0.568047
    O  O4   0.120620  0.466888  0.590726  -0.569870
    O  O5   0.915459  0.594540  0.556900  -0.526027
    C  C2   0.291334  0.421922  0.584459  0.572854
    O  O6   0.486745  0.438585  0.389447  -0.594304
    O  O7   0.307995  0.558104  0.506905  -0.545995
    V  V1   0.030576  0.481414  0.494699  1.446279
    O  O8   0.624800  0.552899  0.605753  -0.587806
    C  C3   0.801011  0.597491  0.615257  0.580204
    O  O9   0.710638  0.587037  0.471060  -0.366564
    C  C4   0.826366  0.561519  0.408788  0.613426
    V  V2   0.531367  0.502415  0.498498  1.227145
    O  O10  0.802401  0.425312  0.483632  -0.591791
    C  C5   0.702855  0.885145  0.190575  -0.239337
    C  C6   0.847332  0.869170  0.133166  0.015186
    C  C7   0.988130  0.802328  0.121252  -0.276685
    C  C8   0.983497  0.751340  0.166630  0.282651
    C  C9   0.838336  0.767208  0.223848  -0.077748
    C  C10  0.698300  0.834240  0.235899  0.177338
    C  C11  0.123439  0.684215  0.154599  -0.339677
    C  C12  0.118298  0.633067  0.199759  0.192898
    C  C13  0.973074  0.648973  0.256920  -0.084141
    C  C14  0.832974  0.715988  0.268955  0.021133
    C  C15  0.687847  0.731881  0.326193  0.329998
    C  C16  0.547916  0.799021  0.338231  -0.314921
    C  C17  0.553066  0.850152  0.293056  -0.188807
    C  C18  0.968640  0.598111  0.302283  -0.126715
    C  C19  0.824254  0.614132  0.359728  -0.021623
    C  C20  0.683360  0.680940  0.371611  -0.279242
    H  H1   0.591928  0.937306  0.199689  0.144546
    H  H2   0.100865  0.789463  0.076076  0.109935
    H  H3   0.237238  0.671734  0.109796  0.180277
    H  H4   0.079635  0.545974  0.293192  0.091123
    H  H5   0.570713  0.693839  0.416816  0.110154
    H  H6   0.434243  0.811595  0.383088  0.155796
    H  H7   0.443210  0.902727  0.302451  0.131131
    C  C21  0.699455  0.798431  0.743671  -0.270010
    C  C22  0.874180  0.765845  0.687235  0.081104
    H  H8   0.902598  0.784831  0.636737  0.034904
    C  C23  0.822015  0.674757  0.685561  0.099338
    C  C24  0.644050  0.706945  0.740636  0.050283
    C  C25  0.800166  0.717167  0.805826  -0.128315
    C  C26  0.977167  0.683606  0.749550  -0.142681
    C  C27  0.029575  0.775964  0.752555  -0.061512
    C  C28  0.852335  0.808337  0.807771  0.239512
    H  H9   0.482804  0.677421  0.733867  0.016707
    H  H10  0.770526  0.698581  0.856457  0.066376
    H  H11  0.093512  0.633767  0.750304  0.074405
    H  H12  0.190206  0.805797  0.759044  0.106570
    C  C29  0.516589  0.251373  0.284792  -0.015587
    C  C30  0.371354  0.171400  0.264110  -0.118043
    H  H13  0.402006  0.111177  0.276915  0.059118
    H  H14  0.666106  0.261153  0.318449  0.056104
    C  C31  0.347062  0.175722  0.185462  0.241263
    C  C32  0.492271  0.254394  0.204962  -0.176376
    C  C33  0.301058  0.312187  0.229200  -0.066942
    C  C34  0.155824  0.232220  0.208522  -0.053461
    C  C35  0.180141  0.229199  0.288351  -0.130828
    C  C36  0.325347  0.307868  0.307845  0.190576
    H  H15  0.622296  0.263077  0.168933  0.071346
    H  H16  0.270394  0.372412  0.216398  0.042398
    H  H17  0.006296  0.222448  0.174875  0.067496
    H  H18  0.050121  0.220520  0.324384  0.065488
    C  C37  0.507772  0.105232  0.803868  -0.084723
    C  C38  0.362104  0.114906  0.860153  -0.081439
    C  C39  0.205013  0.175426  0.870928  -0.283417
    C  C40  0.194762  0.226353  0.825507  0.245293
    C  C41  0.341250  0.216734  0.769429  -0.046687
    C  C42  0.497485  0.156019  0.758543  0.128776
    C  C43  0.038638  0.287248  0.836358  -0.202717
    C  C44  0.029045  0.338342  0.791200  -0.160391
    C  C45  0.175646  0.328655  0.735220  0.131393
    C  C46  0.331831  0.267908  0.724318  -0.028297
    C  C47  0.478236  0.258231  0.668204  0.260632
    C  C48  0.634426  0.197371  0.657379  -0.209917
    C  C49  0.644144  0.146347  0.702588  -0.192558
    C  C50  0.165312  0.379409  0.689858  -0.199393
    C  C51  0.310713  0.369550  0.633454  0.003088
    C  C52  0.467789  0.309036  0.622694  -0.299993
    H  H19  0.631556  0.058145  0.795701  0.096530
    H  H20  0.091221  0.183467  0.915206  0.122069
    H  H21  0.923796  0.294955  0.880257  0.127679
    H  H22  0.906447  0.385987  0.799664  0.110405
    H  H23  0.041672  0.426576  0.698057  0.138544
    H  H24  0.581386  0.300890  0.578339  0.124418
    H  H25  0.749211  0.189636  0.613457  0.138211
    H  H26  0.766787  0.098725  0.694146  0.117601
    O  O11  0.185464  0.045141  0.103706  -0.593316
    O  O12  0.551647  0.017124  0.902540  -0.605061
    O  O13  0.756451  0.889215  0.936085  -0.488428
    C  C53  0.381187  0.062264  0.908945  0.634209
    O  O14  0.470362  0.102251  0.058173  -0.545737
    O  O15  0.682294  0.973411  0.091193  -0.580728
    C  C54  0.350462  0.098471  0.114853  0.550141
    O  O16  0.265005  0.079398  0.969384  -0.315745
    O  O17  0.364020  0.925699  0.986148  -0.588653
    V  V3   0.641580  0.002327  0.998469  1.498043
    O  O18  0.961026  0.896442  0.021913  -0.366077
    C  C55  0.845426  0.921900  0.084203  0.596441
    O  O19  0.047375  0.931034  0.887394  -0.605865
    C  C56  0.871880  0.885985  0.877850  0.521727
    V  V4   0.140595  0.981141  0.994692  1.292138
    O  O20  0.869826  0.058385  0.009639  -0.621224
    C  C57  0.542870  0.867230  0.742658  0.143981
    C  C58  0.401792  0.832748  0.674349  -0.180228
    C  C59  0.251891  0.882501  0.661623  -0.446392
    H  H27  0.629881  0.925904  0.740949  0.054057
    H  H28  0.447071  0.884968  0.794659  0.032071
    H  H29  0.421437  0.767099  0.634973  0.147389
    H  H30  0.232320  0.948167  0.700971  0.156601
    H  H31  0.149223  0.857435  0.611885  0.169970
    C  C60  0.269435  0.560842  0.186860  -0.049096
    C  C61  0.407302  0.557073  0.122102  -0.078021
    C  C62  0.615495  0.567414  0.132650  -0.389005
    H  H32  0.180472  0.498264  0.173605  0.055649
    H  H33  0.368483  0.572329  0.238716  0.082750
    H  H34  0.337868  0.545853  0.066341  0.077236
    H  H35  0.684957  0.578601  0.188402  0.147115
    H  H36  0.715841  0.564668  0.085502  0.135836
