# generated using pymatgen
data_CuH11C28N2(ClO2)3
_symmetry_space_group_name_H-M   'P 1'
_cell_length_a   10.94550900
_cell_length_b   9.54112600
_cell_length_c   23.39618000
_cell_angle_alpha   90.00000000
_cell_angle_beta   90.00913500
_cell_angle_gamma   90.00000000
_symmetry_Int_Tables_number   1
_chemical_formula_structural   CuH11C28N2(ClO2)3
_chemical_formula_sum   'Cu2 H22 C56 N4 Cl6 O12'
_cell_volume   2443.32108064
_cell_formula_units_Z   2
loop_
 _symmetry_equiv_pos_site_id
 _symmetry_equiv_pos_as_xyz
  1  'x, y, z'
loop_
 _atom_site_type_symbol
 _atom_site_label
 _atom_site_symmetry_multiplicity
 _atom_site_fract_x
 _atom_site_fract_y
 _atom_site_fract_z
 _atom_site_occupancy
  Cu  Cu1  1  0.50356100  0.64015200  0.49981000  1
  Cu  Cu2  1  0.49648100  0.35985900  0.50018600  1
  H  H1  1  0.29527100  0.75957500  0.94924500  1
  H  H2  1  0.70478700  0.24036300  0.05073600  1
  H  H3  1  0.28887700  0.75054600  0.05238000  1
  H  H4  1  0.71116200  0.24940800  0.94760100  1
  H  H5  1  0.54719000  0.70561000  0.21190900  1
  H  H6  1  0.45274200  0.29440200  0.78810100  1
  H  H7  1  0.44969500  0.28064000  0.32103900  1
  H  H8  1  0.55043000  0.71927500  0.67894600  1
  H  H9  1  0.44508900  0.27515800  0.21728900  1
  H  H10  1  0.55486800  0.72481400  0.78272700  1
  H  H11  1  0.11521900  0.08197800  0.59170600  1
  H  H12  1  0.88485400  0.91800200  0.40826800  1
  H  H13  1  0.92036300  0.02875500  0.54492200  1
  H  H14  1  0.07970800  0.97119800  0.45508200  1
  H  H15  1  0.18608400  0.79454100  0.50734800  1
  H  H16  1  0.81391300  0.20543200  0.49267600  1
  H  H17  1  0.79256200  0.69075100  0.42028100  1
  H  H18  1  0.20746800  0.30923800  0.57971000  1
  H  H19  1  0.65834500  0.25448900  0.57801100  1
  H  H20  1  0.34171200  0.74552800  0.42198000  1
  H  H21  1  0.32535000  0.24537200  0.42476900  1
  H  H22  1  0.67469100  0.75467200  0.57520400  1
  C  C1  1  0.26359100  0.50763500  0.50493400  1
  C  C2  1  0.73645500  0.49237600  0.49507700  1
  C  C3  1  0.49954300  0.49790600  0.38977400  1
  C  C4  1  0.50050900  0.50208500  0.61022200  1
  C  C5  1  0.57978300  0.41981200  0.88157900  1
  C  C6  1  0.42024000  0.58014900  0.11840500  1
  C  C7  1  0.43366300  0.59953400  0.88208400  1
  C  C8  1  0.56637900  0.40044200  0.11791300  1
  C  C9  1  0.42979500  0.59649300  0.94119700  1
  C  C10  1  0.57024500  0.40344800  0.05879700  1
  C  C11  1  0.50193400  0.50266800  0.97053000  1
  C  C12  1  0.49810100  0.49726800  0.02945900  1
  C  C13  1  0.57777800  0.41407700  0.94064000  1
  C  C14  1  0.42225600  0.58586800  0.05934600  1
  C  C15  1  0.35312000  0.68516000  0.97114900  1
  C  C16  1  0.64691700  0.31477400  0.02884200  1
  C  C17  1  0.34938700  0.67988600  0.02999900  1
  C  C18  1  0.65064700  0.32005400  0.96999000  1
  C  C19  1  0.52395000  0.61263300  0.23597400  1
  C  C20  1  0.47602900  0.38735400  0.76402200  1
  C  C21  1  0.52734900  0.61770300  0.29478500  1
  C  C22  1  0.47264000  0.38228500  0.70520900  1
  C  C23  1  0.49971900  0.49808100  0.32664900  1
  C  C24  1  0.50030900  0.50189800  0.67335000  1
  C  C25  1  0.47149000  0.37527500  0.29784800  1
  C  C26  1  0.52855500  0.62469000  0.70215300  1
  C  C27  1  0.46902300  0.37151800  0.23887100  1
  C  C28  1  0.53096300  0.62846200  0.76113200  1
  C  C29  1  0.49445100  0.49068400  0.20772300  1
  C  C30  1  0.50553300  0.50929800  0.79227300  1
  C  C31  1  0.10513600  0.76225900  0.48517700  1
  C  C32  1  0.89488800  0.23771300  0.51483400  1
  C  C33  1  0.87851000  0.71014500  0.44146100  1
  C  C34  1  0.12152400  0.28983700  0.55853500  1
  C  C35  1  0.04206300  0.86679300  0.45753500  1
  C  C36  1  0.95798300  0.13317000  0.54246100  1
  C  C37  1  0.93195800  0.83823800  0.43258900  1
  C  C38  1  0.06810100  0.16172700  0.56739000  1
  C  C39  1  0.93586100  0.60823800  0.47451400  1
  C  C40  1  0.06417800  0.39174200  0.52547800  1
  C  C41  1  0.05789800  0.62697100  0.48923400  1
  C  C42  1  0.94213900  0.37300500  0.51076000  1
  C  C43  1  0.87338300  0.48698800  0.49030100  1
  C  C44  1  0.12666000  0.51299700  0.50969300  1
  C  C45  1  0.64603400  0.14511200  0.57598300  1
  C  C46  1  0.35399500  0.85490800  0.42402300  1
  C  C47  1  0.34345400  0.13692000  0.42580600  1
  C  C48  1  0.65658500  0.86311900  0.57418100  1
  C  C49  1  0.71687200  0.07653700  0.61506000  1
  C  C50  1  0.28313900  0.92347600  0.38495300  1
  C  C51  1  0.27778600  0.06494000  0.38584600  1
  C  C52  1  0.72222200  0.93506900  0.61416100  1
  C  C53  1  0.57583300  0.92833100  0.53615100  1
  C  C54  1  0.42419300  0.07169900  0.46384600  1
  C  C55  1  0.43018500  0.92431600  0.46298800  1
  C  C56  1  0.56984900  0.07570800  0.53701100  1
  N  N1  1  0.50775100  0.51130800  0.85327300  1
  N  N2  1  0.49226400  0.48866000  0.14671800  1
  N  N3  1  0.50696000  0.85130200  0.49877800  1
  N  N4  1  0.49307800  0.14871500  0.50121600  1
  Cl  Cl1  1  0.57193100  0.77817400  0.32516500  1
  Cl  Cl2  1  0.42803800  0.22181700  0.67483400  1
  Cl  Cl3  1  0.18118700  0.15448300  0.33866800  1
  Cl  Cl4  1  0.81878600  0.84547700  0.66134800  1
  Cl  Cl5  1  0.80705100  0.17151700  0.66324100  1
  Cl  Cl6  1  0.19296200  0.82846700  0.33677500  1
  O  O1  1  0.32590000  0.62409800  0.50352700  1
  O  O2  1  0.67414300  0.37591500  0.49648100  1
  O  O3  1  0.68086000  0.61438600  0.49994800  1
  O  O4  1  0.31918300  0.38563600  0.50004300  1
  O  O5  1  0.50607700  0.61706700  0.41689500  1
  O  O6  1  0.49394500  0.38293100  0.58310100  1
  O  O7  1  0.50872200  0.62170400  0.58299400  1
  O  O8  1  0.49134000  0.37829800  0.41700200  1
  O  O9  1  0.65500900  0.33511500  0.85212400  1
  O  O10  1  0.34503000  0.66487800  0.14785500  1
  O  O11  1  0.36038100  0.68735500  0.85308300  1
  O  O12  1  0.63970400  0.31269000  0.14692700  1
