# generated using pymatgen
data_CuH22C30NO4
_symmetry_space_group_name_H-M   'P 1'
_cell_length_a   14.99573900
_cell_length_b   10.92054700
_cell_length_c   13.54457900
_cell_angle_alpha   89.99141900
_cell_angle_beta   90.00021200
_cell_angle_gamma   90.01203700
_symmetry_Int_Tables_number   1
_chemical_formula_structural   CuH22C30NO4
_chemical_formula_sum   'Cu2 H44 C60 N2 O8'
_cell_volume   2218.08283718
_cell_formula_units_Z   2
loop_
 _symmetry_equiv_pos_site_id
 _symmetry_equiv_pos_as_xyz
  1  'x, y, z'
loop_
 _atom_site_type_symbol
 _atom_site_label
 _atom_site_symmetry_multiplicity
 _atom_site_fract_x
 _atom_site_fract_y
 _atom_site_fract_z
 _atom_site_occupancy
  Cu  Cu1  1  0.49638400  0.49645400  0.59924400  1
  Cu  Cu2  1  0.49825300  0.50382100  0.40191300  1
  H  H1  1  0.77858800  0.51626100  0.34431900  1
  H  H2  1  0.21744700  0.48455100  0.65687600  1
  H  H3  1  0.77922600  0.49515100  0.65954900  1
  H  H4  1  0.21695600  0.50505800  0.34163000  1
  H  H5  1  0.91891600  0.48687400  0.74699300  1
  H  H6  1  0.07810200  0.51600900  0.25433900  1
  H  H7  1  0.08199000  0.48181000  0.74463300  1
  H  H8  1  0.91524900  0.52146200  0.25614800  1
  H  H9  1  0.44455300  0.22743900  0.04719900  1
  H  H10  1  0.59904100  0.76539200  0.94195700  1
  H  H11  1  0.32239500  0.24112600  0.16743700  1
  H  H12  1  0.71183800  0.79440900  0.81266100  1
  H  H13  1  0.34457200  0.16614400  0.33650400  1
  H  H14  1  0.66734700  0.87212800  0.64973400  1
  H  H15  1  0.58455400  0.13573000  0.09090300  1
  H  H16  1  0.44314700  0.81612100  0.90988000  1
  H  H17  1  0.46969900  0.87948700  0.35085200  1
  H  H18  1  0.52478100  0.11889900  0.64973100  1
  H  H19  1  0.62602300  0.42066700  0.75657800  1
  H  H20  1  0.36857500  0.58020600  0.24275500  1
  H  H21  1  0.36573600  0.56503700  0.75758700  1
  H  H22  1  0.62987200  0.43807400  0.24485000  1
  H  H23  1  0.29084000  0.60471800  0.90979900  1
  H  H24  1  0.70866200  0.40721100  0.09134400  1
  H  H25  1  0.29249300  0.61558900  0.08917300  1
  H  H26  1  0.70581400  0.39250600  0.91048600  1
  H  H27  1  0.61871400  0.93806100  0.29031900  1
  H  H28  1  0.65679900  0.07832000  0.34532500  1
  H  H29  1  0.69057000  0.01124200  0.12800700  1
  H  H30  1  0.79317500  0.17618300  0.27297100  1
  H  H31  1  0.70493200  0.23521000  0.19678200  1
  H  H32  1  0.80268900  0.16905200  0.13997400  1
  H  H33  1  0.79744500  0.95751700  0.31452600  1
  H  H34  1  0.84097700  0.95231900  0.18999900  1
  H  H35  1  0.75244200  0.84991100  0.22606100  1
  H  H36  1  0.33084100  0.81472300  0.75798400  1
  H  H37  1  0.35356300  0.92888300  0.66774400  1
  H  H38  1  0.34219900  0.97200100  0.89247800  1
  H  H39  1  0.36773900  0.15051600  0.71890700  1
  H  H40  1  0.44797100  0.11795300  0.81593900  1
  H  H41  1  0.34451900  0.19216900  0.84496800  1
  H  H42  1  0.21854300  0.04142600  0.72151700  1
  H  H43  1  0.20500800  0.08132200  0.85034500  1
  H  H44  1  0.19880000  0.92318200  0.81273600  1
  C  C1  1  0.49997300  0.26360700  0.49521600  1
  C  C2  1  0.49402500  0.73574000  0.50599400  1
  C  C3  1  0.32592200  0.49476500  0.49934900  1
  C  C4  1  0.66895300  0.50512700  0.50184400  1
  C  C5  1  0.81364600  0.51088300  0.41392800  1
  C  C6  1  0.18241400  0.48973000  0.58722200  1
  C  C7  1  0.76719000  0.50575800  0.50206600  1
  C  C8  1  0.22844200  0.49432300  0.49908100  1
  C  C9  1  0.81423700  0.49940800  0.59002900  1
  C  C10  1  0.18188500  0.50091800  0.41108700  1
  C  C11  1  0.90652500  0.49747700  0.58931400  1
  C  C12  1  0.08984000  0.50404900  0.41177300  1
  C  C13  1  0.95216600  0.50213000  0.50091400  1
  C  C14  1  0.04420700  0.49954100  0.50016000  1
  C  C15  1  0.90571900  0.50942600  0.41340500  1
  C  C16  1  0.09062000  0.49227000  0.58769800  1
  C  C17  1  0.95347400  0.49047000  0.67701900  1
  C  C18  1  0.04322200  0.51215200  0.32413900  1
  C  C19  1  0.04535400  0.48778200  0.67605900  1
  C  C20  1  0.95134100  0.51503200  0.32501500  1
  C  C21  1  0.38581900  0.20217200  0.18891300  1
  C  C22  1  0.64272700  0.81618200  0.79789800  1
  C  C23  1  0.39819600  0.15964100  0.28340300  1
  C  C24  1  0.61759300  0.85975900  0.70662100  1
  C  C25  1  0.47862200  0.10855800  0.31082200  1
  C  C26  1  0.52956000  0.88866100  0.68725100  1
  C  C27  1  0.54793300  0.09747200  0.24287300  1
  C  C28  1  0.46559300  0.87528400  0.76126300  1
  C  C29  1  0.53445400  0.14165000  0.14765100  1
  C  C30  1  0.49178100  0.82985200  0.85216000  1
  C  C31  1  0.45407600  0.19371700  0.12146300  1
  C  C32  1  0.57965900  0.80075100  0.87053400  1
  C  C33  1  0.48195100  0.93096600  0.41766900  1
  C  C34  1  0.51068200  0.06780500  0.58354300  1
  C  C35  1  0.49391300  0.87121300  0.50652900  1
  C  C36  1  0.49884700  0.12779800  0.49462800  1
  C  C37  1  0.50855500  0.94170200  0.59068700  1
  C  C38  1  0.48687300  0.05688500  0.41003700  1
  C  C39  1  0.56897000  0.45427500  0.79664900  1
  C  C40  1  0.42650800  0.54657600  0.20401700  1
  C  C41  1  0.42387100  0.53288500  0.79666400  1
  C  C42  1  0.57209500  0.46921900  0.20464800  1
  C  C43  1  0.42364800  0.53470400  0.89849800  1
  C  C44  1  0.57337500  0.46778200  0.10259600  1
  C  C45  1  0.49798700  0.49825400  0.94974300  1
  C  C46  1  0.49877200  0.50289300  0.05135000  1
  C  C47  1  0.57150300  0.45798200  0.89872200  1
  C  C48  1  0.42521100  0.54373700  0.10218500  1
  C  C49  1  0.34971600  0.57558000  0.94898100  1
  C  C50  1  0.64850800  0.43031900  0.05187500  1
  C  C51  1  0.35057500  0.58120700  0.05069600  1
  C  C52  1  0.64726100  0.42345200  0.95007800  1
  C  C53  1  0.63355100  0.03555700  0.27561900  1
  C  C54  1  0.71164300  0.03758900  0.20327900  1
  C  C55  1  0.75583500  0.16260700  0.20313700  1
  C  C56  1  0.78001800  0.94335600  0.23579200  1
  C  C57  1  0.36803800  0.90097700  0.74455000  1
  C  C58  1  0.33178200  0.99905200  0.81453500  1
  C  C59  1  0.37613600  0.12231600  0.79697700  1
  C  C60  1  0.23213000  0.01213100  0.79847500  1
  N  N1  1  0.49577300  0.49140600  0.74693100  1
  N  N2  1  0.49913000  0.50807300  0.25416400  1
  O  O1  1  0.49635400  0.31923900  0.58101100  1
  O  O2  1  0.49825300  0.68082000  0.42002000  1
  O  O3  1  0.50360400  0.32512800  0.41191900  1
  O  O4  1  0.49042200  0.67497400  0.58944800  1
  O  O5  1  0.36707900  0.49720900  0.58432400  1
  O  O6  1  0.62755000  0.50228900  0.41698100  1
  O  O7  1  0.36846100  0.49470400  0.41479300  1
  O  O8  1  0.62617800  0.50561500  0.58619400  1
