# Generated by REPEAT Assigner based on pymatgen
data_DB0-m18_o17_o44_f0_fsc
_audit_creation_date              2022-05-24
_audit_creation_method            REPEAT_Assigner
_cell_length_a                    12.997911
_cell_length_b                    13.260523
_cell_length_c                    8.585230
_cell_angle_alpha                 90.000000
_cell_angle_beta                  93.343077
_cell_angle_gamma                 90.000000
_cell_volume                      1477.224289
_symmetry_space_group_name_H-M    P1
_symmetry_Int_Tables_number       1
loop_
    _symmetry_equiv_pos_site_id
    _symmetry_equiv_pos_as_xyz
    1  x,y,z
loop_
    _atom_site_type_symbol
    _atom_site_label
    _atom_site_fract_x
    _atom_site_fract_y
    _atom_site_fract_z
    _atom_type_partial_charge
    O   O1   0.894998  0.908180  0.825873  -0.716453
    O   O2   0.105003  0.091820  0.174128  -0.716522
    O   O3   0.118207  0.920631  0.173340  -0.700366
    O   O4   0.881793  0.079369  0.826661  -0.700475
    C   C1   0.849799  0.991069  0.773610  0.831744
    C   C2   0.150201  0.008931  0.226390  0.831743
    Fe  Fe1  0.992550  0.107677  0.999890  1.122523
    Fe  Fe2  0.007450  0.892323  0.000111  1.122544
    O   O5   0.888658  0.079566  0.165937  -0.731851
    O   O6   0.111343  0.920434  0.834064  -0.731744
    O   O7   0.097725  0.093563  0.831672  -0.739982
    O   O8   0.902275  0.906437  0.168329  -0.739881
    C   C3   0.860620  0.990493  0.216471  0.858698
    C   C4   0.139380  0.009507  0.783529  0.858660
    C   C5   0.028220  0.707724  0.134962  -0.241304
    C   C6   0.971781  0.292275  0.865042  -0.241359
    C   C7   0.996469  0.708277  0.863483  -0.245497
    C   C8   0.003531  0.291723  0.136520  -0.245640
    N   N1   0.014160  0.758403  0.999175  0.111868
    N   N2   0.985840  0.241597  0.000820  0.111804
    C   C9   0.990008  0.604328  0.862130  0.159594
    C   C10  0.009992  0.395672  0.137868  0.159672
    C   C11  0.023925  0.603594  0.136837  0.161047
    C   C12  0.976075  0.396406  0.863162  0.161051
    C   C13  0.003596  0.551831  0.999731  0.012027
    C   C14  0.996405  0.448169  0.000270  0.011978
    C   C15  0.968376  0.552835  0.724327  -0.191364
    C   C16  0.031625  0.447165  0.275673  -0.191472
    C   C17  0.038389  0.551100  0.275214  -0.184902
    C   C18  0.961611  0.448900  0.724787  -0.184978
    H   H1   0.040673  0.748746  0.243160  0.182126
    H   H2   0.959328  0.251254  0.756840  0.182122
    H   H3   0.985219  0.749541  0.755358  0.187601
    H   H4   0.014781  0.250459  0.244642  0.187618
    H   H5   0.956087  0.593648  0.615943  0.136109
    H   H6   0.043913  0.406352  0.384057  0.136122
    H   H7   0.055405  0.591057  0.383314  0.129773
    H   H8   0.944596  0.408943  0.616686  0.129775
    C   C19  0.204644  0.013777  0.651272  0.143815
    C   C20  0.795356  0.986223  0.348728  0.143759
    C   C21  0.310055  0.001506  0.667889  -0.481926
    C   C22  0.689946  0.998494  0.332112  -0.481907
    H   H9   0.347648  0.994763  0.783090  0.152546
    H   H10  0.652352  0.005237  0.216911  0.152543
    C   C23  0.368213  0.000088  0.537714  0.601717
    C   C24  0.631788  0.999912  0.462286  0.601743
    C   C25  0.318055  0.002243  0.389052  -0.331546
    C   C26  0.681945  0.997757  0.610948  -0.331572
    H   H11  0.359724  0.995250  0.284250  0.104155
    H   H12  0.640276  0.004750  0.715750  0.104150
    C   C27  0.211624  0.013281  0.374783  0.045249
    C   C28  0.788376  0.986719  0.625217  0.045279
    C   C29  0.157447  0.024240  0.505708  -0.278030
    C   C30  0.842553  0.975760  0.494293  -0.277998
    N   N3   0.477209  0.994649  0.561231  -0.251373
    N   N4   0.522791  0.005351  0.438770  -0.251434
    H   H13  0.075458  0.035256  0.493322  0.154216
    H   H14  0.924542  0.964744  0.506679  0.154203
