# Generated by REPEAT Assigner based on pymatgen
data_DB0-m2_o8_o17_f0_pcu.sym.76
_audit_creation_date              2022-05-24
_audit_creation_method            REPEAT_Assigner
_cell_length_a                    14.945400
_cell_length_b                    15.553482
_cell_length_c                    16.999841
_cell_angle_alpha                 96.361480
_cell_angle_beta                  90.004913
_cell_angle_gamma                 92.822508
_cell_volume                      3922.506791
_symmetry_space_group_name_H-M    P1
_symmetry_Int_Tables_number       1
loop_
    _symmetry_equiv_pos_site_id
    _symmetry_equiv_pos_as_xyz
    1  x,y,z
loop_
    _atom_site_type_symbol
    _atom_site_label
    _atom_site_fract_x
    _atom_site_fract_y
    _atom_site_fract_z
    _atom_type_partial_charge
    O   O1   0.499552  0.416551  0.382327  -0.656761
    O   O2   0.500175  0.582200  0.617968  -0.664032
    O   O3   0.500135  0.565134  0.388141  -0.589531
    O   O4   0.498948  0.433895  0.612195  -0.595162
    C   C1   0.500063  0.488028  0.348205  0.741794
    C   C2   0.499652  0.510834  0.652329  0.755966
    O   O5   0.366314  0.425444  0.499652  -0.682703
    O   O6   0.633246  0.573718  0.500174  -0.680079
    O   O7   0.373191  0.573588  0.499633  -0.653996
    O   O8   0.626359  0.425372  0.501014  -0.647542
    C   C3   0.328109  0.499180  0.499291  0.870632
    C   C4   0.671502  0.499790  0.500634  0.858644
    Cu  Cu1  0.495504  0.413023  0.497041  0.925753
    Cu  Cu2  0.504055  0.585933  0.503440  0.939708
    C   C5   0.813303  0.469098  0.562085  -0.076156
    C   C6   0.186147  0.530231  0.438750  -0.074574
    C   C7   0.769103  0.500701  0.501179  -0.129576
    C   C8   0.230558  0.498318  0.499325  -0.132136
    C   C9   0.816832  0.532153  0.440458  -0.193315
    C   C10  0.183177  0.466761  0.560224  -0.197304
    C   C11  0.908908  0.530010  0.439504  0.228944
    C   C12  0.090938  0.468578  0.561291  0.227428
    C   C13  0.953683  0.499695  0.500956  -0.044086
    C   C14  0.045981  0.498849  0.499836  -0.033781
    C   C15  0.906081  0.470160  0.563096  -0.030765
    C   C16  0.093405  0.528798  0.437537  -0.041469
    C   C17  0.955744  0.557396  0.376226  -0.445668
    C   C18  0.043899  0.441082  0.624319  -0.441691
    C   C19  0.048125  0.556996  0.374708  0.361924
    C   C20  0.951425  0.441706  0.625558  0.349739
    H   H1   0.773893  0.445592  0.609235  0.033767
    H   H2   0.225689  0.554151  0.391914  0.033409
    H   H3   0.781910  0.555740  0.392162  0.111545
    H   H4   0.219368  0.443321  0.607934  0.113812
    H   H5   0.919057  0.578033  0.327492  0.199373
    H   H6   0.080190  0.420467  0.673243  0.198972
    C   C21  0.499597  0.482165  0.261572  -0.175063
    C   C22  0.499487  0.516688  0.738948  -0.185644
    C   C23  0.500492  0.556901  0.224327  -0.068629
    C   C24  0.498279  0.442025  0.776426  -0.063351
    C   C25  0.500518  0.552328  0.142752  -0.143228
    C   C26  0.498691  0.446644  0.857833  -0.149760
    C   C27  0.499498  0.472222  0.097577  0.458112
    C   C28  0.500280  0.526775  0.902971  0.462060
    C   C29  0.498164  0.397986  0.135212  -0.347952
    C   C30  0.501432  0.601053  0.865382  -0.351507
    C   C31  0.498113  0.402694  0.216569  0.041329
    C   C32  0.501163  0.596202  0.783931  0.047801
    N   N1   0.499554  0.463965  0.013766  -0.240374
    N   N2   0.500617  0.534994  0.986595  -0.236624
    H   H7   0.497395  0.378713  0.743123  0.116376
    H   H8   0.501483  0.619596  0.258861  0.116955
    H   H9   0.498063  0.385775  0.883272  0.066533
    H   H10  0.501597  0.612328  0.116102  0.062856
    H   H11  0.497235  0.335401  0.100754  0.129887
    H   H12  0.502558  0.663969  0.899891  0.130846
    H   H13  0.496933  0.343017  0.243903  0.102519
    H   H14  0.502532  0.655517  0.756284  0.101638
    N   N3   0.510356  0.715106  0.508399  -0.086122
    N   N4   0.489387  0.283954  0.492146  -0.083227
    C   C33  0.458229  0.754719  0.460814  -0.068765
    C   C34  0.540457  0.244435  0.540654  -0.063765
    C   C35  0.462233  0.843670  0.462982  -0.214408
    C   C36  0.537892  0.155353  0.537145  -0.224617
    C   C37  0.517870  0.892818  0.517630  0.364942
    C   C38  0.481555  0.106179  0.482523  0.372373
    C   C39  0.569916  0.851317  0.566964  0.177182
    C   C40  0.430085  0.147975  0.432852  0.171009
    C   C41  0.564884  0.761889  0.562254  -0.082720
    C   C42  0.434695  0.237328  0.438379  -0.082991
    N   N5   0.523420  0.984536  0.524669  -0.181255
    N   N6   0.474454  0.014661  0.476587  -0.184058
    H   H15  0.582732  0.282642  0.584122  0.174342
    H   H16  0.413393  0.716239  0.419914  0.174928
    H   H17  0.579067  0.127349  0.579186  0.094806
    H   H18  0.420478  0.872119  0.421937  0.091623
    H   H19  0.604584  0.729324  0.601987  0.188182
    H   H20  0.394775  0.270689  0.399680  0.190754
    N   N7   0.627220  0.901343  0.622086  -0.354261
    C   C43  0.720566  0.887273  0.607242  -0.146506
    C   C44  0.603128  0.891050  0.702552  -0.148737
    H   H21  0.735929  0.893982  0.544402  0.081173
    H   H22  0.737304  0.821802  0.620727  0.045072
    H   H23  0.762027  0.936455  0.645124  0.112403
    H   H24  0.530949  0.902030  0.710900  0.080985
    H   H25  0.642605  0.939164  0.742943  0.110304
    H   H26  0.616916  0.825134  0.716840  0.054997
    N   N8   0.372701  0.098066  0.377305  -0.353367
    C   C45  0.396962  0.107127  0.296545  -0.139028
    C   C46  0.279197  0.111382  0.392154  -0.145106
    H   H27  0.469327  0.096070  0.288382  0.077912
    H   H28  0.382970  0.172774  0.281473  0.053862
    H   H29  0.358072  0.058190  0.256061  0.106967
    H   H30  0.264028  0.104044  0.455066  0.079548
    H   H31  0.237543  0.062169  0.354273  0.111497
    H   H32  0.261895  0.176859  0.378953  0.044733
    N   N9   0.096236  0.581758  0.308400  -0.164803
    C   C47  0.084718  0.518917  0.239873  -0.152235
    C   C48  0.079733  0.668034  0.290792  -0.210648
    H   H33  0.101058  0.454396  0.255859  0.059992
    H   H34  0.130244  0.536766  0.191971  0.084861
    H   H35  0.014554  0.515879  0.218185  0.040975
    H   H36  0.082764  0.712562  0.346266  0.075933
    H   H37  0.013158  0.669814  0.262531  0.052653
    H   H38  0.131809  0.689679  0.249658  0.102297
    N   N10  0.903214  0.417173  0.691636  -0.160145
    C   C49  0.919355  0.330737  0.709152  -0.211838
    C   C50  0.915013  0.480254  0.759976  -0.149388
    H   H39  0.914205  0.285319  0.653958  0.076915
    H   H40  0.868165  0.310539  0.751378  0.102433
    H   H41  0.986477  0.328225  0.736327  0.052883
    H   H42  0.899324  0.545250  0.744066  0.060334
    H   H43  0.984984  0.482417  0.782107  0.040494
    H   H44  0.868956  0.462833  0.807302  0.082763
