# generated using pymatgen
data_Cu3H18(C16O7)2
_symmetry_space_group_name_H-M   'P 1'
_cell_length_a   29.79888600
_cell_length_b   30.92342900
_cell_length_c   21.47925700
_cell_angle_alpha   90.00000000
_cell_angle_beta   133.91158300
_cell_angle_gamma   90.00000000
_symmetry_Int_Tables_number   1
_chemical_formula_structural   Cu3H18(C16O7)2
_chemical_formula_sum   'Cu12 H72 C128 O56'
_cell_volume   14258.93911112
_cell_formula_units_Z   4
loop_
 _symmetry_equiv_pos_site_id
 _symmetry_equiv_pos_as_xyz
  1  'x, y, z'
loop_
 _atom_site_type_symbol
 _atom_site_label
 _atom_site_symmetry_multiplicity
 _atom_site_fract_x
 _atom_site_fract_y
 _atom_site_fract_z
 _atom_site_occupancy
  Cu  Cu1  1  0.72771100  0.72466400  0.95784200  1
  Cu  Cu2  1  0.27228900  0.72466400  0.04215800  1
  Cu  Cu3  1  0.22771100  0.22466400  0.95784200  1
  Cu  Cu4  1  0.77228900  0.22466400  0.04215800  1
  Cu  Cu5  1  0.79031000  0.78397900  0.07718500  1
  Cu  Cu6  1  0.20969000  0.78397900  0.92281500  1
  Cu  Cu7  1  0.29031000  0.28397900  0.07718500  1
  Cu  Cu8  1  0.70969000  0.28397900  0.92281500  1
  Cu  Cu9  1  0.45902900  0.99520100  0.50714300  1
  Cu  Cu10  1  0.54097100  0.99520100  0.49285700  1
  Cu  Cu11  1  0.95902900  0.49520100  0.50714300  1
  Cu  Cu12  1  0.04097100  0.49520100  0.49285700  1
  H  H1  1  0.38354900  0.68967900  0.98653700  1
  H  H2  1  0.61645100  0.68967900  0.01346300  1
  H  H3  1  0.88354900  0.18967900  0.98653700  1
  H  H4  1  0.11645100  0.18967900  0.01346300  1
  H  H5  1  0.45667700  0.65158500  0.99512000  1
  H  H6  1  0.54332300  0.65158500  0.00488000  1
  H  H7  1  0.95667700  0.15158500  0.99512000  1
  H  H8  1  0.04332300  0.15158500  0.00488000  1
  H  H9  1  0.54368100  0.86711500  0.00735800  1
  H  H10  1  0.45631900  0.86711500  0.99264200  1
  H  H11  1  0.04368100  0.36711500  0.00735800  1
  H  H12  1  0.95631900  0.36711500  0.99264200  1
  H  H13  1  0.52465000  0.88201700  0.66675500  1
  H  H14  1  0.47535000  0.88201700  0.33324500  1
  H  H15  1  0.02465000  0.38201700  0.66675500  1
  H  H16  1  0.97535000  0.38201700  0.33324500  1
  H  H17  1  0.64568300  0.89558000  0.71035900  1
  H  H18  1  0.35431700  0.89558000  0.28964100  1
  H  H19  1  0.14568300  0.39558000  0.71035900  1
  H  H20  1  0.85431700  0.39558000  0.28964100  1
  H  H21  1  0.58203900  0.81550200  0.75846500  1
  H  H22  1  0.41796100  0.81550200  0.24153500  1
  H  H23  1  0.08203900  0.31550200  0.75846500  1
  H  H24  1  0.91796100  0.31550200  0.24153500  1
  H  H25  1  0.69393900  0.87570600  0.84953200  1
  H  H26  1  0.30606100  0.87570600  0.15046800  1
  H  H27  1  0.19393900  0.37570600  0.84953200  1
  H  H28  1  0.80606100  0.37570600  0.15046800  1
  H  H29  1  0.17760700  0.75056600  0.12833900  1
  H  H30  1  0.82239300  0.75056600  0.87166100  1
  H  H31  1  0.67760700  0.25056600  0.12833900  1
  H  H32  1  0.32239300  0.25056600  0.87166100  1
  H  H33  1  0.03369800  0.75425100  0.85280300  1
  H  H34  1  0.96630200  0.75425100  0.14719700  1
  H  H35  1  0.53369800  0.25425100  0.85280300  1
  H  H36  1  0.46630200  0.25425100  0.14719700  1
  H  H37  1  0.92688500  0.75313400  0.78165300  1
  H  H38  1  0.07311500  0.75313400  0.21834700  1
  H  H39  1  0.42688500  0.25313400  0.78165300  1
  H  H40  1  0.57311500  0.25313400  0.21834700  1
  H  H41  1  0.84846000  0.75145800  0.78871100  1
  H  H42  1  0.15154000  0.75145800  0.21128900  1
  H  H43  1  0.34846000  0.25145800  0.78871100  1
  H  H44  1  0.65154000  0.25145800  0.21128900  1
  H  H45  1  0.93449800  0.57245500  0.26033000  1
  H  H46  1  0.06550200  0.57245500  0.73967000  1
  H  H47  1  0.43449800  0.07245500  0.26033000  1
  H  H48  1  0.56550200  0.07245500  0.73967000  1
  H  H49  1  0.86565500  0.60480000  0.30995000  1
  H  H50  1  0.13434500  0.60480000  0.69004900  1
  H  H51  1  0.36565500  0.10480000  0.30995000  1
  H  H52  1  0.63434500  0.10480000  0.69004900  1
  H  H53  1  0.85694600  0.62032200  0.13134100  1
  H  H54  1  0.14305400  0.62032200  0.86865900  1
  H  H55  1  0.35694600  0.12032200  0.13134100  1
  H  H56  1  0.64305400  0.12032200  0.86865900  1
  H  H57  1  0.86645800  0.67122400  0.26235300  1
  H  H58  1  0.13354200  0.67122400  0.73764700  1
  H  H59  1  0.36645800  0.17122400  0.26235300  1
  H  H60  1  0.63354200  0.17122400  0.73764700  1
  H  H61  1  0.34052000  0.90910800  0.98505400  1
  H  H62  1  0.41724900  0.92313300  0.08747000  1
  H  H63  1  0.36095600  0.89850400  0.08498600  1
  H  H64  1  0.65948000  0.90910800  0.01494600  1
  H  H65  1  0.58275100  0.92313300  0.91253000  1
  H  H66  1  0.63904400  0.89850400  0.91501400  1
  H  H67  1  0.84052000  0.40910800  0.98505400  1
  H  H68  1  0.91724900  0.42313300  0.08747000  1
  H  H69  1  0.86095600  0.39850400  0.08498600  1
  H  H70  1  0.15948000  0.40910800  0.01494600  1
  H  H71  1  0.08275100  0.42313300  0.91253000  1
  H  H72  1  0.13904400  0.39850400  0.91501400  1
  C  C1  1  0.70170300  0.81235900  0.90242600  1
  C  C2  1  0.29829700  0.81235900  0.09757400  1
  C  C3  1  0.20170300  0.31235900  0.90242600  1
  C  C4  1  0.79829700  0.31235900  0.09757400  1
  C  C5  1  0.67486400  0.75686500  0.01917200  1
  C  C6  1  0.32513600  0.75686500  0.98082800  1
  C  C7  1  0.17486400  0.25686500  0.01917200  1
  C  C8  1  0.82513600  0.25686500  0.98082800  1
  C  C9  1  0.81669000  0.69639200  0.13294000  1
  C  C10  1  0.18331000  0.69639200  0.86706000  1
  C  C11  1  0.31669000  0.19639200  0.13294000  1
  C  C12  1  0.68331000  0.19639200  0.86706000  1
  C  C13  1  0.84190200  0.75259100  0.01355900  1
  C  C14  1  0.15809900  0.75259100  0.98644100  1
  C  C15  1  0.34190200  0.25259100  0.01355900  1
  C  C16  1  0.65809900  0.25259100  0.98644100  1
  C  C17  1  0.40031500  0.79759600  0.98655100  1
  C  C18  1  0.59968600  0.79759600  0.01344900  1
  C  C19  1  0.90031500  0.29759600  0.98655100  1
  C  C20  1  0.09968600  0.29759600  0.01344900  1
  C  C21  1  0.37598400  0.75858800  0.98397800  1
  C  C22  1  0.62401600  0.75858800  0.01602200  1
  C  C23  1  0.87598400  0.25858800  0.98397800  1
  C  C24  1  0.12401600  0.25858800  0.01602200  1
  C  C25  1  0.40197700  0.72029600  0.98852300  1
  C  C26  1  0.59802300  0.72029600  0.01147700  1
  C  C27  1  0.90197700  0.22029600  0.98852300  1
  C  C28  1  0.09802300  0.22029600  0.01147700  1
  C  C29  1  0.45092700  0.72058900  0.99415200  1
  C  C30  1  0.54907300  0.72058900  0.00584800  1
  C  C31  1  0.95092700  0.22058900  0.99415200  1
  C  C32  1  0.04907300  0.22058900  0.00584800  1
  C  C33  1  0.47523000  0.75924500  0.99677200  1
  C  C34  1  0.52477000  0.75924500  0.00322800  1
  C  C35  1  0.97523000  0.25924500  0.99677200  1
  C  C36  1  0.02477000  0.25924500  0.00322800  1
  C  C37  1  0.45000800  0.79777300  0.99295800  1
  C  C38  1  0.54999200  0.79777300  0.00704200  1
  C  C39  1  0.95000800  0.29777300  0.99295800  1
  C  C40  1  0.04999200  0.29777300  0.00704200  1
  C  C41  1  0.47558300  0.68199800  0.99724200  1
  C  C42  1  0.52441800  0.68199800  0.00275800  1
  C  C43  1  0.97558300  0.18199800  0.99724200  1
  C  C44  1  0.02441800  0.18199800  0.00275800  1
  C  C45  1  0.52498900  0.83632800  0.00397400  1
  C  C46  1  0.47501100  0.83632800  0.99602600  1
  C  C47  1  0.02498900  0.33632800  0.00397400  1
  C  C48  1  0.97501100  0.33632800  0.99602600  1
  C  C49  1  0.57341800  0.87800100  0.70203000  1
  C  C50  1  0.42658200  0.87800100  0.29797000  1
  C  C51  1  0.07341800  0.37800100  0.70203000  1
  C  C52  1  0.92658200  0.37800100  0.29797000  1
  C  C53  1  0.59897400  0.90221800  0.68195400  1
  C  C54  1  0.40102600  0.90221800  0.31804600  1
  C  C55  1  0.09897400  0.40221800  0.68195400  1
  C  C56  1  0.90102600  0.40221800  0.31804600  1
  C  C57  1  0.60807600  0.84294200  0.76600200  1
  C  C58  1  0.39192400  0.84294200  0.23399800  1
  C  C59  1  0.10807600  0.34294200  0.76600200  1
  C  C60  1  0.89192400  0.34294200  0.23399800  1
  C  C61  1  0.66884200  0.84633300  0.83661800  1
  C  C62  1  0.33115800  0.84633300  0.16338200  1
  C  C63  1  0.16884200  0.34633300  0.83661800  1
  C  C64  1  0.83115800  0.34633300  0.16338200  1
  C  C65  1  0.12879700  0.75101200  0.06910800  1
  C  C66  1  0.87120300  0.75101200  0.93089200  1
  C  C67  1  0.62879700  0.25101200  0.06910800  1
  C  C68  1  0.37120300  0.25101200  0.93089200  1
  C  C69  1  0.11083400  0.75235500  0.99008100  1
  C  C70  1  0.88916600  0.75235500  0.00991900  1
  C  C71  1  0.61083400  0.25235500  0.99008100  1
  C  C72  1  0.38916600  0.25235500  0.00991900  1
  C  C73  1  0.04828100  0.75364700  0.91497800  1
  C  C74  1  0.95172000  0.75364700  0.08502200  1
  C  C75  1  0.54828100  0.25364700  0.91497800  1
  C  C76  1  0.45172000  0.25364700  0.08502200  1
  C  C77  1  0.00400100  0.75288800  0.91896500  1
  C  C78  1  0.99599900  0.75288800  0.08103500  1
  C  C79  1  0.50400100  0.25288800  0.91896500  1
  C  C80  1  0.49599900  0.25288800  0.08103500  1
  C  C81  1  0.02213000  0.75225400  0.99800100  1
  C  C82  1  0.97787000  0.75225400  0.00199900  1
  C  C83  1  0.52213000  0.25225400  0.99800100  1
  C  C84  1  0.47787000  0.25225400  0.00199900  1
  C  C85  1  0.08453400  0.75166000  0.07305700  1
  C  C86  1  0.91546700  0.75166000  0.92694300  1
  C  C87  1  0.58453400  0.25166000  0.07305700  1
  C  C88  1  0.41546700  0.25166000  0.92694300  1
  C  C89  1  0.94151200  0.75275400  0.84387500  1
  C  C90  1  0.05848900  0.75275400  0.15612500  1
  C  C91  1  0.44151200  0.25275400  0.84387500  1
  C  C92  1  0.55848900  0.25275400  0.15612500  1
  C  C93  1  0.89731900  0.75180100  0.84786100  1
  C  C94  1  0.10268100  0.75180100  0.15213900  1
  C  C95  1  0.39731900  0.25180100  0.84786100  1
  C  C96  1  0.60268100  0.25180100  0.15213900  1
  C  C97  1  0.90478800  0.59338900  0.25921400  1
  C  C98  1  0.09521200  0.59338900  0.74078600  1
  C  C99  1  0.40478800  0.09338900  0.25921400  1
  C  C100  1  0.59521200  0.09338900  0.74078600  1
  C  C101  1  0.89958700  0.58697200  0.31550200  1
  C  C102  1  0.10041300  0.58697200  0.68449800  1
  C  C103  1  0.39958700  0.08697200  0.31550200  1
  C  C104  1  0.60041300  0.08697200  0.68449800  1
  C  C105  1  0.86727500  0.62595200  0.18998600  1
  C  C106  1  0.13272500  0.62595200  0.81001400  1
  C  C107  1  0.36727500  0.12595200  0.18998600  1
  C  C108  1  0.63272500  0.12595200  0.81001400  1
  C  C109  1  0.85108300  0.66338100  0.20087700  1
  C  C110  1  0.14891700  0.66338100  0.79912300  1
  C  C111  1  0.35108300  0.16338100  0.20087700  1
  C  C112  1  0.64891700  0.16338100  0.79912300  1
  C  C113  1  0.06348200  0.55367300  0.61742700  1
  C  C114  1  0.93651800  0.55367300  0.38257300  1
  C  C115  1  0.56348200  0.05367300  0.61742700  1
  C  C116  1  0.43651800  0.05367300  0.38257300  1
  C  C117  1  0.56292200  0.93615800  0.61631800  1
  C  C118  1  0.43707800  0.93615800  0.38368200  1
  C  C119  1  0.06292200  0.43615800  0.61631800  1
  C  C120  1  0.93707800  0.43615800  0.38368200  1
  C  C121  1  0.40193500  0.85581900  0.05789900  1
  C  C122  1  0.37867700  0.89939100  0.05363000  1
  C  C123  1  0.59806500  0.85581900  0.94210100  1
  C  C124  1  0.62132300  0.89939100  0.94637000  1
  C  C125  1  0.90193500  0.35581900  0.05789900  1
  C  C126  1  0.87867700  0.39939100  0.05363000  1
  C  C127  1  0.09806500  0.35581900  0.94210100  1
  C  C128  1  0.12132300  0.39939100  0.94637000  1
  O  O1  1  0.67670900  0.77332300  0.88108800  1
  O  O2  1  0.32329100  0.77332300  0.11891200  1
  O  O3  1  0.17670900  0.27332300  0.88108800  1
  O  O4  1  0.82329100  0.27332300  0.11891200  1
  O  O5  1  0.75513700  0.82261000  0.98056300  1
  O  O6  1  0.24486300  0.82261000  0.01943700  1
  O  O7  1  0.25513700  0.32261000  0.98056300  1
  O  O8  1  0.74486300  0.32261000  0.01943700  1
  O  O9  1  0.67887700  0.72205000  0.98748900  1
  O  O10  1  0.32112300  0.72205000  0.01251100  1
  O  O11  1  0.17887700  0.22205000  0.98748900  1
  O  O12  1  0.82112300  0.22205000  0.01251100  1
  O  O13  1  0.71390500  0.78986800  0.05237500  1
  O  O14  1  0.28609500  0.78986800  0.94762500  1
  O  O15  1  0.21390500  0.28986800  0.05237500  1
  O  O16  1  0.78609500  0.28986800  0.94762500  1
  O  O17  1  0.78859900  0.68535100  0.05342300  1
  O  O18  1  0.21140100  0.68535100  0.94657700  1
  O  O19  1  0.28859900  0.18535100  0.05342300  1
  O  O20  1  0.71140100  0.18535100  0.94657700  1
  O  O21  1  0.81568200  0.73600500  0.15504900  1
  O  O22  1  0.18431800  0.73600500  0.84495100  1
  O  O23  1  0.31568200  0.23600500  0.15504900  1
  O  O24  1  0.68431800  0.23600500  0.84495100  1
  O  O25  1  0.78625600  0.73676400  0.94678200  1
  O  O26  1  0.21374400  0.73676400  0.05321800  1
  O  O27  1  0.28625600  0.23676400  0.94678200  1
  O  O28  1  0.71374400  0.23676400  0.05321800  1
  O  O29  1  0.85675300  0.76879100  0.08291200  1
  O  O30  1  0.14324700  0.76879100  0.91708800  1
  O  O31  1  0.35675300  0.26879100  0.08291200  1
  O  O32  1  0.64324700  0.26879100  0.91708800  1
  O  O33  1  0.01477900  0.53742700  0.59909100  1
  O  O34  1  0.98522100  0.53742700  0.40090900  1
  O  O35  1  0.51477900  0.03742700  0.59909100  1
  O  O36  1  0.48522100  0.03742700  0.40090900  1
  O  O37  1  0.08072300  0.54175100  0.57800400  1
  O  O38  1  0.91927700  0.54175100  0.42199600  1
  O  O39  1  0.58072300  0.04175100  0.57800400  1
  O  O40  1  0.41927700  0.04175100  0.42199600  1
  O  O41  1  0.51265900  0.95098000  0.59533800  1
  O  O42  1  0.48734100  0.95098000  0.40466200  1
  O  O43  1  0.01265900  0.45098000  0.59533800  1
  O  O44  1  0.98734100  0.45098000  0.40466200  1
  O  O45  1  0.58293600  0.95042800  0.58166500  1
  O  O46  1  0.41706500  0.95042800  0.41833500  1
  O  O47  1  0.08293600  0.45042800  0.58166500  1
  O  O48  1  0.91706500  0.45042800  0.41833500  1
  O  O49  1  0.37663000  0.83527200  0.98429500  1
  O  O50  1  0.44450800  0.83916500  0.12778100  1
  O  O51  1  0.62337000  0.83527200  0.01570500  1
  O  O52  1  0.55549200  0.83916500  0.87221900  1
  O  O53  1  0.87663000  0.33527200  0.98429500  1
  O  O54  1  0.94450800  0.33916500  0.12778100  1
  O  O55  1  0.12337000  0.33527200  0.01570500  1
  O  O56  1  0.05549200  0.33916500  0.87221900  1
