# Generated by REPEAT Assigner based on pymatgen
data_DB0-m3_o19_o46_f0_fsc.sym.3
_audit_creation_date              2022-05-24
_audit_creation_method            REPEAT_Assigner
_cell_length_a                    8.534253
_cell_length_b                    8.827774
_cell_length_c                    10.176808
_cell_angle_alpha                 90.354847
_cell_angle_beta                  92.898144
_cell_angle_gamma                 82.966311
_cell_volume                      759.961771
_symmetry_space_group_name_H-M    P1
_symmetry_Int_Tables_number       1
loop_
    _symmetry_equiv_pos_site_id
    _symmetry_equiv_pos_as_xyz
    1  x,y,z
loop_
    _atom_site_type_symbol
    _atom_site_label
    _atom_site_fract_x
    _atom_site_fract_y
    _atom_site_fract_z
    _atom_type_partial_charge
    C   C1   0.099235  0.804492  0.977024  -0.194304
    C   C2   0.900764  0.195509  0.022976  -0.194332
    C   C3   0.969391  0.727381  0.965520  -0.116317
    C   C4   0.030608  0.272619  0.034479  -0.116271
    H   H1   0.985287  0.606627  0.947460  0.141577
    H   H2   0.014712  0.393374  0.052540  0.141564
    C   C5   0.821225  0.799199  0.987138  -0.192885
    C   C6   0.178774  0.200802  0.012862  -0.192907
    C   C7   0.796998  0.953888  0.007419  0.273979
    C   C8   0.203001  0.046113  0.992581  0.273971
    C   C9   0.923556  0.037797  0.006221  -0.004019
    C   C10  0.076443  0.962204  0.993778  -0.004027
    O   O1   0.307898  0.645764  0.875808  -0.737930
    O   O2   0.692102  0.354237  0.124192  -0.737920
    O   O3   0.319683  0.672873  0.101505  -0.700298
    O   O4   0.680316  0.327128  0.898495  -0.700287
    C   C11  0.254666  0.710209  0.984264  0.907386
    C   C12  0.745333  0.289791  0.015736  0.907372
    O   O5   0.352813  0.356674  0.116328  -0.687840
    O   O6   0.647186  0.643327  0.883672  -0.687838
    O   O7   0.352608  0.328830  0.890617  -0.692464
    O   O8   0.647391  0.671171  0.109383  -0.692462
    C   C13  0.306693  0.294066  0.006669  0.842484
    C   C14  0.693306  0.705935  0.993331  0.842475
    Zn  Zn1  0.504067  0.512872  0.146182  1.089053
    Zn  Zn2  0.495932  0.487129  0.853818  1.089053
    N   N1   0.507000  0.523674  0.318618  -0.069590
    N   N2   0.492999  0.476327  0.681382  -0.069589
    C   C15  0.502930  0.509937  0.431375  0.213014
    C   C16  0.497069  0.490064  0.568625  0.213016
    O   O9   0.648560  0.021868  0.030614  -0.395654
    H   H3   0.642345  0.017471  0.127368  0.323814
    O   O10  0.351439  0.978133  0.969386  -0.395634
    H   H4   0.357654  0.982529  0.872632  0.323809
