# Generated by REPEAT Assigner based on pymatgen
data_DB0-m2_o2_o19_f0_nbo.sym.3
_audit_creation_date              2022-05-24
_audit_creation_method            REPEAT_Assigner
_cell_length_a                    30.040994
_cell_length_b                    30.040994
_cell_length_c                    23.506080
_cell_angle_alpha                 90.000000
_cell_angle_beta                  90.000000
_cell_angle_gamma                 90.000000
_cell_volume                      21213.328562
_symmetry_space_group_name_H-M    P1
_symmetry_Int_Tables_number       1
loop_
    _symmetry_equiv_pos_site_id
    _symmetry_equiv_pos_as_xyz
    1  x,y,z
loop_
    _atom_site_type_symbol
    _atom_site_label
    _atom_site_fract_x
    _atom_site_fract_y
    _atom_site_fract_z
    _atom_type_partial_charge
    O   O1    0.563512  0.036732  0.515564  -0.586073
    O   O2    0.963268  0.563512  0.515564  -0.586077
    O   O3    0.436488  0.963268  0.515564  -0.586068
    O   O4    0.036732  0.436488  0.515564  -0.586059
    O   O5    0.436488  0.036732  0.484436  -0.586058
    O   O6    0.036732  0.563512  0.484436  -0.586069
    O   O7    0.563512  0.963268  0.484436  -0.586077
    O   O8    0.963268  0.436488  0.484436  -0.586062
    O   O9    0.063512  0.536732  0.015564  -0.586048
    O   O10   0.463268  0.063512  0.015564  -0.586056
    O   O11   0.936488  0.463268  0.015564  -0.586067
    O   O12   0.536732  0.936488  0.015564  -0.586042
    O   O13   0.936488  0.536732  0.984436  -0.586053
    O   O14   0.536732  0.063512  0.984436  -0.586041
    O   O15   0.063512  0.463268  0.984436  -0.586061
    O   O16   0.463268  0.936488  0.984436  -0.586049
    C   C1    0.584424  0.000000  0.500000  0.641549
    C   C2    0.000000  0.584424  0.500000  0.641541
    C   C3    0.415576  0.000000  0.500000  0.641522
    C   C4    0.000000  0.415576  0.500000  0.641517
    C   C5    0.084424  0.500000  0.000000  0.641536
    C   C6    0.500000  0.084424  0.000000  0.641482
    C   C7    0.915576  0.500000  0.000000  0.641515
    C   C8    0.500000  0.915576  0.000000  0.641450
    O   O17   0.487805  0.036768  0.581172  -0.596469
    O   O18   0.963232  0.487805  0.581172  -0.596470
    O   O19   0.512195  0.963232  0.581172  -0.596504
    O   O20   0.036768  0.512195  0.581172  -0.596492
    O   O21   0.512195  0.036768  0.418828  -0.596505
    O   O22   0.036768  0.487805  0.418828  -0.596507
    O   O23   0.487805  0.963232  0.418828  -0.596519
    O   O24   0.963232  0.512195  0.418828  -0.596508
    O   O25   0.987805  0.536768  0.081172  -0.596510
    O   O26   0.463232  0.987805  0.081172  -0.596476
    O   O27   0.012195  0.463232  0.081172  -0.596521
    O   O28   0.536768  0.012195  0.081172  -0.596491
    O   O29   0.012195  0.536768  0.918828  -0.596511
    O   O30   0.536768  0.987805  0.918828  -0.596496
    O   O31   0.987805  0.463232  0.918828  -0.596527
    O   O32   0.463232  0.012195  0.918828  -0.596500
    C   C9    0.500000  0.000000  0.607702  0.852927
    C   C10   0.000000  0.500000  0.607702  0.852906
    C   C11   0.500000  0.000000  0.392297  0.852977
    C   C12   0.000000  0.500000  0.392297  0.852956
    C   C13   0.000000  0.500000  0.107702  0.852977
    C   C14   0.500000  0.000000  0.107702  0.852912
    C   C15   0.000000  0.500000  0.892297  0.853033
    C   C16   0.500000  0.000000  0.892297  0.852983
    Cu  Cu1   0.500000  0.043509  0.500000  0.970128
    Cu  Cu2   0.956491  0.500000  0.500000  0.970155
    Cu  Cu3   0.500000  0.956491  0.500000  0.970172
    Cu  Cu4   0.043509  0.500000  0.500000  0.970147
    Cu  Cu5   0.000000  0.543509  0.000000  0.970165
    Cu  Cu6   0.456491  0.000000  0.000000  0.970131
    Cu  Cu7   0.000000  0.456491  0.000000  0.970126
    Cu  Cu8   0.543509  0.000000  0.000000  0.970161
    C   C17   0.500000  0.000000  0.668719  -0.257394
    C   C18   0.000000  0.500000  0.668719  -0.257384
    C   C19   0.500000  0.000000  0.331281  -0.257448
    C   C20   0.000000  0.500000  0.331281  -0.257432
    C   C21   0.000000  0.500000  0.168719  -0.257408
    C   C22   0.500000  0.000000  0.168719  -0.257391
    C   C23   0.000000  0.500000  0.831281  -0.257478
    C   C24   0.500000  0.000000  0.831281  -0.257472
    C   C25   0.500000  0.000000  0.719972  0.081083
    C   C26   0.000000  0.500000  0.719972  0.081076
    C   C27   0.500000  0.000000  0.280027  0.081145
    C   C28   0.000000  0.500000  0.280027  0.081125
    C   C29   0.000000  0.500000  0.219972  0.081102
    C   C30   0.500000  0.000000  0.219972  0.081090
    C   C31   0.000000  0.500000  0.780027  0.081159
    C   C32   0.500000  0.000000  0.780027  0.081163
    C   C33   0.702301  0.960834  0.491832  -0.208667
    C   C34   0.039166  0.702301  0.491832  -0.208659
    C   C35   0.297699  0.039166  0.491832  -0.208660
    C   C36   0.960834  0.297699  0.491832  -0.208671
    C   C37   0.297699  0.960834  0.508168  -0.208673
    C   C38   0.960834  0.702301  0.508168  -0.208669
    C   C39   0.702301  0.039166  0.508168  -0.208658
    C   C40   0.039166  0.297699  0.508168  -0.208664
    C   C41   0.202301  0.460834  0.991832  -0.208680
    C   C42   0.539166  0.202301  0.991832  -0.208665
    C   C43   0.797699  0.539166  0.991832  -0.208673
    C   C44   0.460834  0.797699  0.991832  -0.208672
    C   C45   0.797699  0.460834  0.008168  -0.208677
    C   C46   0.460834  0.202301  0.008168  -0.208670
    C   C47   0.202301  0.539166  0.008168  -0.208667
    C   C48   0.539166  0.797699  0.008168  -0.208663
    H   H1    0.719547  0.929532  0.486757  0.128427
    H   H2    0.070468  0.719547  0.486757  0.128425
    H   H3    0.280453  0.070468  0.486757  0.128426
    H   H4    0.929532  0.280453  0.486757  0.128429
    H   H5    0.280453  0.929532  0.513242  0.128429
    H   H6    0.929532  0.719547  0.513242  0.128426
    H   H7    0.719547  0.070468  0.513242  0.128424
    H   H8    0.070468  0.280453  0.513242  0.128426
    H   H9    0.219547  0.429532  0.986757  0.128429
    H   H10   0.570468  0.219547  0.986757  0.128426
    H   H11   0.780453  0.570468  0.986757  0.128427
    H   H12   0.429532  0.780453  0.986757  0.128428
    H   H13   0.780453  0.429532  0.013242  0.128431
    H   H14   0.429532  0.219547  0.013242  0.128429
    H   H15   0.219547  0.570468  0.013242  0.128427
    H   H16   0.570468  0.780453  0.013242  0.128428
    C   C49   0.656423  0.960862  0.491568  -0.094895
    C   C50   0.039138  0.656423  0.491568  -0.094899
    C   C51   0.343577  0.039138  0.491568  -0.094896
    C   C52   0.960862  0.343577  0.491568  -0.094889
    C   C53   0.343577  0.960862  0.508432  -0.094887
    C   C54   0.960862  0.656423  0.508432  -0.094896
    C   C55   0.656423  0.039138  0.508432  -0.094900
    C   C56   0.039138  0.343577  0.508432  -0.094892
    C   C57   0.156423  0.460862  0.991568  -0.094872
    C   C58   0.539138  0.156423  0.991568  -0.094897
    C   C59   0.843577  0.539138  0.991568  -0.094883
    C   C60   0.460862  0.843577  0.991568  -0.094894
    C   C61   0.843577  0.460862  0.008432  -0.094883
    C   C62   0.460862  0.156423  0.008432  -0.094898
    C   C63   0.156423  0.539138  0.008432  -0.094885
    C   C64   0.539138  0.843577  0.008432  -0.094902
    H   H17   0.639112  0.929707  0.485439  0.125675
    H   H18   0.070293  0.639112  0.485440  0.125677
    H   H19   0.360888  0.070293  0.485439  0.125672
    H   H20   0.929707  0.360888  0.485440  0.125671
    H   H21   0.360888  0.929707  0.514560  0.125672
    H   H22   0.929707  0.639112  0.514560  0.125678
    H   H23   0.639112  0.070293  0.514560  0.125678
    H   H24   0.070293  0.360888  0.514560  0.125673
    H   H25   0.139112  0.429707  0.985440  0.125667
    H   H26   0.570293  0.139112  0.985439  0.125675
    H   H27   0.860888  0.570293  0.985440  0.125669
    H   H28   0.429707  0.860888  0.985439  0.125671
    H   H29   0.860888  0.429707  0.014560  0.125669
    H   H30   0.429707  0.139112  0.014560  0.125676
    H   H31   0.139112  0.570293  0.014560  0.125670
    H   H32   0.570293  0.860888  0.014560  0.125675
    C   C65   0.633208  0.000000  0.500000  -0.011715
    C   C66   0.000000  0.633208  0.500000  -0.011711
    C   C67   0.366792  0.000000  0.500000  -0.011712
    C   C68   0.000000  0.366792  0.500000  -0.011711
    C   C69   0.133208  0.500000  0.000000  -0.011733
    C   C70   0.500000  0.133208  0.000000  -0.011694
    C   C71   0.866792  0.500000  0.000000  -0.011713
    C   C72   0.500000  0.866792  0.000000  -0.011676
    C   C73   0.725646  0.000000  0.500000  0.212196
    C   C74   0.000000  0.725646  0.500000  0.212196
    C   C75   0.274354  0.000000  0.500000  0.212194
    C   C76   0.000000  0.274354  0.500000  0.212193
    C   C77   0.225646  0.500000  0.000000  0.212201
    C   C78   0.500000  0.225646  0.000000  0.212202
    C   C79   0.774354  0.500000  0.000000  0.212201
    C   C80   0.500000  0.774354  0.000000  0.212196
    C   C81   0.797868  0.027047  0.537122  -0.377805
    C   C82   0.972953  0.797868  0.537122  -0.377806
    C   C83   0.202132  0.972953  0.537122  -0.377799
    C   C84   0.027047  0.202132  0.537122  -0.377799
    C   C85   0.202132  0.027047  0.462878  -0.377796
    C   C86   0.027047  0.797868  0.462878  -0.377804
    C   C87   0.797868  0.972953  0.462878  -0.377804
    C   C88   0.972953  0.202132  0.462878  -0.377798
    C   C89   0.297868  0.527047  0.037122  -0.377810
    C   C90   0.472953  0.297868  0.037122  -0.377797
    C   C91   0.702132  0.472953  0.037122  -0.377796
    C   C92   0.527047  0.702132  0.037122  -0.377788
    C   C93   0.702132  0.527047  0.962878  -0.377776
    C   C94   0.527047  0.297868  0.962878  -0.377800
    C   C95   0.297868  0.472953  0.962878  -0.377788
    C   C96   0.472953  0.702132  0.962878  -0.377787
    H   H33   0.780114  0.047658  0.567148  0.156315
    H   H34   0.952342  0.780114  0.567148  0.156316
    H   H35   0.219886  0.952342  0.567148  0.156314
    H   H36   0.047658  0.219886  0.567148  0.156313
    H   H37   0.219886  0.047658  0.432851  0.156310
    H   H38   0.047658  0.780114  0.432851  0.156312
    H   H39   0.780114  0.952342  0.432851  0.156313
    H   H40   0.952342  0.219886  0.432851  0.156311
    H   H41   0.280114  0.547658  0.067148  0.156317
    H   H42   0.452342  0.280114  0.067148  0.156314
    H   H43   0.719886  0.452342  0.067148  0.156312
    H   H44   0.547658  0.719886  0.067148  0.156309
    H   H45   0.719886  0.547658  0.932851  0.156308
    H   H46   0.547658  0.280114  0.932851  0.156316
    H   H47   0.280114  0.452342  0.932851  0.156313
    H   H48   0.452342  0.719886  0.932851  0.156312
    C   C97   0.843828  0.027232  0.537228  0.387462
    C   C98   0.972768  0.843828  0.537228  0.387462
    C   C99   0.156172  0.972768  0.537228  0.387457
    C   C100  0.027232  0.156172  0.537228  0.387458
    C   C101  0.156172  0.027232  0.462772  0.387453
    C   C102  0.027232  0.843828  0.462772  0.387458
    C   C103  0.843828  0.972768  0.462772  0.387459
    C   C104  0.972768  0.156172  0.462772  0.387453
    C   C105  0.343828  0.527232  0.037228  0.387450
    C   C106  0.472768  0.343828  0.037228  0.387436
    C   C107  0.656172  0.472768  0.037228  0.387458
    C   C108  0.527232  0.656172  0.037228  0.387438
    C   C109  0.656172  0.527232  0.962772  0.387423
    C   C110  0.527232  0.343828  0.962772  0.387435
    C   C111  0.343828  0.472768  0.962772  0.387422
    C   C112  0.472768  0.656172  0.962772  0.387442
    C   C113  0.867001  0.000000  0.500000  -0.457296
    C   C114  0.000000  0.867001  0.500000  -0.457296
    C   C115  0.132999  0.000000  0.500000  -0.457303
    C   C116  0.000000  0.132999  0.500000  -0.457304
    C   C117  0.367001  0.500000  0.000000  -0.457206
    C   C118  0.500000  0.367001  0.000000  -0.457204
    C   C119  0.632999  0.500000  0.000000  -0.457260
    C   C120  0.500000  0.632999  0.000000  -0.457258
    C   C121  0.774622  0.000000  0.500000  0.119607
    C   C122  0.000000  0.774622  0.500000  0.119606
    C   C123  0.225378  0.000000  0.500000  0.119605
    C   C124  0.000000  0.225378  0.500000  0.119605
    C   C125  0.274622  0.500000  0.000000  0.119599
    C   C126  0.500000  0.274622  0.000000  0.119595
    C   C127  0.725378  0.500000  0.000000  0.119595
    C   C128  0.500000  0.725378  0.000000  0.119594
    O   O33   0.012312  0.936555  0.546914  -0.592943
    O   O34   0.063445  0.012312  0.546914  -0.592941
    O   O35   0.987688  0.063445  0.546914  -0.592945
    O   O36   0.936555  0.987688  0.546914  -0.592945
    O   O37   0.987688  0.936555  0.453085  -0.592942
    O   O38   0.936555  0.012312  0.453085  -0.592939
    O   O39   0.012312  0.063445  0.453085  -0.592939
    O   O40   0.063445  0.987688  0.453085  -0.592941
    O   O41   0.512312  0.436555  0.046914  -0.592883
    O   O42   0.563445  0.512312  0.046914  -0.592923
    O   O43   0.487688  0.563445  0.046914  -0.592914
    O   O44   0.436555  0.487688  0.046914  -0.592885
    O   O45   0.487688  0.436555  0.953085  -0.592869
    O   O46   0.436555  0.512312  0.953085  -0.592868
    O   O47   0.512312  0.563445  0.953085  -0.592908
    O   O48   0.563445  0.487688  0.953085  -0.592899
    C   C129  0.000000  0.915716  0.500000  0.864367
    C   C130  0.084284  0.000000  0.500000  0.864384
    C   C131  0.000000  0.084284  0.500000  0.864386
    C   C132  0.915716  0.000000  0.500000  0.864364
    C   C133  0.500000  0.415716  0.000000  0.864202
    C   C134  0.584284  0.500000  0.000000  0.864328
    C   C135  0.500000  0.584284  0.000000  0.864327
    C   C136  0.415716  0.500000  0.000000  0.864204
    Cu  Cu9   0.000000  0.000000  0.555568  0.907799
    Cu  Cu10  0.000000  0.000000  0.444431  0.907799
    Cu  Cu11  0.500000  0.500000  0.055568  0.907709
    Cu  Cu12  0.500000  0.500000  0.944431  0.907749
    C   C137  0.867929  0.058086  0.576383  -0.392377
    H   H49   0.890388  0.080048  0.551571  0.104735
    H   H50   0.843914  0.079323  0.599697  0.099013
    H   H51   0.887355  0.038830  0.608023  0.112931
    C   C138  0.941914  0.867929  0.576383  -0.392382
    H   H52   0.919952  0.890388  0.551571  0.104738
    H   H53   0.920677  0.843914  0.599697  0.099015
    H   H54   0.961170  0.887355  0.608023  0.112931
    C   C139  0.132071  0.941914  0.576383  -0.392383
    H   H55   0.109612  0.919952  0.551571  0.104738
    H   H56   0.156086  0.920677  0.599697  0.099015
    H   H57   0.112645  0.961170  0.608023  0.112931
    C   C140  0.058086  0.132071  0.576383  -0.392378
    H   H58   0.080048  0.109612  0.551571  0.104736
    H   H59   0.079323  0.156086  0.599697  0.099013
    H   H60   0.038830  0.112645  0.608023  0.112931
    C   C141  0.132071  0.058086  0.423617  -0.392357
    H   H61   0.109612  0.080048  0.448429  0.104726
    H   H62   0.156086  0.079323  0.400303  0.099008
    H   H63   0.112645  0.038830  0.391977  0.112926
    C   C142  0.058086  0.867929  0.423617  -0.392356
    H   H64   0.080048  0.890388  0.448429  0.104725
    H   H65   0.079323  0.843914  0.400303  0.099007
    H   H66   0.038830  0.887355  0.391977  0.112926
    C   C143  0.867929  0.941914  0.423617  -0.392362
    H   H67   0.890388  0.919952  0.448429  0.104727
    H   H68   0.843914  0.920677  0.400303  0.099010
    H   H69   0.887355  0.961170  0.391977  0.112925
    C   C144  0.941914  0.132071  0.423617  -0.392363
    H   H70   0.919952  0.109612  0.448429  0.104729
    H   H71   0.920677  0.156086  0.400303  0.099010
    H   H72   0.961170  0.112645  0.391977  0.112926
    C   C145  0.367929  0.558086  0.076383  -0.392364
    H   H73   0.390388  0.580048  0.051571  0.104734
    H   H74   0.343914  0.579323  0.099697  0.099008
    H   H75   0.387355  0.538830  0.108023  0.112928
    C   C146  0.441914  0.367929  0.076383  -0.392370
    H   H76   0.419952  0.390388  0.051571  0.104740
    H   H77   0.420677  0.343914  0.099697  0.099012
    H   H78   0.461170  0.387355  0.108023  0.112929
    C   C147  0.632071  0.441914  0.076383  -0.392399
    H   H79   0.609612  0.419952  0.051571  0.104742
    H   H80   0.656086  0.420677  0.099697  0.099018
    H   H81   0.612645  0.461170  0.108023  0.112936
    C   C148  0.558086  0.632071  0.076383  -0.392366
    H   H82   0.580048  0.609612  0.051571  0.104734
    H   H83   0.579323  0.656086  0.099697  0.099012
    H   H84   0.538830  0.612645  0.108023  0.112928
    C   C149  0.632071  0.558086  0.923617  -0.392342
    H   H85   0.609612  0.580048  0.948429  0.104724
    H   H86   0.656086  0.579323  0.900303  0.099004
    H   H87   0.612645  0.538830  0.891977  0.112924
    C   C150  0.558086  0.367929  0.923617  -0.392339
    H   H88   0.580048  0.390388  0.948429  0.104726
    H   H89   0.579323  0.343914  0.900303  0.099000
    H   H90   0.538830  0.387355  0.891977  0.112924
    C   C151  0.367929  0.441914  0.923617  -0.392344
    H   H91   0.390388  0.419952  0.948429  0.104729
    H   H92   0.343914  0.420677  0.900303  0.099004
    H   H93   0.387355  0.461170  0.891977  0.112924
    C   C152  0.441914  0.632071  0.923617  -0.392373
    H   H94   0.419952  0.609612  0.948429  0.104733
    H   H95   0.420677  0.656086  0.900303  0.099010
    H   H96   0.461170  0.612645  0.891977  0.112932
