# Generated by REPEAT Assigner based on pymatgen
data_DB0-m3_o9_o23_f0_pcu.sym.10
_audit_creation_date              2022-05-24
_audit_creation_method            REPEAT_Assigner
_cell_length_a                    15.849651
_cell_length_b                    15.975591
_cell_length_c                    9.162737
_cell_angle_alpha                 89.989274
_cell_angle_beta                  89.987463
_cell_angle_gamma                 90.000000
_cell_volume                      2320.074085
_symmetry_space_group_name_H-M    P1
_symmetry_Int_Tables_number       1
loop_
    _symmetry_equiv_pos_site_id
    _symmetry_equiv_pos_as_xyz
    1  x,y,z
loop_
    _atom_site_type_symbol
    _atom_site_label
    _atom_site_fract_x
    _atom_site_fract_y
    _atom_site_fract_z
    _atom_type_partial_charge
    O   O1   0.479299  0.377004  0.638831  -0.881612
    O   O2   0.507459  0.374168  0.390581  -0.601248
    C   C1   0.495124  0.336096  0.515779  0.832463
    O   O3   0.363741  0.504604  0.602495  -0.664857
    O   O4   0.385149  0.505511  0.353098  -0.595992
    C   C2   0.335634  0.506594  0.468669  0.759491
    Zn  Zn1  0.486301  0.502922  0.663466  1.139258
    Zn  Zn2  0.512620  0.497059  0.336806  1.150419
    O   O5   0.491458  0.625814  0.609691  -0.598048
    O   O6   0.519626  0.622977  0.361443  -0.842840
    O   O7   0.613774  0.494477  0.647173  -0.575770
    O   O8   0.635180  0.495376  0.397776  -0.692301
    C   C3   0.503794  0.663885  0.484492  0.800264
    C   C4   0.663289  0.493391  0.531598  0.762434
    C   C5   0.058789  0.452989  0.615807  -0.092733
    C   C6   0.035990  0.460110  0.350029  -0.185267
    C   C7   0.943359  0.447975  0.385562  -0.131196
    H   H1   0.939881  0.398018  0.677780  0.071815
    H   H2   0.074094  0.386159  0.596451  0.095562
    H   H3   0.042423  0.499541  0.251009  0.035883
    H   H4   0.065792  0.398400  0.329586  0.053649
    H   H5   0.930599  0.380599  0.404747  0.020140
    H   H6   0.904584  0.469685  0.292181  0.050274
    C   C8   0.753324  0.493272  0.547435  -0.106918
    C   C9   0.078105  0.502808  0.478145  0.622710
    C   C10  0.965927  0.460764  0.652193  -0.230695
    C   C11  0.920788  0.497629  0.521642  0.716247
    C   C12  0.948352  0.587767  0.501610  -0.216848
    C   C13  0.043662  0.591219  0.491347  -0.007132
    C   C14  0.829296  0.494661  0.542803  -0.391748
    C   C15  0.169624  0.505554  0.457278  -0.377000
    C   C16  0.245602  0.506810  0.452792  -0.100370
    H   H7   0.069542  0.622621  0.589426  -0.011513
    H   H8   0.061880  0.628144  0.393786  0.017969
    H   H9   0.926872  0.626063  0.595489  0.063836
    H   H10  0.957674  0.502310  0.748109  0.041675
    H   H11  0.920332  0.613220  0.399950  0.041362
    C   C17  0.547763  0.044707  0.634469  -0.164018
    C   C18  0.541390  0.049766  0.364795  -0.056210
    C   C19  0.548338  0.955229  0.366528  -0.203236
    H   H12  0.604191  0.922205  0.646497  0.023179
    H   H13  0.615132  0.062826  0.625880  0.027299
    H   H14  0.502981  0.069705  0.269779  -0.000143
    H   H15  0.605301  0.077537  0.355551  0.026216
    H   H16  0.615595  0.936875  0.376112  0.020520
    H   H17  0.522356  0.929539  0.263461  0.051380
    C   C20  0.500720  0.754128  0.487100  -0.174947
    C   C21  0.499578  0.078929  0.504649  0.628534
    C   C22  0.540437  0.950195  0.636129  -0.110423
    C   C23  0.499351  0.921052  0.495587  0.736613
    C   C24  0.409370  0.952964  0.489536  -0.157346
    C   C25  0.409478  0.047081  0.509239  -0.067543
    C   C26  0.499534  0.829526  0.490557  -0.423285
    C   C27  0.499389  0.170455  0.509698  -0.384105
    C   C28  0.498199  0.245853  0.513166  -0.209520
    H   H18  0.380605  0.063138  0.615897  -0.008023
    H   H19  0.372128  0.076512  0.420670  0.021321
    H   H20  0.371477  0.923628  0.577535  0.041697
    H   H21  0.521304  0.070518  0.737098  0.045979
    H   H22  0.501412  0.930422  0.730527  0.014664
    H   H23  0.381075  0.936978  0.382404  0.015381
    H   H24  0.766608  0.759376  0.309943  0.110097
    C   C29  0.650052  0.693778  0.336371  -0.402959
    H   H25  0.657546  0.694324  0.453625  0.090238
    C   C30  0.576775  0.664876  0.267438  1.250890
    H   H26  0.546894  0.721735  0.229686  -0.150725
    C   C31  0.596307  0.626197  0.134555  -0.679762
    C   C32  0.660526  0.659290  0.049489  0.059914
    H   H27  0.668229  0.640260  0.937066  0.058045
    C   C33  0.717431  0.714393  0.108603  -0.327317
    H   H28  0.768740  0.738824  0.043552  0.131438
    C   C34  0.715068  0.727605  0.256097  -0.063611
    C   C35  0.584407  0.495498  0.993816  0.023765
    H   H29  0.652458  0.491456  0.990287  0.092460
    N   N1   0.538297  0.436307  0.926726  -0.562724
    C   C36  0.453735  0.440056  0.931339  0.603638
    C   C37  0.414523  0.504486  0.006461  -0.026587
    H   H30  0.346472  0.508527  0.009991  0.133417
    N   N2   0.460633  0.563676  0.073552  -0.547580
    C   C38  0.545195  0.559928  0.068940  0.571180
    C   C39  0.338411  0.340688  0.950807  0.100739
    H   H31  0.330712  0.359719  0.063230  0.047934
    C   C40  0.281508  0.285579  0.891704  -0.339759
    H   H32  0.230204  0.261145  0.956763  0.125198
    C   C41  0.283867  0.272365  0.744210  -0.029618
    H   H33  0.232325  0.240591  0.690373  0.100151
    C   C42  0.348875  0.306197  0.663925  -0.443322
    H   H34  0.341374  0.305652  0.546673  0.097330
    C   C43  0.422154  0.335104  0.732846  1.327685
    H   H35  0.452038  0.278246  0.770595  -0.163046
    C   C44  0.402625  0.373784  0.865731  -0.735679
    Cl  Cl1  0.120760  0.489150  0.765032  -0.116779
