# Generated by REPEAT Assigner based on pymatgen
data_DB0-m3_o14_o26_f0_pcu.sym.29
_audit_creation_date              2022-05-24
_audit_creation_method            REPEAT_Assigner
_cell_length_a                    9.854119
_cell_length_b                    11.003397
_cell_length_c                    17.475926
_cell_angle_alpha                 90.006687
_cell_angle_beta                  86.219617
_cell_angle_gamma                 90.000209
_cell_volume                      1890.770305
_symmetry_space_group_name_H-M    P1
_symmetry_Int_Tables_number       1
loop_
    _symmetry_equiv_pos_site_id
    _symmetry_equiv_pos_as_xyz
    1  x,y,z
loop_
    _atom_site_type_symbol
    _atom_site_label
    _atom_site_fract_x
    _atom_site_fract_y
    _atom_site_fract_z
    _atom_type_partial_charge
    O   O1   0.378736  0.656632  0.497186  -0.527849
    O   O2   0.610163  0.660086  0.494165  -0.709009
    C   C1   0.492505  0.716715  0.493188  0.775474
    O   O3   0.367433  0.477678  0.614735  -0.659917
    O   O4   0.599471  0.483138  0.613747  -0.727192
    C   C2   0.479632  0.481454  0.650400  0.766604
    Zn  Zn1  0.341028  0.475986  0.500678  0.998747
    Zn  Zn2  0.650509  0.479311  0.499497  1.051787
    O   O5   0.379649  0.295386  0.502171  -0.599359
    O   O6   0.615329  0.297561  0.502970  -0.630892
    O   O7   0.389973  0.471347  0.386290  -0.647437
    O   O8   0.626362  0.471324  0.385231  -0.661618
    C   C3   0.497456  0.239319  0.505625  0.713852
    C   C4   0.511760  0.471485  0.350122  0.714969
    C   C5   0.470357  0.481692  0.734582  -0.124191
    C   C6   0.585775  0.493476  0.774596  0.036069
    C   C7   0.576309  0.493413  0.853660  -0.233769
    C   C8   0.451487  0.479934  0.894161  0.242693
    C   C9   0.335017  0.468092  0.853857  -0.207112
    C   C10  0.345517  0.469118  0.774553  -0.051092
    C   C11  0.439643  0.539190  0.146331  -0.098458
    C   C12  0.432742  0.544349  0.225535  -0.092563
    C   C13  0.614903  0.400836  0.226285  -0.120457
    C   C14  0.619580  0.394773  0.147325  -0.145362
    C   C15  0.530619  0.462177  0.106655  0.142504
    C   C16  0.440714  0.489991  0.978629  -0.259023
    C   C17  0.539987  0.452967  0.022093  -0.146913
    C   C18  0.520072  0.473304  0.265984  -0.061911
    H   H1   0.684544  0.504784  0.744769  0.078760
    H   H2   0.683592  0.345359  0.257079  0.120367
    H   H3   0.628481  0.407797  0.995338  0.124701
    H   H4   0.377307  0.601199  0.116327  0.081148
    H   H5   0.255021  0.456149  0.743877  0.095315
    H   H6   0.347272  0.525852  0.005327  0.174390
    H   H7   0.667971  0.508282  0.882967  0.121590
    H   H8   0.692901  0.335644  0.117426  0.112382
    H   H9   0.699416  0.865543  0.466077  0.074287
    C   C19  0.239505  0.874054  0.492946  -0.081517
    H   H10  0.225779  0.792109  0.461207  0.109260
    C   C20  0.124780  0.939334  0.515780  -0.216799
    C   C21  0.136822  0.042609  0.558717  -0.001702
    H   H11  0.048020  0.090279  0.582719  0.070460
    C   C22  0.262624  0.093677  0.563593  -0.313210
    H   H12  0.268905  0.176527  0.596196  0.155522
    C   C23  0.376219  0.040328  0.526292  0.305484
    C   C24  0.367846  0.919666  0.504492  0.026530
    C   C25  0.487428  0.852047  0.490971  -0.178925
    C   C26  0.608128  0.914876  0.481729  0.014986
    H   H13  0.707047  0.086736  0.472855  0.100798
    C   C27  0.612077  0.040177  0.486782  -0.073259
    C   C28  0.496389  0.104715  0.509959  -0.233488
    H   H14  0.880341  0.347862  0.416112  0.171740
    C   C29  0.847452  0.636984  0.597930  -0.094089
    H   H15  0.740658  0.645160  0.597002  0.207875
    C   C30  0.909623  0.710136  0.649181  -0.192379
    C   C31  0.048501  0.707758  0.649333  0.012641
    H   H16  0.102919  0.764870  0.687101  0.095704
    C   C32  0.122233  0.632550  0.599830  -0.189636
    H   H17  0.229027  0.638978  0.602530  0.126130
    C   C33  0.061061  0.554367  0.549984  0.165505
    C   C34  0.919878  0.557051  0.548932  0.149066
    N   N1   0.854314  0.483658  0.500701  -0.066972
    C   C35  0.929964  0.407868  0.454501  -0.112400
    H   H18  0.128686  0.343976  0.417468  0.096835
    C   C36  0.071099  0.405172  0.455546  0.100809
    N   N2   0.136878  0.477909  0.503077  -0.136816
    C   C37  0.990063  0.899217  0.496269  0.639323
    O   O9   0.892238  0.923065  0.539915  -0.448671
    C   C38  0.968537  0.841995  0.420198  -0.416157
    H   H19  0.063674  0.838514  0.382900  0.092795
    H   H20  0.895502  0.897752  0.389749  0.116023
    H   H21  0.927369  0.748914  0.428872  0.118406
    C   C39  0.827125  0.790842  0.701334  0.701363
    O   O10  0.703580  0.791114  0.699915  -0.524910
    C   C40  0.891094  0.872833  0.756701  -0.449218
    H   H22  0.959924  0.938190  0.725242  0.116062
    H   H23  0.948501  0.818378  0.797107  0.108228
    H   H24  0.810183  0.924273  0.789807  0.129695
    C   C41  0.340981  0.633826  0.264462  0.607212
    O   O11  0.381829  0.697994  0.315005  -0.502268
    C   C42  0.199195  0.650898  0.241041  -0.411090
    H   H25  0.173321  0.580737  0.198869  0.082913
    H   H26  0.189143  0.742616  0.215726  0.128221
    H   H27  0.127361  0.642561  0.292344  0.120662
    C   C43  0.200465  0.447662  0.893621  0.668411
    O   O12  0.187876  0.375251  0.946447  -0.507997
    C   C44  0.077027  0.510938  0.868338  -0.496356
    H   H28  0.105350  0.580977  0.824572  0.094910
    H   H29  0.023888  0.556188  0.918500  0.138100
    H   H30  0.007715  0.443497  0.844395  0.154678
