# generated using pymatgen
data_Cu3H2C42Cl31O12
_symmetry_space_group_name_H-M   'P 1'
_cell_length_a   27.47410000
_cell_length_b   27.45741400
_cell_length_c   27.51731100
_cell_angle_alpha   109.35567900
_cell_angle_beta   109.51487000
_cell_angle_gamma   109.42511400
_symmetry_Int_Tables_number   1
_chemical_formula_structural   Cu3H2C42Cl31O12
_chemical_formula_sum   'Cu6 H4 C84 Cl62 O24'
_cell_volume   16002.85298642
_cell_formula_units_Z   2
loop_
 _symmetry_equiv_pos_site_id
 _symmetry_equiv_pos_as_xyz
  1  'x, y, z'
loop_
 _atom_site_type_symbol
 _atom_site_label
 _atom_site_symmetry_multiplicity
 _atom_site_fract_x
 _atom_site_fract_y
 _atom_site_fract_z
 _atom_site_occupancy
  Cu  Cu1  1  0.00024800  0.04121700  0.54256800  1
  Cu  Cu2  1  0.00071500  0.95736800  0.45916800  1
  Cu  Cu3  1  0.45893200  0.95906800  0.00020400  1
  Cu  Cu4  1  0.54297600  0.04296200  0.00011700  1
  Cu  Cu5  1  0.54142900  0.49941300  0.54204100  1
  Cu  Cu6  1  0.45754900  0.49972900  0.45822600  1
  H  H1  1  0.71276000  0.89984800  0.23874600  1
  H  H2  1  0.34057700  0.09446000  0.81432200  1
  H  H3  1  0.22440600  0.93936700  0.64735100  1
  H  H4  1  0.43544400  0.21026900  0.28153200  1
  C  C1  1  0.91976400  0.91814100  0.50069600  1
  C  C2  1  0.91959100  0.99930200  0.42021800  1
  C  C3  1  0.08119100  0.08044600  0.50103600  1
  C  C4  1  0.08137700  0.99928800  0.58150900  1
  C  C5  1  0.70262900  0.98489700  0.25542700  1
  C  C6  1  0.72950600  0.94492100  0.24370500  1
  C  C7  1  0.87445600  0.99909400  0.37501200  1
  C  C8  1  0.62661100  0.00069900  0.12587800  1
  C  C9  1  0.76359300  0.03789600  0.30280500  1
  C  C10  1  0.79057400  0.99869800  0.29088800  1
  C  C11  1  0.77084900  0.05319400  0.25675500  1
  C  C12  1  0.71000200  0.00020100  0.20959200  1
  C  C13  1  0.79811900  0.01403300  0.24511300  1
  C  C14  1  0.73708000  0.96107900  0.19784300  1
  C  C15  1  0.83652800  0.99890000  0.33698900  1
  C  C16  1  0.66434400  0.00051700  0.16371700  1
  C  C17  1  0.79984900  0.81159600  0.56525300  1
  C  C18  1  0.79441800  0.73072400  0.47920000  1
  C  C19  1  0.75185900  0.68627000  0.48709900  1
  C  C20  1  0.62559800  0.62548100  0.50015300  1
  C  C21  1  0.79026000  0.78914100  0.50052000  1
  C  C22  1  0.74714500  0.76725700  0.56301300  1
  C  C23  1  0.70991700  0.70931100  0.50032300  1
  C  C24  1  0.67979500  0.72313400  0.45097700  1
  C  C25  1  0.72746000  0.77636200  0.45698900  1
  C  C26  1  0.66367000  0.66335900  0.50021000  1
  C  C27  1  0.83649300  0.83510300  0.50062100  1
  C  C28  1  0.87454500  0.87300200  0.50067300  1
  C  C29  1  0.24839000  0.06251700  0.76764400  1
  C  C30  1  0.25044000  0.98396300  0.68711900  1
  C  C31  1  0.29864900  0.98405100  0.73452600  1
  C  C32  1  0.37529400  0.00121000  0.87439800  1
  C  C33  1  0.21061300  0.99985000  0.71054200  1
  C  C34  1  0.30045000  0.06426700  0.81183300  1
  C  C35  1  0.29133800  0.00078800  0.79031800  1
  C  C36  1  0.22873000  0.95617500  0.77597500  1
  C  C37  1  0.18092400  0.95040700  0.72325500  1
  C  C38  1  0.33737500  0.00109100  0.83643600  1
  C  C39  1  0.16455000  0.99970000  0.66460600  1
  C  C40  1  0.12655200  0.99951600  0.62666300  1
  C  C41  1  0.19998300  0.26465000  0.51328600  1
  C  C42  1  0.20561700  0.18390800  0.43813900  1
  C  C43  1  0.24774900  0.23425300  0.43577700  1
  C  C44  1  0.37344300  0.37357700  0.50013500  1
  C  C45  1  0.20997900  0.20959600  0.50065400  1
  C  C46  1  0.25234400  0.31505200  0.52115700  1
  C  C47  1  0.28968700  0.28958600  0.50037500  1
  C  C48  1  0.32030800  0.27061800  0.54436200  1
  C  C49  1  0.27300400  0.22906500  0.55037200  1
  C  C50  1  0.33557800  0.33563100  0.50022000  1
  C  C51  1  0.16408500  0.16354400  0.50080000  1
  C  C52  1  0.12624700  0.12559500  0.50091000  1
  C  C53  1  0.50091000  0.08158500  0.08106100  1
  C  C54  1  0.58162800  0.00082400  0.08085700  1
  C  C55  1  0.50163900  0.92044800  0.91989300  1
  C  C56  1  0.42030500  0.00121200  0.91948700  1
  C  C57  1  0.49940300  0.58003300  0.58110200  1
  C  C58  1  0.58037500  0.58038300  0.50015700  1
  C  C59  1  0.49895400  0.41849500  0.41915600  1
  C  C60  1  0.41859700  0.41873800  0.50012100  1
  C  C61  1  0.43553700  0.18833600  0.20030500  1
  C  C62  1  0.52113400  0.26910900  0.20565100  1
  C  C63  1  0.51265300  0.31297500  0.24804000  1
  C  C64  1  0.49952500  0.37381800  0.37402500  1
  C  C65  1  0.50015400  0.21068600  0.20963900  1
  C  C66  1  0.43984100  0.23207300  0.25486000  1
  C  C67  1  0.50045400  0.29057000  0.29013700  1
  C  C68  1  0.54833100  0.27611300  0.32021300  1
  C  C69  1  0.54345000  0.22373100  0.27266100  1
  C  C70  1  0.49992400  0.33623200  0.33611300  1
  C  C71  1  0.50033800  0.16475100  0.16360000  1
  C  C72  1  0.50056000  0.12684100  0.12584000  1
  C  C73  1  0.48793100  0.73566000  0.80010700  1
  C  C74  1  0.56316900  0.81610200  0.79408800  1
  C  C75  1  0.56512800  0.76554400  0.75180900  1
  C  C76  1  0.49979800  0.62570200  0.62620600  1
  C  C77  1  0.50070000  0.79079200  0.79018600  1
  C  C78  1  0.47964600  0.68508800  0.74767900  1
  C  C79  1  0.50029100  0.71031000  0.71012800  1
  C  C80  1  0.45634900  0.72956400  0.67988800  1
  C  C81  1  0.45074400  0.77135700  0.72735200  1
  C  C82  1  0.50004600  0.66395800  0.66408600  1
  C  C83  1  0.50096000  0.83708500  0.83630700  1
  C  C84  1  0.50123000  0.87515800  0.87439300  1
  Cl  Cl1  1  0.86762900  0.74258500  0.51747900  1
  Cl  Cl2  1  0.79512200  0.67451500  0.54198300  1
  Cl  Cl3  1  0.71277800  0.61409100  0.42325800  1
  Cl  Cl4  1  0.71195900  0.83579700  0.47766000  1
  Cl  Cl5  1  0.71668100  0.76292000  0.38516800  1
  Cl  Cl6  1  0.62177800  0.73736200  0.45403400  1
  Cl  Cl7  1  0.80877300  0.88409200  0.59897300  1
  Cl  Cl8  1  0.70834500  0.80370300  0.58301900  1
  Cl  Cl9  1  0.64098200  0.66430500  0.37602100  1
  Cl  Cl10  1  0.63747500  0.96632400  0.26182900  1
  Cl  Cl11  1  0.27660500  0.12118300  0.75291000  1
  Cl  Cl12  1  0.28249300  0.02907200  0.66021600  1
  Cl  Cl13  1  0.36962300  0.03525300  0.74988900  1
  Cl  Cl14  1  0.29513800  0.91382900  0.70463100  1
  Cl  Cl15  1  0.12216100  0.95189300  0.73674400  1
  Cl  Cl16  1  0.14561900  0.87726500  0.66189400  1
  Cl  Cl17  1  0.21467600  0.97731100  0.83620600  1
  Cl  Cl18  1  0.20905400  0.08347200  0.80275300  1
  Cl  Cl19  1  0.31452900  0.10200100  0.88587700  1
  Cl  Cl20  1  0.71874300  0.91010700  0.12591200  1
  Cl  Cl21  1  0.21899800  0.88407300  0.75989000  1
  Cl  Cl22  1  0.22600900  0.34966000  0.48231800  1
  Cl  Cl23  1  0.13348400  0.25271300  0.45793300  1
  Cl  Cl24  1  0.22233900  0.12523400  0.41883000  1
  Cl  Cl25  1  0.13222600  0.14874400  0.37720100  1
  Cl  Cl26  1  0.20396200  0.24557100  0.38079900  1
  Cl  Cl27  1  0.28685900  0.20943500  0.40259400  1
  Cl  Cl28  1  0.28871000  0.26548300  0.62516000  1
  Cl  Cl29  1  0.28430600  0.16816900  0.54799500  1
  Cl  Cl30  1  0.37833800  0.33188700  0.61613500  1
  Cl  Cl31  1  0.86337000  0.03322700  0.23885900  1
  Cl  Cl32  1  0.19126200  0.28965800  0.57686000  1
  Cl  Cl33  1  0.29117900  0.37405800  0.59603300  1
  Cl  Cl34  1  0.35934500  0.23450600  0.52434100  1
  Cl  Cl35  1  0.37656600  0.24213800  0.23605200  1
  Cl  Cl36  1  0.38076300  0.17986400  0.13578200  1
  Cl  Cl37  1  0.59680500  0.30588300  0.22355700  1
  Cl  Cl38  1  0.48346800  0.25727900  0.13244400  1
  Cl  Cl39  1  0.45515500  0.32304100  0.20644600  1
  Cl  Cl40  1  0.57660500  0.38509700  0.28706400  1
  Cl  Cl41  1  0.52152500  0.16409600  0.28771400  1
  Cl  Cl42  1  0.79766400  0.12544000  0.26469600  1
  Cl  Cl43  1  0.61582300  0.23751600  0.28464000  1
  Cl  Cl44  1  0.53644700  0.25600800  0.37233400  1
  Cl  Cl45  1  0.40098400  0.11485000  0.18910600  1
  Cl  Cl46  1  0.62334500  0.33593600  0.36319300  1
  Cl  Cl47  1  0.51836300  0.65026800  0.77377900  1
  Cl  Cl48  1  0.54350300  0.74744000  0.86631000  1
  Cl  Cl49  1  0.58259800  0.87475000  0.77731200  1
  Cl  Cl50  1  0.62447800  0.85113600  0.86715500  1
  Cl  Cl51  1  0.62014900  0.75401000  0.79526000  1
  Cl  Cl52  1  0.78208800  0.08936800  0.37459100  1
  Cl  Cl53  1  0.59818300  0.79019000  0.71252600  1
  Cl  Cl54  1  0.37590900  0.73524900  0.71206400  1
  Cl  Cl55  1  0.45327300  0.83229600  0.71605800  1
  Cl  Cl56  1  0.38421300  0.66849200  0.62221200  1
  Cl  Cl57  1  0.42444600  0.71091200  0.80919900  1
  Cl  Cl58  1  0.40453400  0.62629900  0.70924100  1
  Cl  Cl59  1  0.47627100  0.76555500  0.64073400  1
  Cl  Cl60  1  0.77287700  0.75428500  0.62363100  1
  Cl  Cl61  1  0.86601300  0.82214100  0.61973300  1
  Cl  Cl62  1  0.77811000  0.69488600  0.40413400  1
  O  O1  1  0.93743000  0.97401800  0.53502000  1
  O  O2  1  0.94126700  0.90143400  0.46634900  1
  O  O3  1  0.94067800  0.03741800  0.47585000  1
  O  O4  1  0.93765800  0.96138100  0.40374000  1
  O  O5  1  0.05969300  0.09715100  0.53538700  1
  O  O6  1  0.06353400  0.02456800  0.46671700  1
  O  O7  1  0.06330900  0.03720700  0.59799900  1
  O  O8  1  0.06028500  0.96116600  0.52588400  1
  O  O9  1  0.46264500  0.02572000  0.05963600  1
  O  O10  1  0.53540700  0.09822500  0.05960000  1
  O  O11  1  0.52579800  0.96639800  0.06314200  1
  O  O12  1  0.59843200  0.03534200  0.05952600  1
  O  O13  1  0.46343900  0.90382300  0.93765200  1
  O  O14  1  0.53603600  0.97632500  0.93744700  1
  O  O15  1  0.40338300  0.96653300  0.94071100  1
  O  O16  1  0.47619100  0.03580400  0.93723800  1
  O  O17  1  0.53762600  0.56225500  0.59780600  1
  O  O18  1  0.46500700  0.56240100  0.52527400  1
  O  O19  1  0.59711100  0.56238000  0.53814700  1
  O  O20  1  0.52446300  0.55925800  0.46215700  1
  O  O21  1  0.53705000  0.43982000  0.47498900  1
  O  O22  1  0.46458700  0.44012300  0.40246100  1
  O  O23  1  0.47444500  0.43997600  0.53810200  1
  O  O24  1  0.40197000  0.43669500  0.46213700  1
