# generated using pymatgen
data_Zn2H15C30SN7O8
_symmetry_space_group_name_H-M   'P 1'
_cell_length_a   6.60047700
_cell_length_b   13.32929700
_cell_length_c   15.94458300
_cell_angle_alpha   96.19619000
_cell_angle_beta   81.46660200
_cell_angle_gamma   89.91523700
_symmetry_Int_Tables_number   1
_chemical_formula_structural   Zn2H15C30SN7O8
_chemical_formula_sum   'Zn2 H15 C30 S1 N7 O8'
_cell_volume   1378.94765979
_cell_formula_units_Z   1
loop_
 _symmetry_equiv_pos_site_id
 _symmetry_equiv_pos_as_xyz
  1  'x, y, z'
loop_
 _atom_site_type_symbol
 _atom_site_label
 _atom_site_symmetry_multiplicity
 _atom_site_fract_x
 _atom_site_fract_y
 _atom_site_fract_z
 _atom_site_occupancy
  Zn  Zn1  1  0.01356900  0.10791100  0.49671300  1
  Zn  Zn2  1  0.04375000  0.88349000  0.48394000  1
  H  H1  1  0.06123500  0.02936900  0.76576300  1
  H  H2  1  0.56157500  0.97021200  0.89418800  1
  H  H3  1  0.79519000  0.96569000  0.75899600  1
  H  H4  1  0.49547800  0.02125600  0.08652100  1
  H  H5  1  0.26198600  0.02574400  0.22174800  1
  H  H6  1  0.99598800  0.96207300  0.21484500  1
  H  H7  1  0.84139400  0.73625700  0.39359500  1
  H  H8  1  0.21766700  0.26285400  0.58551400  1
  H  H9  1  0.34927300  0.42379900  0.62738100  1
  H  H10  1  0.81498400  0.55535400  0.39553600  1
  H  H11  1  0.79290200  0.41358300  0.40425600  1
  H  H12  1  0.78846100  0.23364200  0.41487100  1
  H  H13  1  0.16141700  0.86035500  0.72638000  1
  H  H14  1  0.11681000  0.72578700  0.71529500  1
  H  H15  1  0.97938400  0.80960600  0.65982500  1
  C  C1  1  0.35371900  0.01406200  0.68786500  1
  C  C2  1  0.22361900  0.01817600  0.76448500  1
  C  C3  1  0.29755900  0.00249900  0.83851200  1
  C  C4  1  0.50318200  0.98374000  0.83648000  1
  C  C5  1  0.63404500  0.98097300  0.76052400  1
  C  C6  1  0.56094400  0.99656900  0.68618400  1
  C  C7  1  0.89993200  0.99138900  0.06266700  1
  C  C8  1  0.15715700  0.00008300  0.91798600  1
  C  C9  1  0.55393400  0.00771200  0.14421200  1
  C  C10  1  0.42314200  0.01045700  0.22018400  1
  C  C11  1  0.49634300  0.99483800  0.29449800  1
  C  C12  1  0.70356100  0.97734800  0.29278300  1
  C  C13  1  0.83359500  0.97326100  0.21615200  1
  C  C14  1  0.75957000  0.98895800  0.14214700  1
  C  C15  1  0.70920900  0.99632100  0.60857500  1
  C  C16  1  0.26134500  0.00951300  0.60986600  1
  C  C17  1  0.34819700  0.99508800  0.37213200  1
  C  C18  1  0.79594800  0.98188500  0.37077600  1
  C  C19  1  0.17005700  0.70572500  0.52745700  1
  C  C20  1  0.93379600  0.69799500  0.43134100  1
  C  C21  1  0.91784800  0.59521400  0.43327500  1
  C  C22  1  0.02906500  0.54669700  0.48433300  1
  C  C23  1  0.15778100  0.60285500  0.53102600  1
  C  C24  1  0.88690100  0.38354100  0.44565000  1
  C  C25  1  0.01377600  0.44390000  0.49029400  1
  C  C26  1  0.12992700  0.40004100  0.54186300  1
  C  C27  1  0.25785800  0.45838900  0.58704800  1
  C  C28  1  0.88240500  0.28125800  0.45209100  1
  C  C29  1  0.12121000  0.29745600  0.54712000  1
  C  C30  1  0.12705500  0.79486100  0.68196300  1
  S  S1  1  0.32946500  0.77881200  0.59103400  1
  N  N1  1  0.22964800  0.98103500  0.98929400  1
  N  N2  1  0.10221900  0.97692400  0.06105500  1
  N  N3  1  0.82743600  0.01043800  0.99136000  1
  N  N4  1  0.95486600  0.01454900  0.91959700  1
  N  N5  1  0.05826100  0.75154100  0.47810400  1
  N  N6  1  0.26912600  0.55824500  0.58128900  1
  N  N7  1  0.99851300  0.23982900  0.50231000  1
  O  O1  1  0.80173700  0.91050100  0.57691400  1
  O  O2  1  0.76935200  0.08368700  0.58374200  1
  O  O3  1  0.18877600  0.09323600  0.58818700  1
  O  O4  1  0.22225700  0.91951100  0.57445700  1
  O  O5  1  0.25556900  0.08090300  0.40373700  1
  O  O6  1  0.28800500  0.90770900  0.39693000  1
  O  O7  1  0.86863200  0.89830700  0.39246900  1
  O  O8  1  0.83511100  0.07174800  0.40621200  1
