# generated using pymatgen
data_Zn3H21(C7O2)7
_symmetry_space_group_name_H-M   'P 1'
_cell_length_a   28.42540200
_cell_length_b   18.73138700
_cell_length_c   16.80027500
_cell_angle_alpha   90.00000000
_cell_angle_beta   62.18171500
_cell_angle_gamma   90.00000000
_symmetry_Int_Tables_number   1
_chemical_formula_structural   Zn3H21(C7O2)7
_chemical_formula_sum   'Zn12 H84 C196 O56'
_cell_volume   7911.47453860
_cell_formula_units_Z   4
loop_
 _symmetry_equiv_pos_site_id
 _symmetry_equiv_pos_as_xyz
  1  'x, y, z'
loop_
 _atom_site_type_symbol
 _atom_site_label
 _atom_site_symmetry_multiplicity
 _atom_site_fract_x
 _atom_site_fract_y
 _atom_site_fract_z
 _atom_site_occupancy
  Zn  Zn1  1  0.78973700  0.20446300  0.51003900  1
  Zn  Zn2  1  0.20887000  0.79602300  0.49607500  1
  Zn  Zn3  1  0.20894500  0.20222300  0.49650900  1
  Zn  Zn4  1  0.78978600  0.79382400  0.51059900  1
  Zn  Zn5  1  0.28973700  0.70446400  0.51003900  1
  Zn  Zn6  1  0.70887000  0.29602200  0.49607500  1
  Zn  Zn7  1  0.70894500  0.70222200  0.49650900  1
  Zn  Zn8  1  0.28978600  0.29382400  0.51059900  1
  Zn  Zn9  1  0.50066800  0.49908300  0.09245100  1
  Zn  Zn10  1  0.49677600  0.49885800  0.91515400  1
  Zn  Zn11  1  0.00066800  0.99908300  0.09245100  1
  Zn  Zn12  1  0.99677600  0.99885800  0.91515400  1
  H  H1  1  0.02412000  0.25938400  0.56357800  1
  H  H2  1  0.95624400  0.73960300  0.51199800  1
  H  H3  1  0.95314400  0.25878800  0.52127200  1
  H  H4  1  0.02628100  0.73944300  0.55674500  1
  H  H5  1  0.52412100  0.75938300  0.56357400  1
  H  H6  1  0.45624300  0.23960400  0.51200100  1
  H  H7  1  0.45314500  0.75878800  0.52126700  1
  H  H8  1  0.52628000  0.23944300  0.55674800  1
  H  H9  1  0.08454800  0.32300700  0.59228000  1
  H  H10  1  0.90837800  0.67660000  0.45769600  1
  H  H11  1  0.90547800  0.32047100  0.46719000  1
  H  H12  1  0.08481300  0.67586400  0.59027300  1
  H  H13  1  0.58454800  0.82300600  0.59227800  1
  H  H14  1  0.40837700  0.17660000  0.45770000  1
  H  H15  1  0.40547900  0.82047200  0.46718500  1
  H  H16  1  0.58481300  0.17586300  0.59027400  1
  H  H17  1  0.63039900  0.34731700  0.02150300  1
  H  H18  1  0.36681300  0.64989200  0.98604800  1
  H  H19  1  0.36341800  0.35318200  0.98995300  1
  H  H20  1  0.63388900  0.64472100  0.01800800  1
  H  H21  1  0.13039900  0.84731700  0.02150300  1
  H  H22  1  0.86681300  0.14989200  0.98604800  1
  H  H23  1  0.86341800  0.85318200  0.98995200  1
  H  H24  1  0.13388900  0.14472200  0.01800800  1
  H  H25  1  0.61674400  0.34730800  0.77872900  1
  H  H26  1  0.38209100  0.65349900  0.22723700  1
  H  H27  1  0.38168900  0.34567400  0.22812700  1
  H  H28  1  0.61726800  0.64988300  0.77819500  1
  H  H29  1  0.11674400  0.84730800  0.77872900  1
  H  H30  1  0.88209000  0.15349900  0.22723800  1
  H  H31  1  0.88168900  0.84567400  0.22812700  1
  H  H32  1  0.11726800  0.14988300  0.77819500  1
  H  H33  1  0.74392400  0.23612600  0.79188700  1
  H  H34  1  0.25431100  0.76336700  0.21443900  1
  H  H35  1  0.25633300  0.23052300  0.21410000  1
  H  H36  1  0.74203400  0.76582800  0.79320500  1
  H  H37  1  0.24392400  0.73612600  0.79188700  1
  H  H38  1  0.75431100  0.26336700  0.21443900  1
  H  H39  1  0.75633300  0.73052300  0.21410000  1
  H  H40  1  0.24203400  0.26582900  0.79320500  1
  H  H41  1  0.65003300  0.16690100  0.96853000  1
  H  H42  1  0.34781800  0.83146100  0.03812900  1
  H  H43  1  0.37201900  0.20015800  0.98651400  1
  H  H44  1  0.62616100  0.79726200  0.02053400  1
  H  H45  1  0.15003300  0.66690100  0.96853000  1
  H  H46  1  0.84781800  0.33146100  0.03813000  1
  H  H47  1  0.87202000  0.70015800  0.98651400  1
  H  H48  1  0.12616000  0.29726200  0.02053400  1
  H  H49  1  0.63757100  0.05246200  0.04050200  1
  H  H50  1  0.36012300  0.94597600  0.96644800  1
  H  H51  1  0.40862800  0.11752200  0.86345100  1
  H  H52  1  0.58983500  0.88048700  0.14295400  1
  H  H53  1  0.13757100  0.55246200  0.04050200  1
  H  H54  1  0.86012200  0.44597600  0.96644800  1
  H  H55  1  0.90862800  0.61752200  0.86345000  1
  H  H56  1  0.08983500  0.38048800  0.14295400  1
  H  H57  1  0.68959400  0.01893700  0.11698300  1
  H  H58  1  0.30796100  0.97956300  0.89023500  1
  H  H59  1  0.35857700  0.08342000  0.78382100  1
  H  H60  1  0.63988200  0.91447200  0.22263500  1
  H  H61  1  0.18959400  0.51893700  0.11698300  1
  H  H62  1  0.80796000  0.47956300  0.89023500  1
  H  H63  1  0.85857700  0.58342000  0.78382100  1
  H  H64  1  0.13988200  0.41447300  0.22263600  1
  H  H65  1  0.75404200  0.09897100  0.12155300  1
  H  H66  1  0.24355500  0.89952500  0.88562700  1
  H  H67  1  0.27126400  0.13013700  0.82912300  1
  H  H68  1  0.72685900  0.86689400  0.17819500  1
  H  H69  1  0.25404200  0.59897100  0.12155300  1
  H  H70  1  0.74355500  0.39952500  0.88562700  1
  H  H71  1  0.77126400  0.63013700  0.82912300  1
  H  H72  1  0.22685900  0.36689500  0.17819500  1
  H  H73  1  0.72961300  0.55960100  0.34140300  1
  H  H74  1  0.74462700  0.46784900  0.30389300  1
  H  H75  1  0.78037400  0.54013500  0.22799400  1
  H  H76  1  0.33808100  0.49959000  0.42360500  1
  H  H77  1  0.34428400  0.54774500  0.32577200  1
  H  H78  1  0.34449800  0.45122300  0.32578200  1
  H  H79  1  0.22961300  0.05960100  0.34140300  1
  H  H80  1  0.24462700  0.96784900  0.30389400  1
  H  H81  1  0.28037400  0.04013500  0.22799400  1
  H  H82  1  0.83808100  0.99958900  0.42360500  1
  H  H83  1  0.84428400  0.04774500  0.32577200  1
  H  H84  1  0.84449800  0.95122300  0.32578200  1
  C  C1  1  0.70424500  0.27195200  0.67891100  1
  C  C2  1  0.29435600  0.72842200  0.32716100  1
  C  C3  1  0.29486100  0.26905500  0.32756600  1
  C  C4  1  0.70385900  0.72704500  0.67943900  1
  C  C5  1  0.20424500  0.77195300  0.67891100  1
  C  C6  1  0.79435600  0.22842200  0.32716100  1
  C  C7  1  0.79486200  0.76905500  0.32756500  1
  C  C8  1  0.20385900  0.22704500  0.67943900  1
  C  C9  1  0.68928000  0.13167900  0.53407600  1
  C  C10  1  0.30970400  0.86848400  0.47168800  1
  C  C11  1  0.30990400  0.12994600  0.47259300  1
  C  C12  1  0.68929300  0.86650100  0.53368500  1
  C  C13  1  0.18928000  0.63167900  0.53407600  1
  C  C14  1  0.80970300  0.36848300  0.47168800  1
  C  C15  1  0.80990500  0.62994600  0.47259300  1
  C  C16  1  0.18929300  0.36650100  0.53368500  1
  C  C17  1  0.53236800  0.12543600  0.55492100  1
  C  C18  1  0.44993500  0.87294700  0.51435800  1
  C  C19  1  0.45162500  0.12543700  0.50926200  1
  C  C20  1  0.53147400  0.87327100  0.55799400  1
  C  C21  1  0.03236900  0.62543700  0.55492000  1
  C  C22  1  0.94993400  0.37294700  0.51436100  1
  C  C23  1  0.95162500  0.62543700  0.50926000  1
  C  C24  1  0.03147300  0.37327200  0.55799600  1
  C  C25  1  0.51071600  0.18924200  0.54748300  1
  C  C26  1  0.46921700  0.80923900  0.52852700  1
  C  C27  1  0.47155800  0.18927100  0.52149200  1
  C  C28  1  0.50894200  0.80949000  0.55313600  1
  C  C29  1  0.01071700  0.68924200  0.54748000  1
  C  C30  1  0.96921600  0.30923900  0.52853100  1
  C  C31  1  0.97155900  0.68927100  0.52149000  1
  C  C32  1  0.00894100  0.30949000  0.55313900  1
  C  C33  1  0.47052500  0.06214900  0.52285100  1
  C  C34  1  0.51208200  0.93638900  0.54416100  1
  C  C35  1  0.51260400  0.06220800  0.54241600  1
  C  C36  1  0.46981400  0.93634600  0.52509100  1
  C  C37  1  0.97052500  0.56214900  0.52285000  1
  C  C38  1  0.01208200  0.43639000  0.54416200  1
  C  C39  1  0.01260400  0.56220900  0.54241600  1
  C  C40  1  0.96981300  0.43634600  0.52509200  1
  C  C41  1  0.94931400  0.49917100  0.51200300  1
  C  C42  1  0.03491200  0.49931100  0.54994500  1
  C  C43  1  0.44931400  0.99917100  0.51200200  1
  C  C44  1  0.53491200  0.99931100  0.54994400  1
  C  C45  1  0.88622000  0.43434000  0.48127300  1
  C  C46  1  0.10517100  0.56382400  0.55894300  1
  C  C47  1  0.10505100  0.43471100  0.55942300  1
  C  C48  1  0.88714300  0.56372900  0.47872700  1
  C  C49  1  0.38622100  0.93434000  0.48127200  1
  C  C50  1  0.60517100  0.06382400  0.55894300  1
  C  C51  1  0.60505100  0.93471100  0.55942300  1
  C  C52  1  0.38714300  0.06372900  0.47872800  1
  C  C53  1  0.84209900  0.43406100  0.46395400  1
  C  C54  1  0.15771000  0.56457400  0.54556600  1
  C  C55  1  0.15770800  0.43373500  0.54544800  1
  C  C56  1  0.84273000  0.56420600  0.46238000  1
  C  C57  1  0.34209900  0.93406200  0.46395400  1
  C  C58  1  0.65771000  0.06457400  0.54556600  1
  C  C59  1  0.65770900  0.93373400  0.54544800  1
  C  C60  1  0.34273000  0.06420600  0.46238100  1
  C  C61  1  0.82416600  0.49902400  0.44773600  1
  C  C62  1  0.18431300  0.49913300  0.53056900  1
  C  C63  1  0.32416600  0.99902500  0.44773600  1
  C  C64  1  0.68431300  0.99913300  0.53056900  1
  C  C65  1  0.90717900  0.49907500  0.49085700  1
  C  C66  1  0.08195700  0.49927900  0.55619400  1
  C  C67  1  0.40717900  0.99907500  0.49085600  1
  C  C68  1  0.58195700  0.99927900  0.55619400  1
  C  C69  1  0.07500200  0.37311600  0.57270900  1
  C  C70  1  0.91335700  0.62590800  0.48171400  1
  C  C71  1  0.91136300  0.37204600  0.48760500  1
  C  C72  1  0.07540000  0.62557600  0.57096700  1
  C  C73  1  0.57500300  0.87311500  0.57270700  1
  C  C74  1  0.41335600  0.12590900  0.48171600  1
  C  C75  1  0.41136400  0.87204700  0.48760200  1
  C  C76  1  0.57540000  0.12557600  0.57096800  1
  C  C77  1  0.64387200  0.33006100  0.95290300  1
  C  C78  1  0.35367400  0.66788500  0.05427700  1
  C  C79  1  0.35136000  0.33353500  0.05719000  1
  C  C80  1  0.64630500  0.66390100  0.95046300  1
  C  C81  1  0.14387200  0.83006200  0.95290300  1
  C  C82  1  0.85367400  0.16788500  0.05427800  1
  C  C83  1  0.85136000  0.83353500  0.05719000  1
  C  C84  1  0.14630500  0.16390200  0.95046300  1
  C  C85  1  0.61754800  0.35145500  0.90517800  1
  C  C86  1  0.38022100  0.64706000  0.10186300  1
  C  C87  1  0.37863000  0.35341700  0.10383000  1
  C  C88  1  0.61922300  0.64385500  0.90353900  1
  C  C89  1  0.11754800  0.85145500  0.90517800  1
  C  C90  1  0.88022100  0.14706000  0.10186300  1
  C  C91  1  0.87863000  0.85341700  0.10383000  1
  C  C92  1  0.11922300  0.14385500  0.90353900  1
  C  C93  1  0.63649000  0.32986600  0.81674900  1
  C  C94  1  0.36184500  0.66991300  0.18965400  1
  C  C95  1  0.36132300  0.32920700  0.19076500  1
  C  C96  1  0.63713300  0.66714400  0.81609400  1
  C  C97  1  0.13649000  0.82986600  0.81674800  1
  C  C98  1  0.86184400  0.16991300  0.18965400  1
  C  C99  1  0.86132300  0.82920700  0.19076500  1
  C  C100  1  0.13713300  0.16714500  0.81609400  1
  C  C101  1  0.68181600  0.28849300  0.77525100  1
  C  C102  1  0.31656100  0.71138600  0.23101200  1
  C  C103  1  0.31697000  0.28608400  0.23155400  1
  C  C104  1  0.68152500  0.71021500  0.77548300  1
  C  C105  1  0.18181600  0.78849300  0.77525100  1
  C  C106  1  0.81656100  0.21138600  0.23101200  1
  C  C107  1  0.81697000  0.78608300  0.23155300  1
  C  C108  1  0.18152500  0.21021500  0.77548300  1
  C  C109  1  0.70786900  0.26739600  0.82334000  1
  C  C110  1  0.29026500  0.73188200  0.18311600  1
  C  C111  1  0.29114400  0.26423800  0.18346300  1
  C  C112  1  0.70712200  0.73230300  0.82383000  1
  C  C113  1  0.20786900  0.76739600  0.82333900  1
  C  C114  1  0.79026500  0.23188200  0.18311600  1
  C  C115  1  0.79114400  0.76423800  0.18346300  1
  C  C116  1  0.20712200  0.23230300  0.82383000  1
  C  C117  1  0.68908400  0.28809100  0.91193000  1
  C  C118  1  0.30870700  0.71035800  0.09490100  1
  C  C119  1  0.30781500  0.28846600  0.09671200  1
  C  C120  1  0.69015800  0.70845400  0.91079200  1
  C  C121  1  0.18908400  0.78809100  0.91193000  1
  C  C122  1  0.80870700  0.21035700  0.09490100  1
  C  C123  1  0.80781500  0.78846600  0.09671200  1
  C  C124  1  0.19015800  0.20845400  0.91079200  1
  C  C125  1  0.67430900  0.15456700  0.00051100  1
  C  C126  1  0.32347200  0.84380900  0.00628500  1
  C  C127  1  0.34855700  0.18837200  0.95295300  1
  C  C128  1  0.64960000  0.80896300  0.05415900  1
  C  C129  1  0.17430900  0.65456700  0.00051100  1
  C  C130  1  0.82347200  0.34380900  0.00628500  1
  C  C131  1  0.84855700  0.68837200  0.95295300  1
  C  C132  1  0.14960000  0.30896300  0.05415900  1
  C  C133  1  0.66666667  0.08905300  0.04161000  1
  C  C134  1  0.33103800  0.90937100  0.96532900  1
  C  C135  1  0.36992200  0.14058600  0.88290300  1
  C  C136  1  0.62840200  0.85709600  0.12383600  1
  C  C137  1  0.16666700  0.58905300  0.04161000  1
  C  C138  1  0.83103700  0.40937100  0.96532900  1
  C  C139  1  0.86992200  0.64058600  0.88290300  1
  C  C140  1  0.12840200  0.35709600  0.12383600  1
  C  C141  1  0.69573600  0.07022900  0.08445300  1
  C  C142  1  0.30189700  0.92823100  0.92263200  1
  C  C143  1  0.34191000  0.12150800  0.83839800  1
  C  C144  1  0.65640700  0.87610700  0.16837700  1
  C  C145  1  0.19573600  0.57022900  0.08445300  1
  C  C146  1  0.80189700  0.42823100  0.92263200  1
  C  C147  1  0.84191100  0.62150800  0.83839800  1
  C  C148  1  0.15640700  0.37610700  0.16837700  1
  C  C149  1  0.73262600  0.11661400  0.08641600  1
  C  C150  1  0.26503400  0.88182400  0.92063000  1
  C  C151  1  0.29209700  0.14933000  0.86451400  1
  C  C152  1  0.70603700  0.84783500  0.14271700  1
  C  C153  1  0.23262600  0.61661500  0.08641600  1
  C  C154  1  0.76503400  0.38182400  0.92063000  1
  C  C155  1  0.79209700  0.64933000  0.86451400  1
  C  C156  1  0.20603700  0.34783500  0.14271700  1
  C  C157  1  0.74120900  0.18287900  0.04464400  1
  C  C158  1  0.25653700  0.81550000  0.96223900  1
  C  C159  1  0.27035700  0.19937500  0.93363400  1
  C  C160  1  0.72766100  0.79761500  0.07380700  1
  C  C161  1  0.24120900  0.68287900  0.04464400  1
  C  C162  1  0.75653700  0.31549900  0.96223900  1
  C  C163  1  0.77035700  0.69937400  0.93363400  1
  C  C164  1  0.22766100  0.29761500  0.07380700  1
  C  C165  1  0.71163900  0.20209500  0.00145400  1
  C  C166  1  0.28613000  0.79627300  0.00537600  1
  C  C167  1  0.29903900  0.21924800  0.97815700  1
  C  C168  1  0.69898500  0.77778300  0.02925700  1
  C  C169  1  0.21163900  0.70209600  0.00145400  1
  C  C170  1  0.78613000  0.29627300  0.00537700  1
  C  C171  1  0.79904000  0.71924700  0.97815700  1
  C  C172  1  0.19898500  0.27778400  0.02925700  1
  C  C173  1  0.77863500  0.22984400  0.04655800  1
  C  C174  1  0.21914400  0.76851800  0.96026200  1
  C  C175  1  0.22014300  0.22846200  0.95920600  1
  C  C176  1  0.77781100  0.76841200  0.04836700  1
  C  C177  1  0.27863500  0.72984400  0.04655800  1
  C  C178  1  0.71914400  0.26851700  0.96026200  1
  C  C179  1  0.72014300  0.72846200  0.95920600  1
  C  C180  1  0.27781100  0.26841200  0.04836700  1
  C  C181  1  0.07411100  0.09406900  0.94281200  1
  C  C182  1  0.92341700  0.90373900  0.06475900  1
  C  C183  1  0.92493100  0.09643200  0.06313700  1
  C  C184  1  0.07257100  0.90161100  0.94436900  1
  C  C185  1  0.57411100  0.59406900  0.94281200  1
  C  C186  1  0.42341700  0.40373900  0.06475900  1
  C  C187  1  0.42493100  0.59643200  0.06313700  1
  C  C188  1  0.57257100  0.40161000  0.94436900  1
  C  C189  1  0.80248900  0.51954100  0.33088600  1
  C  C190  1  0.76166600  0.52192200  0.29899500  1
  C  C191  1  0.26878900  0.49920600  0.40527900  1
  C  C192  1  0.32767700  0.49945700  0.36767900  1
  C  C193  1  0.30248900  0.01954100  0.33088600  1
  C  C194  1  0.26166600  0.02192200  0.29899500  1
  C  C195  1  0.76878900  0.99920600  0.40527900  1
  C  C196  1  0.82767700  0.99945700  0.36767900  1
  O  O1  1  0.74839400  0.23501500  0.64048800  1
  O  O2  1  0.25065300  0.76632500  0.36535700  1
  O  O3  1  0.25102500  0.23146500  0.36570200  1
  O  O4  1  0.74811100  0.76373200  0.64114700  1
  O  O5  1  0.24839400  0.73501500  0.64048800  1
  O  O6  1  0.75065200  0.26632400  0.36535800  1
  O  O7  1  0.75102600  0.73146500  0.36570200  1
  O  O8  1  0.24811100  0.26373200  0.64114700  1
  O  O9  1  0.67154800  0.19411600  0.52436600  1
  O  O10  1  0.32710700  0.80605100  0.48013800  1
  O  O11  1  0.32733500  0.19232100  0.48148800  1
  O  O12  1  0.67149400  0.80405600  0.52404000  1
  O  O13  1  0.17154800  0.69411600  0.52436500  1
  O  O14  1  0.82710700  0.30605100  0.48013800  1
  O  O15  1  0.82733500  0.69232100  0.48148800  1
  O  O16  1  0.17149400  0.30405600  0.52404000  1
  O  O17  1  0.73653100  0.12605300  0.52897600  1
  O  O18  1  0.26176900  0.87481800  0.47885700  1
  O  O19  1  0.26188900  0.12368400  0.48005100  1
  O  O20  1  0.73655000  0.87200300  0.52867000  1
  O  O21  1  0.23653100  0.62605300  0.52897600  1
  O  O22  1  0.76176900  0.37481700  0.47885800  1
  O  O23  1  0.76188900  0.62368400  0.48005000  1
  O  O24  1  0.23654900  0.37200300  0.52867000  1
  O  O25  1  0.68140200  0.29884500  0.63345300  1
  O  O26  1  0.31677500  0.70070100  0.37281900  1
  O  O27  1  0.31715500  0.29705700  0.37327700  1
  O  O28  1  0.68116800  0.69989100  0.63394600  1
  O  O29  1  0.18140300  0.79884500  0.63345300  1
  O  O30  1  0.81677500  0.20070100  0.37281900  1
  O  O31  1  0.81715500  0.79705700  0.37327700  1
  O  O32  1  0.18116800  0.19989100  0.63394600  1
  O  O33  1  0.05902100  0.06947300  0.02423800  1
  O  O34  1  0.93843900  0.92843800  0.98338100  1
  O  O35  1  0.93958400  0.07102500  0.98218900  1
  O  O36  1  0.05787900  0.92692900  0.02539800  1
  O  O37  1  0.55902100  0.56947300  0.02423800  1
  O  O38  1  0.43843900  0.42843800  0.98338100  1
  O  O39  1  0.43958400  0.57102500  0.98218900  1
  O  O40  1  0.55787900  0.42692900  0.02539800  1
  O  O41  1  0.94602100  0.07475200  0.11383700  1
  O  O42  1  0.05142700  0.92321100  0.89374800  1
  O  O43  1  0.05262600  0.07296800  0.89251600  1
  O  O44  1  0.94484400  0.92494200  0.11508100  1
  O  O45  1  0.44602100  0.57475200  0.11383700  1
  O  O46  1  0.55142700  0.42321100  0.89374800  1
  O  O47  1  0.55262600  0.57296800  0.89251600  1
  O  O48  1  0.44484400  0.42494200  0.11508100  1
  O  O49  1  0.78869000  0.49824500  0.41571200  1
  O  O50  1  0.84837800  0.53597800  0.27995000  1
  O  O51  1  0.23760300  0.49910200  0.49529600  1
  O  O52  1  0.24885700  0.49913200  0.35485900  1
  O  O53  1  0.28869000  0.99824500  0.41571200  1
  O  O54  1  0.34837800  0.03597800  0.27995000  1
  O  O55  1  0.73760300  0.99910200  0.49529600  1
  O  O56  1  0.74885700  0.99913100  0.35485900  1
