data_DB0-m3_o115_o21_f0_fsc.sym.18_repeat
_audit_creation_date              2024-02-23
_audit_creation_method            'Materials Studio'
_symmetry_space_group_name_H-M    'P1'
_symmetry_Int_Tables_number       1
_symmetry_cell_setting            triclinic
loop_
_symmetry_equiv_pos_as_xyz
  x,y,z
_cell_length_a                    12.3822
_cell_length_b                    16.4157
_cell_length_c                    16.7785
_cell_angle_alpha                 90.0593
_cell_angle_beta                  81.2494
_cell_angle_gamma                 94.5098
loop_
_atom_site_label
_atom_site_type_symbol
_atom_site_fract_x
_atom_site_fract_y
_atom_site_fract_z
_atom_site_U_iso_or_equiv
_atom_site_adp_type
_atom_site_occupancy
H1     H     0.11614   0.09377   0.25912   0.00000  Uiso   1.00
H2     H     0.09243   0.93419   0.71331   0.00000  Uiso   1.00
C1     C     0.96870   0.74821   0.04454   0.00000  Uiso   1.00
C2     C     0.94533   0.25785   0.96809   0.00000  Uiso   1.00
C3     C     0.96512   0.74805   0.96303   0.00000  Uiso   1.00
C4     C     0.95105   0.25786   0.04923   0.00000  Uiso   1.00
C5     C     0.98155   0.82875   0.93765   0.00000  Uiso   1.00
C6     C     0.97675   0.18058   0.06829   0.00000  Uiso   1.00
N1     N     0.99549   0.87813   0.00010   0.00000  Uiso   1.00
N2     N     0.98778   0.13354   0.00206   0.00000  Uiso   1.00
C7     C     0.98734   0.82897   0.06540   0.00000  Uiso   1.00
C8     C     0.96866   0.18074   0.94081   0.00000  Uiso   1.00
C9     C     0.98758   0.85431   0.86132   0.00000  Uiso   1.00
C10    C     0.99429   0.15690   0.14119   0.00000  Uiso   1.00
C11    C     0.00535   0.94147   0.83797   0.00000  Uiso   1.00
C12    C     0.02194   0.07347   0.15781   0.00000  Uiso   1.00
C13    C     0.05653   0.96988   0.76321   0.00000  Uiso   1.00
C14    C     0.07975   0.05311   0.21816   0.00000  Uiso   1.00
C15    C     0.05332   0.05358   0.76396   0.00000  Uiso   1.00
C16    C     0.08113   0.96932   0.21765   0.00000  Uiso   1.00
C17    C     0.00005   0.07312   0.83910   0.00000  Uiso   1.00
C18    C     0.02399   0.94162   0.15715   0.00000  Uiso   1.00
N3     N     0.96970   0.00449   0.88365   0.00000  Uiso   1.00
N4     N     0.98666   0.00515   0.12170   0.00000  Uiso   1.00
C19    C     0.97593   0.15682   0.86396   0.00000  Uiso   1.00
C20    C     0.00083   0.85473   0.13914   0.00000  Uiso   1.00
H3     H     0.95930   0.69459   0.08309   0.00000  Uiso   1.00
H4     H     0.92609   0.30923   0.93405   0.00000  Uiso   1.00
H5     H     0.95208   0.69429   0.92738   0.00000  Uiso   1.00
H6     H     0.93811   0.30944   0.08867   0.00000  Uiso   1.00
H7     H     0.08638   0.09516   0.71479   0.00000  Uiso   1.00
H8     H     0.11900   0.93316   0.25786   0.00000  Uiso   1.00
H9     H     0.92054   0.00039   0.93984   0.00000  Uiso   1.00
H10    H     0.93226   0.00145   0.08006   0.00000  Uiso   1.00
C21    C     0.09096   0.25728   0.22029   0.00000  Uiso   1.00
C22    C     0.89449   0.77427   0.76335   0.00000  Uiso   1.00
H11    H     0.16751   0.24373   0.18447   0.00000  Uiso   1.00
H12    H     0.82070   0.80407   0.78410   0.00000  Uiso   1.00
C23    C     0.09087   0.31427   0.28069   0.00000  Uiso   1.00
C24    C     0.89451   0.71606   0.70392   0.00000  Uiso   1.00
C25    C     0.99314   0.33277   0.32601   0.00000  Uiso   1.00
C26    C     0.98877   0.67780   0.67690   0.00000  Uiso   1.00
C27    C     0.89574   0.29315   0.31063   0.00000  Uiso   1.00
C28    C     0.08274   0.69833   0.71014   0.00000  Uiso   1.00
H13    H     0.81829   0.30632   0.34531   0.00000  Uiso   1.00
H14    H     0.15737   0.66926   0.69036   0.00000  Uiso   1.00
C29    C     0.89632   0.23529   0.25095   0.00000  Uiso   1.00
C30    C     0.08193   0.75560   0.77034   0.00000  Uiso   1.00
H15    H     0.82002   0.20432   0.23939   0.00000  Uiso   1.00
H16    H     0.15542   0.77087   0.79648   0.00000  Uiso   1.00
C31    C     0.99386   0.21732   0.20560   0.00000  Uiso   1.00
C32    C     0.98787   0.79360   0.79715   0.00000  Uiso   1.00
C33    C     0.10078   0.76075   0.20917   0.00000  Uiso   1.00
C34    C     0.89144   0.20957   0.75221   0.00000  Uiso   1.00
H17    H     0.17281   0.78024   0.16667   0.00000  Uiso   1.00
H18    H     0.82957   0.15891   0.76277   0.00000  Uiso   1.00
C35    C     0.10701   0.70427   0.26920   0.00000  Uiso   1.00
C36    C     0.88900   0.26513   0.69059   0.00000  Uiso   1.00
C37    C     0.01222   0.68023   0.32399   0.00000  Uiso   1.00
C38    C     0.97032   0.32973   0.67696   0.00000  Uiso   1.00
C39    C     0.91571   0.71533   0.31639   0.00000  Uiso   1.00
C40    C     0.05275   0.33552   0.72429   0.00000  Uiso   1.00
H19    H     0.84107   0.69940   0.35748   0.00000  Uiso   1.00
H20    H     0.11686   0.38467   0.71459   0.00000  Uiso   1.00
C41    C     0.91192   0.77213   0.25678   0.00000  Uiso   1.00
C42    C     0.05390   0.28003   0.78542   0.00000  Uiso   1.00
H21    H     0.83597   0.79879   0.25222   0.00000  Uiso   1.00
H22    H     0.11939   0.28554   0.82145   0.00000  Uiso   1.00
C43    C     0.00422   0.79439   0.20273   0.00000  Uiso   1.00
C44    C     0.97244   0.21748   0.80034   0.00000  Uiso   1.00
H23    H     0.16797   0.34476   0.29106   0.00000  Uiso   1.00
H24    H     0.82022   0.70148   0.67862   0.00000  Uiso   1.00
O1     O     0.89838   0.41993   0.42200   0.00000  Uiso   1.00
O2     O     0.08342   0.58995   0.58134   0.00000  Uiso   1.00
O3     O     0.08638   0.42197   0.41058   0.00000  Uiso   1.00
O4     O     0.89577   0.58861   0.59207   0.00000  Uiso   1.00
C45    C     0.99263   0.39441   0.38934   0.00000  Uiso   1.00
C46    C     0.98929   0.61584   0.61374   0.00000  Uiso   1.00
O5     O     0.09648   0.59177   0.40818   0.00000  Uiso   1.00
O6     O     0.88510   0.41869   0.59517   0.00000  Uiso   1.00
O7     O     0.90895   0.58958   0.42451   0.00000  Uiso   1.00
O8     O     0.07346   0.42038   0.57810   0.00000  Uiso   1.00
C47    C     0.00648   0.61776   0.38859   0.00000  Uiso   1.00
C48    C     0.97581   0.39186   0.61306   0.00000  Uiso   1.00
Zn1    Zn    0.11271   0.50820   0.49254   0.00000  Uiso   1.00
Zn2    Zn    0.86930   0.50207   0.51044   0.00000  Uiso   1.00
N5     N     0.72577   0.49898   0.52061   0.00000  Uiso   1.00
N6     N     0.25625   0.51154   0.48230   0.00000  Uiso   1.00
C49    C     0.51394   0.49492   0.53319   0.00000  Uiso   1.00
C50    C     0.46802   0.51505   0.47010   0.00000  Uiso   1.00
C51    C     0.35068   0.51310   0.47681   0.00000  Uiso   1.00
C52    C     0.63131   0.49714   0.52636   0.00000  Uiso   1.00
H25    H     0.51908   0.53306   0.41359   0.00000  Uiso   1.00
H26    H     0.46297   0.47691   0.58975   0.00000  Uiso   1.00
C53    C     0.21721   0.67254   0.26966   0.00000  Uiso   1.00
C54    C     0.27945   0.72184   0.32736   0.00000  Uiso   1.00
C55    C     0.39474   0.69511   0.32154   0.00000  Uiso   1.00
H27    H     0.39141   0.62861   0.33396   0.00000  Uiso   1.00
H28    H     0.44021   0.70874   0.26024   0.00000  Uiso   1.00
H29    H     0.43771   0.72874   0.36645   0.00000  Uiso   1.00
H30    H     0.28407   0.78757   0.31090   0.00000  Uiso   1.00
H31    H     0.23720   0.71354   0.39023   0.00000  Uiso   1.00
H32    H     0.21151   0.60616   0.28256   0.00000  Uiso   1.00
H33    H     0.26520   0.68048   0.20843   0.00000  Uiso   1.00
C56    C     0.80298   0.24844   0.63759   0.00000  Uiso   1.00
C57    C     0.69602   0.28091   0.67619   0.00000  Uiso   1.00
C58    C     0.61069   0.26749   0.62061   0.00000  Uiso   1.00
H34    H     0.63910   0.30086   0.56286   0.00000  Uiso   1.00
H35    H     0.59686   0.20131   0.60876   0.00000  Uiso   1.00
H36    H     0.53269   0.29069   0.64968   0.00000  Uiso   1.00
H37    H     0.66601   0.24829   0.73413   0.00000  Uiso   1.00
H38    H     0.70912   0.34712   0.68791   0.00000  Uiso   1.00
H39    H     0.82904   0.27448   0.57626   0.00000  Uiso   1.00
H40    H     0.78943   0.18142   0.63050   0.00000  Uiso   1.00
