# generated using pymatgen
data_ZnH21C28NO8
_symmetry_space_group_name_H-M   'P 1'
_cell_length_a   14.00730500
_cell_length_b   15.20295100
_cell_length_c   17.42813500
_cell_angle_alpha   90.00304500
_cell_angle_beta   86.26158400
_cell_angle_gamma   90.00485200
_symmetry_Int_Tables_number   1
_chemical_formula_structural   ZnH21C28NO8
_chemical_formula_sum   'Zn2 H42 C56 N2 O16'
_cell_volume   3703.46535034
_cell_formula_units_Z   2
loop_
 _symmetry_equiv_pos_site_id
 _symmetry_equiv_pos_as_xyz
  1  'x, y, z'
loop_
 _atom_site_type_symbol
 _atom_site_label
 _atom_site_symmetry_multiplicity
 _atom_site_fract_x
 _atom_site_fract_y
 _atom_site_fract_z
 _atom_site_occupancy
  Zn  Zn1  1  0.39114000  0.48150500  0.49547900  1
  Zn  Zn2  1  0.60789400  0.48111200  0.49771700  1
  H  H1  1  0.60202600  0.40185200  0.73629000  1
  H  H2  1  0.38177600  0.42124000  0.25695100  1
  H  H3  1  0.60609700  0.46015100  0.98824600  1
  H  H4  1  0.38847500  0.47746300  0.00415700  1
  H  H5  1  0.34305200  0.54961900  0.88912100  1
  H  H6  1  0.66644200  0.52195400  0.10298000  1
  H  H7  1  0.38795000  0.40845700  0.11901000  1
  H  H8  1  0.59276200  0.39007200  0.87478900  1
  H  H9  1  0.39160900  0.92496700  0.41691900  1
  H  H10  1  0.62009300  0.03790500  0.41790100  1
  H  H11  1  0.60695200  0.92493400  0.57605000  1
  H  H12  1  0.37775300  0.03767300  0.57586600  1
  H  H13  1  0.74707300  0.54866200  0.60419000  1
  H  H14  1  0.25177300  0.54695300  0.38780300  1
  H  H15  1  0.77060800  0.41325500  0.39403100  1
  H  H16  1  0.22845300  0.41653000  0.60043700  1
  H  H17  1  0.94500200  0.41903500  0.39239500  1
  H  H18  1  0.05411000  0.42145200  0.60174400  1
  H  H19  1  0.02307700  0.65577000  0.55674900  1
  H  H20  1  0.06939200  0.61605400  0.64472800  1
  H  H21  1  0.97807600  0.69994300  0.64751200  1
  H  H22  1  0.97583100  0.65472600  0.43431000  1
  H  H23  1  0.93022000  0.61589400  0.34575800  1
  H  H24  1  0.02289700  0.69838600  0.34395800  1
  H  H25  1  0.78623200  0.47143100  0.18751900  1
  H  H26  1  0.82328100  0.51577500  0.27650700  1
  H  H27  1  0.81733100  0.58689200  0.19387900  1
  H  H28  1  0.20166400  0.52779500  0.77173900  1
  H  H29  1  0.19698000  0.63706300  0.73118400  1
  H  H30  1  0.23046200  0.62374200  0.82805400  1
  H  H31  1  0.25412700  0.82760600  0.43454400  1
  H  H32  1  0.23058400  0.72129000  0.39441400  1
  H  H33  1  0.26999900  0.81050400  0.33152400  1
  H  H34  1  0.75486600  0.13437200  0.43695900  1
  H  H35  1  0.78589600  0.24082200  0.39757700  1
  H  H36  1  0.75666700  0.15225100  0.33399500  1
  H  H37  1  0.74532600  0.82860900  0.55677100  1
  H  H38  1  0.77001000  0.72216500  0.59614000  1
  H  H39  1  0.73045300  0.81070200  0.65972800  1
  H  H40  1  0.24314500  0.13466100  0.55711700  1
  H  H41  1  0.21243700  0.24116300  0.59659600  1
  H  H42  1  0.24113500  0.15235400  0.66011600  1
  C  C1  1  0.49980000  0.65382400  0.49588200  1
  C  C2  1  0.49923700  0.30882900  0.49740200  1
  C  C3  1  0.48499300  0.48319100  0.64724200  1
  C  C4  1  0.51413300  0.48106300  0.34576000  1
  C  C5  1  0.47776800  0.48316600  0.73176500  1
  C  C6  1  0.52110800  0.47910300  0.26098900  1
  C  C7  1  0.54530400  0.43604200  0.76903300  1
  C  C8  1  0.44474500  0.44484500  0.22416800  1
  C  C9  1  0.54002100  0.42937200  0.84797700  1
  C  C10  1  0.44809600  0.43766900  0.14523400  1
  C  C11  1  0.46638100  0.46988100  0.89105600  1
  C  C12  1  0.52835600  0.46494400  0.10145800  1
  C  C13  1  0.39820800  0.51622900  0.85425400  1
  C  C14  1  0.60508900  0.49815600  0.13768000  1
  C  C15  1  0.40417700  0.52559900  0.77503100  1
  C  C16  1  0.60218000  0.50693800  0.21678300  1
  C  C17  1  0.45833400  0.46612700  0.97559300  1
  C  C18  1  0.53520500  0.46007700  0.01695700  1
  C  C19  1  0.43752800  0.88828100  0.45276900  1
  C  C20  1  0.56819600  0.07452300  0.45365700  1
  C  C21  1  0.43830000  0.79741800  0.45083100  1
  C  C22  1  0.56819500  0.16538100  0.45229600  1
  C  C23  1  0.49991600  0.75087300  0.49590700  1
  C  C24  1  0.49910600  0.21182400  0.49726300  1
  C  C25  1  0.56126000  0.79740900  0.54124700  1
  C  C26  1  0.42990000  0.16527400  0.54199900  1
  C  C27  1  0.56118600  0.88828100  0.54004100  1
  C  C28  1  0.42972500  0.07439200  0.54026200  1
  C  C29  1  0.49907600  0.93341800  0.49666500  1
  C  C30  1  0.49894200  0.02931800  0.49685900  1
  C  C31  1  0.89010900  0.52688300  0.55852200  1
  C  C32  1  0.10877200  0.52595000  0.43394500  1
  C  C33  1  0.79177100  0.52000200  0.55789800  1
  C  C34  1  0.20715500  0.51923600  0.43460400  1
  C  C35  1  0.80441200  0.44529700  0.44049800  1
  C  C36  1  0.19465200  0.44730100  0.55334200  1
  C  C37  1  0.90269900  0.44948800  0.43921100  1
  C  C38  1  0.09635900  0.45102300  0.55445000  1
  C  C39  1  0.94694300  0.49174200  0.49741300  1
  C  C40  1  0.05202800  0.49185200  0.49556200  1
  C  C41  1  0.92882000  0.57037800  0.62547900  1
  C  C42  1  0.00469300  0.63947200  0.61765500  1
  C  C43  1  0.06985900  0.56821000  0.36647100  1
  C  C44  1  0.99489300  0.63823600  0.37354800  1
  C  C45  1  0.68233200  0.55269700  0.25008700  1
  C  C46  1  0.78340700  0.53028400  0.22515300  1
  C  C47  1  0.33730200  0.58624500  0.73973400  1
  C  C48  1  0.23544900  0.59380600  0.76996800  1
  C  C49  1  0.37871300  0.75312400  0.39593600  1
  C  C50  1  0.27721000  0.78016500  0.38871800  1
  C  C51  1  0.63740700  0.20983700  0.39811300  1
  C  C52  1  0.73990800  0.18225000  0.39129400  1
  C  C53  1  0.62157200  0.75311700  0.59560400  1
  C  C54  1  0.72297900  0.78071100  0.60242700  1
  C  C55  1  0.36075800  0.20968100  0.59626600  1
  C  C56  1  0.25815600  0.18240800  0.60287700  1
  N  N1  1  0.75059100  0.48114700  0.49905700  1
  N  N2  1  0.24843800  0.48174700  0.49406400  1
  O  O1  1  0.41751900  0.61252800  0.49559800  1
  O  O2  1  0.58150900  0.35007800  0.49849800  1
  O  O3  1  0.58186000  0.61218100  0.49647700  1
  O  O4  1  0.41716300  0.35041500  0.49607700  1
  O  O5  1  0.40628800  0.48180200  0.61030100  1
  O  O6  1  0.59261000  0.47973100  0.38292900  1
  O  O7  1  0.57067800  0.48194100  0.61202400  1
  O  O8  1  0.42851200  0.48104800  0.38118500  1
  O  O9  1  0.89215100  0.55487100  0.68941700  1
  O  O10  1  0.10599200  0.55117500  0.30266400  1
  O  O11  1  0.66666667  0.61308600  0.29524000  1
  O  O12  1  0.36559100  0.63356300  0.68650300  1
  O  O13  1  0.41333700  0.69646800  0.35307600  1
  O  O14  1  0.61049000  0.26701000  0.35543100  1
  O  O15  1  0.58763100  0.69612400  0.63843100  1
  O  O16  1  0.38776600  0.26671800  0.63905400  1
