# generated using pymatgen
data_Zn2H27C50Br3(N3O4)2
_symmetry_space_group_name_H-M   'P 1'
_cell_length_a   13.26273600
_cell_length_b   13.83925800
_cell_length_c   16.05810400
_cell_angle_alpha   94.57363300
_cell_angle_beta   90.04652800
_cell_angle_gamma   90.64658800
_symmetry_Int_Tables_number   1
_chemical_formula_structural   Zn2H27C50Br3(N3O4)2
_chemical_formula_sum   'Zn2 H27 C50 Br3 N6 O8'
_cell_volume   2937.83068204
_cell_formula_units_Z   1
loop_
 _symmetry_equiv_pos_site_id
 _symmetry_equiv_pos_as_xyz
  1  'x, y, z'
loop_
 _atom_site_type_symbol
 _atom_site_label
 _atom_site_symmetry_multiplicity
 _atom_site_fract_x
 _atom_site_fract_y
 _atom_site_fract_z
 _atom_site_occupancy
  Zn  Zn1  1  0.53041000  0.89721700  0.49120500  1
  Zn  Zn2  1  0.46648200  0.10388700  0.50838600  1
  H  H1  1  0.70469300  0.15376900  0.01905800  1
  H  H2  1  0.01985300  0.03740500  0.72405900  1
  H  H3  1  0.29253500  0.84416600  0.98090900  1
  H  H4  1  0.98688000  0.97692100  0.28004800  1
  H  H5  1  0.97475900  0.07853500  0.95565800  1
  H  H6  1  0.02289600  0.92256400  0.04462500  1
  H  H7  1  0.38545900  0.86855400  0.09999500  1
  H  H8  1  0.16814800  0.99926000  0.33313000  1
  H  H9  1  0.82463300  0.98748200  0.33615500  1
  H  H10  1  0.55639900  0.13661700  0.27474100  1
  H  H11  1  0.62433100  0.16774300  0.13950200  1
  H  H12  1  0.61282200  0.12986900  0.90017200  1
  H  H13  1  0.17510500  0.01553500  0.66494600  1
  H  H14  1  0.44441200  0.86951900  0.72704900  1
  H  H15  1  0.37609800  0.83644700  0.86190300  1
  H  H16  1  0.45508100  0.89885900  0.24038800  1
  H  H17  1  0.54261700  0.10194100  0.75999500  1
  H  H18  1  0.39612800  0.47044000  0.61506800  1
  H  H19  1  0.58981100  0.57452900  0.61479600  1
  H  H20  1  0.57396800  0.41220300  0.61240200  1
  H  H21  1  0.63602200  0.39441400  0.51241000  1
  H  H22  1  0.47302900  0.57097100  0.36430100  1
  H  H23  1  0.59952000  0.53118500  0.37952200  1
  H  H24  1  0.40795800  0.42297000  0.38387300  1
  H  H25  1  0.36153800  0.60178400  0.48128800  1
  H  H26  1  0.31934600  0.45397400  0.52177800  1
  H  H27  1  0.53563000  0.37894400  0.38160600  1
  C  C1  1  0.82078500  0.05092100  0.21776900  1
  C  C2  1  0.76434300  0.09668300  0.16259200  1
  C  C3  1  0.81649100  0.09331500  0.08841000  1
  C  C4  1  0.90954700  0.02522300  0.17775300  1
  C  C5  1  0.77806800  0.12093500  0.01690900  1
  C  C6  1  0.81814900  0.09382400  0.93293900  1
  C  C7  1  0.76097300  0.08441200  0.86078700  1
  C  C8  1  0.82201400  0.05117800  0.79652300  1
  C  C9  1  0.91787600  0.04336800  0.83181500  1
  C  C10  1  0.01293500  0.02025700  0.78813300  1
  C  C11  1  0.09053300  0.97821900  0.82371000  1
  C  C12  1  0.17959700  0.95340000  0.78397800  1
  C  C13  1  0.23535000  0.90612100  0.83852600  1
  C  C14  1  0.18201600  0.90708300  0.91200400  1
  C  C15  1  0.21936700  0.87744300  0.98303000  1
  C  C16  1  0.17942800  0.90476400  0.06687500  1
  C  C17  1  0.23723300  0.91457500  0.13861900  1
  C  C18  1  0.17683800  0.94908800  0.20245300  1
  C  C19  1  0.08135100  0.95820100  0.16808100  1
  C  C20  1  0.98881400  0.98603000  0.21373800  1
  C  C21  1  0.33739600  0.89605200  0.15047600  1
  C  C22  1  0.37621500  0.91286900  0.23005600  1
  C  C23  1  0.31718500  0.95092100  0.29600200  1
  C  C24  1  0.21533400  0.97004800  0.28258400  1
  C  C25  1  0.78285800  0.02928900  0.29408800  1
  C  C26  1  0.68620500  0.06006200  0.31364100  1
  C  C27  1  0.63212500  0.11337200  0.25935600  1
  C  C28  1  0.66995800  0.13065300  0.18230500  1
  C  C29  1  0.66072900  0.10308000  0.84935000  1
  C  C30  1  0.62151600  0.08767900  0.76990100  1
  C  C31  1  0.68003200  0.05000700  0.70364400  1
  C  C32  1  0.78193300  0.03029800  0.71619100  1
  C  C33  1  0.21703300  0.97446200  0.70743600  1
  C  C34  1  0.31305100  0.94288700  0.68737400  1
  C  C35  1  0.36829600  0.89159200  0.74232700  1
  C  C36  1  0.33030300  0.87341500  0.81913400  1
  C  C37  1  0.36844000  0.96901300  0.37732100  1
  C  C38  1  0.63437100  0.03579100  0.38888900  1
  C  C39  1  0.62826500  0.03199900  0.62244200  1
  C  C40  1  0.36308400  0.96570400  0.61107800  1
  C  C41  1  0.41661100  0.58013900  0.52816800  1
  C  C42  1  0.59752200  0.54249300  0.54975500  1
  C  C43  1  0.57575100  0.43466600  0.54764800  1
  C  C44  1  0.52292300  0.58813200  0.49284100  1
  C  C45  1  0.39482200  0.47638300  0.54660400  1
  C  C46  1  0.47479700  0.41211100  0.50537800  1
  C  C47  1  0.48323900  0.43138100  0.41386500  1
  C  C48  1  0.52284300  0.53374300  0.40676900  1
  C  C49  1  0.44942300  0.30983100  0.51253400  1
  C  C50  1  0.54783300  0.69093800  0.48631000  1
  Br  Br1  1  0.85848100  0.97499800  0.62378700  1
  Br  Br2  1  0.39878800  0.66381400  0.62919700  1
  Br  Br3  1  0.73551000  0.56482400  0.51605500  1
  N  N1  1  0.90616700  0.04968200  0.09763700  1
  N  N2  1  0.91399600  0.07020500  0.91459600  1
  N  N3  1  0.09243900  0.95093300  0.90294900  1
  N  N4  1  0.08390900  0.93001700  0.08547200  1
  N  N5  1  0.43664900  0.22745800  0.51648800  1
  N  N6  1  0.56020400  0.77357500  0.48297900  1
  O  O1  1  0.37406200  0.05784800  0.41308300  1
  O  O2  1  0.42402100  0.89856600  0.40164700  1
  O  O3  1  0.62825700  0.94493500  0.40715100  1
  O  O4  1  0.57830400  0.10428600  0.42395900  1
  O  O5  1  0.62257300  0.94312500  0.58666900  1
  O  O6  1  0.57276000  0.10257200  0.59806900  1
  O  O7  1  0.36883700  0.05636000  0.59258200  1
  O  O8  1  0.41870400  0.89688900  0.57577800  1
