# Generated by REPEAT Assigner based on pymatgen
data_DB0-m2_o16_o25_f0_pcu.sym.8_sqe
_audit_creation_date              2022-05-24
_audit_creation_method            REPEAT_Assigner
_cell_length_a                    12.214218
_cell_length_b                    13.448574
_cell_length_c                    15.883041
_cell_angle_alpha                 78.542277
_cell_angle_beta                  102.489677
_cell_angle_gamma                 116.354578
_cell_volume                      2266.750823
_symmetry_space_group_name_H-M    P1
_symmetry_Int_Tables_number       1
loop_
    _symmetry_equiv_pos_site_id
    _symmetry_equiv_pos_as_xyz
    1  x,y,z
loop_
    _atom_site_type_symbol
    _atom_site_label
    _atom_site_fract_x
    _atom_site_fract_y
    _atom_site_fract_z
    _atom_type_partial_charge
    O   O1   0.972374  0.320462  0.524216  -0.597312
    O   O2   0.807612  0.364751  0.505779  -0.496479
    C   C1   0.853138  0.291010  0.515851  0.649832
    O   O3   0.088886  0.474730  0.641870  -0.655006
    O   O4   0.930640  0.530462  0.614120  -0.623802
    C   C2   0.013089  0.503288  0.667675  0.869748
    Cu  Cu1  0.096225  0.475255  0.520082  0.913239
    Cu  Cu2  0.902084  0.526559  0.488800  0.787263
    O   O5   0.192129  0.636945  0.505136  -0.574328
    O   O6   0.025532  0.681478  0.481212  -0.573693
    O   O7   0.071028  0.475324  0.394463  -0.634412
    O   O8   0.906980  0.523865  0.367122  -0.628530
    C   C3   0.144718  0.710193  0.489244  0.667915
    C   C4   0.986227  0.499617  0.341136  0.860631
    C   C5   0.982095  0.402318  0.047213  -0.106190
    C   C6   0.896308  0.425228  0.968799  -0.204472
    H   H1   0.810705  0.361535  0.937037  0.082099
    H   H2   0.966949  0.319688  0.084999  0.057717
    H   H3   0.827643  0.543620  0.010693  0.064078
    C   C7   0.016936  0.502253  0.758804  -0.187015
    C   C8   0.982425  0.500845  0.249986  -0.201350
    C   C9   0.093681  0.478822  0.002070  -0.191141
    C   C10  0.007792  0.501722  0.925253  0.699542
    C   C11  0.103181  0.578241  0.039951  -0.143342
    C   C12  0.991693  0.501735  0.083495  0.643359
    C   C13  0.017395  0.601151  0.961527  -0.163089
    C   C14  0.905805  0.524647  0.006677  -0.153574
    C   C15  0.014890  0.501839  0.834409  -0.368372
    C   C16  0.984546  0.501446  0.174363  -0.346527
    H   H4   0.032535  0.683777  0.923733  0.071110
    H   H5   0.188804  0.641939  0.071698  0.065320
    H   H6   0.171833  0.459840  0.998046  0.068508
    C   C17  0.265270  0.011974  0.405723  -0.248431
    H   H7   0.086881  0.877944  0.403665  0.107851
    H   H8   0.432104  0.207321  0.360593  0.127244
    H   H9   0.229997  0.069465  0.365783  0.129974
    C   C18  0.228753  0.828750  0.474769  -0.081918
    C   C19  0.818223  0.099848  0.575732  -0.049616
    C   C20  0.743850  0.989315  0.595648  -0.133267
    C   C21  0.619096  0.947520  0.567189  -0.146059
    C   C22  0.565754  0.015246  0.514380  0.029392
    C   C23  0.642999  0.127052  0.491010  0.195558
    C   C24  0.437578  0.974503  0.484470  -0.010360
    C   C25  0.390548  0.046557  0.432753  0.235702
    C   C26  0.468440  0.153293  0.404913  -0.222360
    C   C27  0.593157  0.192107  0.431368  -0.196820
    C   C28  0.354159  0.863831  0.503772  -0.114815
    C   C29  0.184207  0.903915  0.427531  -0.071730
    C   C30  0.769281  0.170692  0.525405  -0.183427
    H   H10  0.382873  0.801560  0.541102  0.099683
    H   H11  0.914855  0.130874  0.602882  0.107011
    H   H12  0.567982  0.860756  0.588302  0.127471
    H   H13  0.783158  0.935132  0.636339  0.110050
    H   H14  0.649036  0.273610  0.401874  0.135167
    C   C31  0.345457  0.336182  0.635548  -0.240677
    H   H15  0.166055  0.314833  0.645534  0.159935
    H   H16  0.342192  0.272628  0.689597  0.112193
    N   N1   0.242219  0.437290  0.543778  -0.068376
    C   C32  0.757033  0.640127  0.396693  -0.000503
    C   C33  0.658578  0.667613  0.368765  -0.161456
    C   C34  0.555645  0.615095  0.409558  -0.111993
    C   C35  0.550884  0.533786  0.479951  0.066604
    C   C36  0.653811  0.509132  0.506983  0.153034
    C   C37  0.446386  0.475787  0.523653  -0.106416
    C   C38  0.447071  0.394171  0.592555  0.288591
    C   C39  0.549759  0.372073  0.619205  -0.083059
    C   C40  0.650785  0.429416  0.577582  -0.112880
    C   C41  0.340604  0.496778  0.501385  -0.003537
    C   C42  0.244232  0.359418  0.610635  -0.021459
    N   N2   0.755751  0.563164  0.465539  -0.079628
    H   H17  0.333090  0.560335  0.450698  0.116472
    H   H18  0.836169  0.681494  0.362602  0.143878
    H   H19  0.481838  0.640208  0.383080  0.129127
    H   H20  0.661496  0.730100  0.313646  0.124529
    H   H21  0.726641  0.408471  0.603883  0.144937
    Cl  Cl1  0.558484  0.272186  0.707175  -0.047341
