# generated using pymatgen
data_Fe2H20C42O17
_symmetry_space_group_name_H-M   'P 1'
_cell_length_a   15.83737000
_cell_length_b   12.86925100
_cell_length_c   13.33078700
_cell_angle_alpha   110.78843100
_cell_angle_beta   88.20789100
_cell_angle_gamma   114.39080100
_symmetry_Int_Tables_number   1
_chemical_formula_structural   Fe2H20C42O17
_chemical_formula_sum   'Fe2 H20 C42 O17'
_cell_volume   2292.11746200
_cell_formula_units_Z   1
loop_
 _symmetry_equiv_pos_site_id
 _symmetry_equiv_pos_as_xyz
  1  'x, y, z'
loop_
 _atom_site_type_symbol
 _atom_site_label
 _atom_site_symmetry_multiplicity
 _atom_site_fract_x
 _atom_site_fract_y
 _atom_site_fract_z
 _atom_site_occupancy
  Fe  Fe1  1  0.50919900  0.02045000  0.22262300  1
  Fe  Fe2  1  0.48725000  0.97291400  0.77065800  1
  H  H1  1  0.17806800  0.00655100  0.84188400  1
  H  H2  1  0.23232500  0.00113100  0.19839800  1
  H  H3  1  0.06896800  0.04462400  0.81700300  1
  H  H4  1  0.92356200  0.02892900  0.76769700  1
  H  H5  1  0.08504500  0.99037200  0.23679400  1
  H  H6  1  0.94107100  0.98748600  0.19381000  1
  H  H7  1  0.82414900  0.00705400  0.15943000  1
  H  H8  1  0.53321300  0.54151500  0.70466300  1
  H  H9  1  0.53166000  0.43804800  0.40379200  1
  H  H10  1  0.44029400  0.55299200  0.58950900  1
  H  H11  1  0.42759800  0.43727700  0.28932200  1
  H  H12  1  0.53255600  0.13573800  0.52992300  1
  H  H13  1  0.54234700  0.43112400  0.81525400  1
  H  H14  1  0.45553600  0.85770800  0.45579900  1
  H  H15  1  0.42451900  0.54638400  0.17394500  1
  H  H16  1  0.64850400  0.78622200  0.70655800  1
  H  H17  1  0.75731200  0.79690000  0.75465300  1
  H  H18  1  0.82959600  0.84640600  0.60211300  1
  H  H19  1  0.72300600  0.70537900  0.55352000  1
  H  H20  1  0.72428700  0.84693600  0.55424600  1
  C  C1  1  0.28813700  0.01019700  0.05322700  1
  C  C2  1  0.27196600  0.01106500  0.95195500  1
  C  C3  1  0.18870800  0.01091500  0.92255100  1
  C  C4  1  0.21961900  0.00251900  0.11980700  1
  C  C5  1  0.13743300  0.00341100  0.09050600  1
  C  C6  1  0.12108400  0.01086800  0.99282500  1
  C  C7  1  0.03690900  0.01461500  0.96734300  1
  C  C8  1  0.01916400  0.02815900  0.87254000  1
  C  C9  1  0.93431500  0.02048600  0.84347900  1
  C  C10  1  0.07207000  0.99721200  0.16077000  1
  C  C11  1  0.98884300  0.99689100  0.13519100  1
  C  C12  1  0.96937700  0.00617400  0.03849500  1
  C  C13  1  0.88325300  0.00396600  0.00997600  1
  C  C14  1  0.86543000  0.00423900  0.90936500  1
  C  C15  1  0.77779400  0.98530200  0.87205300  1
  C  C16  1  0.81346600  0.99966100  0.07769300  1
  C  C17  1  0.72828900  0.99266500  0.04468700  1
  C  C18  1  0.71007700  0.98369500  0.93989900  1
  C  C19  1  0.65966500  0.99482500  0.12251200  1
  C  C20  1  0.45401300  0.78865800  0.24451300  1
  C  C21  1  0.37804800  0.02611200  0.09679700  1
  C  C22  1  0.50454000  0.21530000  0.38942000  1
  C  C23  1  0.48478400  0.78506200  0.59724500  1
  C  C24  1  0.61953500  0.96629300  0.89552400  1
  C  C25  1  0.53042900  0.19795800  0.74277500  1
  C  C26  1  0.33904500  0.00637700  0.87266800  1
  C  C27  1  0.53501800  0.22632200  0.56977500  1
  C  C28  1  0.52774000  0.28674700  0.50582600  1
  C  C29  1  0.52239500  0.39826600  0.55252400  1
  C  C30  1  0.53220700  0.45179800  0.66480500  1
  C  C31  1  0.53916300  0.39014500  0.72846400  1
  C  C32  1  0.53766000  0.27495900  0.68066100  1
  C  C33  1  0.50721500  0.45716700  0.48209300  1
  C  C34  1  0.46429800  0.53191800  0.51106200  1
  C  C35  1  0.45244600  0.70575100  0.48357500  1
  C  C36  1  0.44757300  0.76424700  0.41738100  1
  C  C37  1  0.44083300  0.71058800  0.30667400  1
  C  C38  1  0.43095000  0.59111400  0.26079500  1
  C  C39  1  0.43444100  0.53031200  0.32694500  1
  C  C40  1  0.44961800  0.58932100  0.43915800  1
  C  C41  1  0.72545700  0.83389300  0.71129100  1
  C  C42  1  0.75234200  0.80647200  0.59784300  1
  O  O1  1  0.59552300  0.03175900  0.11222900  1
  O  O2  1  0.43911400  0.74350600  0.13829700  1
  O  O3  1  0.66487300  0.96426300  0.20534400  1
  O  O4  1  0.48815100  0.90772700  0.29986300  1
  O  O5  1  0.38005000  0.95567200  0.14676400  1
  O  O6  1  0.45489000  0.12186100  0.10053700  1
  O  O7  1  0.56952700  0.19197100  0.33480500  1
  O  O8  1  0.41660200  0.13820800  0.35316000  1
  O  O9  1  0.42354300  0.79904100  0.66310900  1
  O  O10  1  0.56799200  0.87726800  0.61894500  1
  O  O11  1  0.61680300  0.03624200  0.84502600  1
  O  O12  1  0.54272000  0.87182800  0.89425800  1
  O  O13  1  0.33190400  0.03271100  0.78774400  1
  O  O14  1  0.50921100  0.08103600  0.68836700  1
  O  O15  1  0.40289000  0.96928600  0.88341500  1
  O  O16  1  0.53604900  0.24111600  0.84874200  1
  O  O17  1  0.75617800  0.96142500  0.76504200  1
