# generated using pymatgen
data_CuH25C36(N3O2)2
_symmetry_space_group_name_H-M   'P 1'
_cell_length_a   19.32397500
_cell_length_b   12.98741600
_cell_length_c   11.52714200
_cell_angle_alpha   99.72252800
_cell_angle_beta   94.23877000
_cell_angle_gamma   89.99872900
_symmetry_Int_Tables_number   1
_chemical_formula_structural   CuH25C36(N3O2)2
_chemical_formula_sum   'Cu2 H50 C72 N12 O8'
_cell_volume   2843.37061567
_cell_formula_units_Z   2
loop_
 _symmetry_equiv_pos_site_id
 _symmetry_equiv_pos_as_xyz
  1  'x, y, z'
loop_
 _atom_site_type_symbol
 _atom_site_label
 _atom_site_symmetry_multiplicity
 _atom_site_fract_x
 _atom_site_fract_y
 _atom_site_fract_z
 _atom_site_occupancy
  Cu  Cu1  1  0.49933100  0.50825100  0.61980800  1
  Cu  Cu2  1  0.48772900  0.49303400  0.38494000  1
  H  H1  1  0.15032800  0.59156400  0.66364000  1
  H  H2  1  0.83293300  0.49413900  0.31936400  1
  H  H3  1  0.27156600  0.41498700  0.32878400  1
  H  H4  1  0.71812700  0.51055900  0.68764700  1
  H  H5  1  0.48841600  0.81687300  0.34814100  1
  H  H6  1  0.49891200  0.18460000  0.65637700  1
  H  H7  1  0.50166700  0.84243400  0.72519800  1
  H  H8  1  0.48594900  0.16070900  0.28149900  1
  H  H9  1  0.48594500  0.96896100  0.26108000  1
  H  H10  1  0.50224800  0.03217400  0.74340600  1
  H  H11  1  0.42893000  0.40768000  0.79055500  1
  H  H12  1  0.55885700  0.59358500  0.21195500  1
  H  H13  1  0.58655000  0.63279500  0.81740800  1
  H  H14  1  0.39774800  0.37396000  0.18872900  1
  H  H15  1  0.31096800  0.67430800  0.67825600  1
  H  H16  1  0.27811200  0.78717100  0.84554700  1
  H  H17  1  0.22842000  0.81028200  0.03676300  1
  H  H18  1  0.18210600  0.65920900  0.10992400  1
  H  H19  1  0.18637900  0.48324200  0.99145300  1
  H  H20  1  0.23621700  0.45822500  0.79997200  1
  H  H21  1  0.70985400  0.55467100  0.25003100  1
  H  H22  1  0.73159900  0.47623400  0.06392100  1
  H  H23  1  0.75421500  0.31626900  0.92770000  1
  H  H24  1  0.74806900  0.14561500  0.99156700  1
  H  H25  1  0.71827500  0.13478100  0.19266900  1
  H  H26  1  0.69451600  0.29359300  0.33040400  1
  H  H27  1  0.33551000  0.38305500  0.91587600  1
  H  H28  1  0.24303000  0.29694700  0.97944900  1
  H  H29  1  0.20035900  0.14424900  0.05134900  1
  H  H30  1  0.28198400  0.01394800  0.11015100  1
  H  H31  1  0.40732900  0.03812500  0.09609300  1
  H  H32  1  0.45058300  0.19001500  0.02150100  1
  H  H33  1  0.65612600  0.63094600  0.05291900  1
  H  H34  1  0.72057000  0.77401100  0.02525900  1
  H  H35  1  0.72296200  0.94916800  0.97608800  1
  H  H36  1  0.61406300  0.04391700  0.94919900  1
  H  H37  1  0.50242400  0.96220600  0.97376000  1
  H  H38  1  0.49890900  0.78700200  0.02411100  1
  H  H39  1  0.10993600  0.43968800  0.24419400  1
  H  H40  1  0.02303700  0.31237400  0.17751700  1
  H  H41  1  0.96845000  0.14598700  0.19356600  1
  H  H42  1  0.02084200  0.03569500  0.32923200  1
  H  H43  1  0.13006000  0.09208000  0.44657600  1
  H  H44  1  0.18574800  0.25644500  0.43073100  1
  H  H45  1  0.83382500  0.46223000  0.77019900  1
  H  H46  1  0.85830500  0.55909200  0.95500100  1
  H  H47  1  0.87079400  0.73157500  0.07663800  1
  H  H48  1  0.87882100  0.88825900  0.98451500  1
  H  H49  1  0.87435500  0.87103800  0.76819400  1
  H  H50  1  0.86305800  0.70059100  0.64462900  1
  C  C1  1  0.49206500  0.30015100  0.48098300  1
  C  C2  1  0.49483800  0.70103600  0.52409700  1
  C  C3  1  0.36023300  0.50244100  0.50346200  1
  C  C4  1  0.62684500  0.49929900  0.50105400  1
  C  C5  1  0.25013000  0.54941300  0.60012600  1
  C  C6  1  0.73716600  0.49477800  0.39713200  1
  C  C7  1  0.17804200  0.54878100  0.59316800  1
  C  C8  1  0.80879500  0.49698100  0.40156700  1
  C  C9  1  0.13962200  0.49833200  0.49375700  1
  C  C10  1  0.84864500  0.50257300  0.50726000  1
  C  C11  1  0.17420800  0.44978900  0.39766100  1
  C  C12  1  0.81494500  0.50906100  0.61111200  1
  C  C13  1  0.24569800  0.45375000  0.40349400  1
  C  C14  1  0.74313500  0.50642800  0.60630400  1
  C  C15  1  0.28403500  0.50214300  0.50359500  1
  C  C16  1  0.70335100  0.49995700  0.50032000  1
  C  C17  1  0.92512500  0.50221400  0.50511800  1
  C  C18  1  0.06356700  0.49791000  0.49596700  1
  C  C19  1  0.49528900  0.81527800  0.53548000  1
  C  C20  1  0.49174900  0.18566600  0.46977400  1
  C  C21  1  0.48846600  0.01672500  0.34798500  1
  C  C22  1  0.49941300  0.98440100  0.65672300  1
  C  C23  1  0.48837100  0.12436900  0.35928000  1
  C  C24  1  0.49916200  0.87699900  0.64609200  1
  C  C25  1  0.49577100  0.13839700  0.56886900  1
  C  C26  1  0.49160700  0.86251500  0.43602900  1
  C  C27  1  0.49578500  0.03093200  0.55743100  1
  C  C28  1  0.49192800  0.96997300  0.44724100  1
  C  C29  1  0.42665100  0.40521500  0.02077700  1
  C  C30  1  0.55790500  0.59689700  0.98284700  1
  C  C31  1  0.43206600  0.41588000  0.14320800  1
  C  C32  1  0.55267900  0.58809800  0.86133600  1
  C  C33  1  0.52154500  0.54031700  0.15757700  1
  C  C34  1  0.46455400  0.46162500  0.84643100  1
  C  C35  1  0.51652500  0.53447700  0.03621200  1
  C  C36  1  0.46906600  0.46688100  0.96762700  1
  C  C37  1  0.25884000  0.62148000  0.80773600  1
  C  C38  1  0.25756300  0.71982200  0.87596700  1
  C  C39  1  0.22962700  0.73318900  0.98395100  1
  C  C40  1  0.20366100  0.64844600  0.02501600  1
  C  C41  1  0.20600100  0.54992500  0.95856100  1
  C  C42  1  0.23388500  0.53623000  0.85046100  1
  C  C43  1  0.71266600  0.39660600  0.20747800  1
  C  C44  1  0.72851400  0.40178500  0.09351100  1
  C  C45  1  0.74139300  0.31177000  0.01642000  1
  C  C46  1  0.73798100  0.21606200  0.05223600  1
  C  C47  1  0.72131200  0.21013600  0.16513700  1
  C  C48  1  0.70843600  0.30007100  0.24269000  1
  C  C49  1  0.34992500  0.25453000  0.99721700  1
  C  C50  1  0.27957300  0.24033800  0.00429600  1
  C  C51  1  0.25532200  0.15402500  0.04451700  1
  C  C52  1  0.30111100  0.08104400  0.07725100  1
  C  C53  1  0.37127700  0.09469300  0.06973100  1
  C  C54  1  0.39567600  0.18076200  0.02899500  1
  C  C55  1  0.60932300  0.76614300  0.02287500  1
  C  C56  1  0.67211100  0.81366300  0.01224200  1
  C  C57  1  0.67368200  0.91294800  0.98517800  1
  C  C58  1  0.61276700  0.96594200  0.97032300  1
  C  C59  1  0.55017500  0.92007300  0.98384200  1
  C  C60  1  0.54834200  0.82068700  0.01080800  1
  C  C61  1  0.10705900  0.29861400  0.30574900  1
  C  C62  1  0.04653500  0.26529600  0.23812000  1
  C  C63  1  0.01559100  0.17141900  0.24699400  1
  C  C64  1  0.04501800  0.10960900  0.32287300  1
  C  C65  1  0.10601200  0.14130600  0.38876200  1
  C  C66  1  0.13712700  0.23512000  0.38017600  1
  C  C67  1  0.85821300  0.61626800  0.79066800  1
  C  C68  1  0.86125900  0.62690200  0.91242100  1
  C  C69  1  0.86861700  0.72425200  0.98159800  1
  C  C70  1  0.87306600  0.81195500  0.92996200  1
  C  C71  1  0.87051000  0.80220900  0.80882600  1
  C  C72  1  0.86347400  0.70488500  0.73905000  1
  N  N1  1  0.02208500  0.50154500  0.39792700  1
  N  N2  1  0.96682700  0.49951800  0.60335900  1
  N  N3  1  0.95392100  0.50340800  0.40246900  1
  N  N4  1  0.03501300  0.49786800  0.59888400  1
  N  N5  1  0.50717700  0.51961200  0.79555400  1
  N  N6  1  0.47968000  0.48129100  0.20897100  1
  N  N7  1  0.28918000  0.60778200  0.69822600  1
  N  N8  1  0.70003200  0.48954400  0.28627400  1
  N  N9  1  0.37441000  0.34082400  0.95083200  1
  N  N10  1  0.60800000  0.66455100  0.05173100  1
  N  N11  1  0.13907300  0.39418600  0.29369300  1
  N  N12  1  0.85242300  0.51471700  0.72215400  1
  O  O1  1  0.49947900  0.35565800  0.58718900  1
  O  O2  1  0.48713300  0.64557700  0.41804600  1
  O  O3  1  0.48504200  0.34268800  0.38518600  1
  O  O4  1  0.50192200  0.65848700  0.61947200  1
  O  O5  1  0.39761800  0.50493800  0.60348800  1
  O  O6  1  0.58922200  0.49010300  0.40074400  1
  O  O7  1  0.38811000  0.49135600  0.40173800  1
  O  O8  1  0.59876300  0.50316300  0.60200500  1
