# generated using pymatgen
data_ZnH9C20NO4F
_symmetry_space_group_name_H-M   'P 1'
_cell_length_a   14.25871900
_cell_length_b   8.53472100
_cell_length_c   10.78600200
_cell_angle_alpha   90.00000000
_cell_angle_beta   90.90610300
_cell_angle_gamma   90.00000000
_symmetry_Int_Tables_number   1
_chemical_formula_structural   ZnH9C20NO4F
_chemical_formula_sum   'Zn2 H18 C40 N2 O8 F2'
_cell_volume   1312.42962537
_cell_formula_units_Z   2
loop_
 _symmetry_equiv_pos_site_id
 _symmetry_equiv_pos_as_xyz
  1  'x, y, z'
loop_
 _atom_site_type_symbol
 _atom_site_label
 _atom_site_symmetry_multiplicity
 _atom_site_fract_x
 _atom_site_fract_y
 _atom_site_fract_z
 _atom_site_occupancy
  Zn  Zn1  1  0.89636900  0.45323900  0.01613000  1
  Zn  Zn2  1  0.10363100  0.45323900  0.98387000  1
  H  H1  1  0.99058400  0.56355600  0.61083000  1
  H  H2  1  0.00941600  0.56355600  0.38917000  1
  H  H3  1  0.98929300  0.20755100  0.40585600  1
  H  H4  1  0.01070700  0.20755100  0.59414500  1
  H  H5  1  0.95317200  0.95051000  0.91539600  1
  H  H6  1  0.04682800  0.95051000  0.08460400  1
  H  H7  1  0.56444000  0.23246300  0.90325200  1
  H  H8  1  0.43556000  0.23246300  0.09674800  1
  H  H9  1  0.45675900  0.46430300  0.78071100  1
  H  H10  1  0.54324100  0.46430300  0.21928900  1
  H  H11  1  0.43399800  0.76089800  0.78723000  1
  H  H12  1  0.48286900  0.99450900  0.67228300  1
  H  H13  1  0.75142100  0.97427600  0.84980600  1
  H  H14  1  0.70313200  0.74360500  0.96588100  1
  H  H15  1  0.56600200  0.76089800  0.21277000  1
  H  H16  1  0.51713100  0.99450900  0.32771700  1
  H  H17  1  0.24857900  0.97427600  0.15019400  1
  H  H18  1  0.29686900  0.74360500  0.03411900  1
  C  C1  1  0.99526100  0.95606100  0.56449300  1
  C  C2  1  0.00473900  0.95606100  0.43550700  1
  C  C3  1  0.98952200  0.81420700  0.62761700  1
  C  C4  1  0.01047800  0.81420600  0.37238300  1
  C  C5  1  0.99505800  0.67466600  0.56333000  1
  C  C6  1  0.00494200  0.67466600  0.43667000  1
  C  C7  1  0.02306500  0.81321900  0.24500500  1
  C  C8  1  0.97693500  0.81321900  0.75499500  1
  C  C9  1  0.03542400  0.95186100  0.18311100  1
  C  C10  1  0.96457600  0.95186100  0.81688900  1
  C  C11  1  0.02208600  0.09183700  0.24225200  1
  C  C12  1  0.97791400  0.09183700  0.75774800  1
  C  C13  1  0.00439500  0.09463400  0.36699900  1
  C  C14  1  0.99560500  0.09463300  0.63300100  1
  C  C15  1  0.01544100  0.67160800  0.16900000  1
  C  C16  1  0.98455900  0.67160800  0.83100000  1
  C  C17  1  0.98490300  0.23356700  0.83269900  1
  C  C18  1  0.01509700  0.23356700  0.16730100  1
  C  C19  1  0.46567700  0.33831900  0.05325300  1
  C  C20  1  0.53432300  0.33831900  0.94674700  1
  C  C21  1  0.52326900  0.46433400  0.11949800  1
  C  C22  1  0.47673100  0.46433400  0.88050200  1
  C  C23  1  0.59061100  0.46438000  0.01261800  1
  C  C24  1  0.40938900  0.46438000  0.98738200  1
  C  C25  1  0.46584000  0.58949200  0.05264500  1
  C  C26  1  0.53416000  0.58949200  0.94735500  1
  C  C27  1  0.69286500  0.45769700  0.02545800  1
  C  C28  1  0.30713600  0.45769700  0.97454200  1
  C  C29  1  0.56559000  0.73424000  0.88229600  1
  C  C30  1  0.50390700  0.80735800  0.80111000  1
  C  C31  1  0.53129300  0.93843000  0.73638000  1
  C  C32  1  0.62050300  0.99752200  0.75298900  1
  C  C33  1  0.68178300  0.92677200  0.83566900  1
  C  C34  1  0.65448500  0.79558300  0.90049900  1
  C  C35  1  0.43441000  0.73424000  0.11770400  1
  C  C36  1  0.49609300  0.80735800  0.19889000  1
  C  C37  1  0.46870700  0.93843000  0.26362000  1
  C  C38  1  0.37949700  0.99752200  0.24701100  1
  C  C39  1  0.31821700  0.92677200  0.16433100  1
  C  C40  1  0.34551500  0.79558300  0.09950100  1
  N  N1  1  0.77391300  0.45355700  0.03183100  1
  N  N2  1  0.22608700  0.45355700  0.96816900  1
  O  O1  1  0.09076700  0.62251500  0.11274800  1
  O  O2  1  0.90923300  0.62251500  0.88725200  1
  O  O3  1  0.93119900  0.61677000  0.14375700  1
  O  O4  1  0.06880100  0.61677000  0.85624300  1
  O  O5  1  0.90911600  0.28335100  0.88776000  1
  O  O6  1  0.09088400  0.28335100  0.11224000  1
  O  O7  1  0.06901500  0.28968000  0.85632100  1
  O  O8  1  0.93098500  0.28968000  0.14367900  1
  F  F1  1  0.64757300  0.12613500  0.68916900  1
  F  F2  1  0.35242800  0.12613500  0.31083100  1
