# generated using pymatgen
data_Fe2H18(C3O)17
_symmetry_space_group_name_H-M   'P 1'
_cell_length_a   15.75024900
_cell_length_b   14.62791900
_cell_length_c   11.09665700
_cell_angle_alpha   93.90426900
_cell_angle_beta   87.95620400
_cell_angle_gamma   107.78448500
_symmetry_Int_Tables_number   1
_chemical_formula_structural   Fe2H18(C3O)17
_chemical_formula_sum   'Fe2 H18 C51 O17'
_cell_volume   2428.47471100
_cell_formula_units_Z   1
loop_
 _symmetry_equiv_pos_site_id
 _symmetry_equiv_pos_as_xyz
  1  'x, y, z'
loop_
 _atom_site_type_symbol
 _atom_site_label
 _atom_site_symmetry_multiplicity
 _atom_site_fract_x
 _atom_site_fract_y
 _atom_site_fract_z
 _atom_site_occupancy
  Fe  Fe1  1  0.52056700  0.99419900  0.21829500  1
  Fe  Fe2  1  0.52219300  0.00517900  0.68467800  1
  H  H1  1  0.93888900  0.03298000  0.77046600  1
  H  H2  1  0.18982900  0.99009200  0.76000500  1
  H  H3  1  0.04565600  0.98682600  0.80813700  1
  H  H4  1  0.79693700  0.03360400  0.71714100  1
  H  H5  1  0.24793600  0.97921200  0.18942600  1
  H  H6  1  0.09881600  0.97664100  0.23823200  1
  H  H7  1  0.95496200  0.98468300  0.29018900  1
  H  H8  1  0.81274100  0.99333100  0.23826700  1
  H  H9  1  0.61169800  0.33098300  0.73226700  1
  H  H10  1  0.64067600  0.49143900  0.81878400  1
  H  H11  1  0.41157700  0.21295800  0.19829200  1
  H  H12  1  0.63181200  0.64954500  0.81350100  1
  H  H13  1  0.59540400  0.77091200  0.71328700  1
  H  H14  1  0.34757100  0.49603300  0.10044600  1
  H  H15  1  0.37791400  0.65181100  0.18876200  1
  H  H16  1  0.39209300  0.37353300  0.99300700  1
  H  H17  1  0.28480800  0.33106600  0.06940800  1
  H  H18  1  0.36789700  0.23570100  0.93523800  1
  C  C1  1  0.88880300  0.01761500  0.84080600  1
  C  C2  1  0.28812500  0.99042100  0.88872400  1
  C  C3  1  0.20364400  0.98772200  0.85418900  1
  C  C4  1  0.13685000  0.98525700  0.93933800  1
  C  C5  1  0.05467100  0.98815100  0.90379200  1
  C  C6  1  0.98776000  0.99093800  0.98880800  1
  C  C7  1  0.80686600  0.02119000  0.80973500  1
  C  C8  1  0.73694300  0.00273300  0.89113200  1
  C  C9  1  0.90457400  0.99841000  0.95715800  1
  C  C10  1  0.83688000  0.99050100  0.04452200  1
  C  C11  1  0.75075200  0.98841400  0.01096900  1
  C  C12  1  0.30390300  0.98764400  0.01133500  1
  C  C13  1  0.23518400  0.98019000  0.09455200  1
  C  C14  1  0.15262000  0.98114100  0.05912000  1
  C  C15  1  0.08629900  0.97995500  0.14373000  1
  C  C16  1  0.00463100  0.98501400  0.10892100  1
  C  C17  1  0.94069700  0.98622600  0.19591500  1
  C  C18  1  0.85795700  0.98886200  0.16472200  1
  C  C19  1  0.67533500  0.97299600  0.09970200  1
  C  C20  1  0.49162000  0.80986000  0.29625900  1
  C  C21  1  0.39242700  0.00077300  0.05973500  1
  C  C22  1  0.47838200  0.14253500  0.35234000  1
  C  C23  1  0.54165700  0.84664000  0.55124000  1
  C  C24  1  0.64954800  0.99426900  0.84266800  1
  C  C25  1  0.51879600  0.17890800  0.60689100  1
  C  C26  1  0.35746700  0.99476600  0.79410600  1
  C  C27  1  0.48688700  0.23717300  0.41260800  1
  C  C28  1  0.51894700  0.25792900  0.52961700  1
  C  C29  1  0.54166800  0.35274500  0.57725500  1
  C  C30  1  0.58718600  0.37964100  0.68513200  1
  C  C31  1  0.60621300  0.47210300  0.73388800  1
  C  C32  1  0.42510200  0.28436500  0.23951100  1
  C  C33  1  0.46483700  0.30690600  0.35168600  1
  C  C34  1  0.48150600  0.39927000  0.40353100  1
  C  C35  1  0.39874900  0.35158300  0.18121500  1
  C  C36  1  0.41536200  0.44410000  0.23435400  1
  C  C37  1  0.52212100  0.42267600  0.51446500  1
  C  C38  1  0.54207500  0.51615600  0.56378400  1
  C  C39  1  0.58255300  0.53968700  0.67455400  1
  C  C40  1  0.60063200  0.63128100  0.72625000  1
  C  C41  1  0.45901600  0.46871200  0.34353400  1
  C  C42  1  0.48011800  0.56288000  0.39277200  1
  C  C43  1  0.52188500  0.58628800  0.50282900  1
  C  C44  1  0.54112500  0.67915700  0.55401900  1
  C  C45  1  0.57943000  0.70054300  0.66744800  1
  C  C46  1  0.38701200  0.51220600  0.18100800  1
  C  C47  1  0.40746200  0.60461900  0.23023000  1
  C  C48  1  0.45981300  0.63330800  0.33174100  1
  C  C49  1  0.48861500  0.72986200  0.37555200  1
  C  C50  1  0.52356800  0.75045200  0.49169700  1
  C  C51  1  0.35320200  0.32467500  0.06115900  1
  O  O1  1  0.61502700  0.01793000  0.09126800  1
  O  O2  1  0.49163200  0.79531000  0.17823200  1
  O  O3  1  0.66606000  0.91147600  0.18340100  1
  O  O4  1  0.50943100  0.89910300  0.34129100  1
  O  O5  1  0.40328700  0.93989000  0.13486600  1
  O  O6  1  0.45596700  0.08203700  0.04645000  1
  O  O7  1  0.55007100  0.12408800  0.30660300  1
  O  O8  1  0.39995200  0.07737700  0.34259300  1
  O  O9  1  0.47561100  0.87436400  0.60006900  1
  O  O10  1  0.62390600  0.90395400  0.55876700  1
  O  O11  1  0.64501700  0.04756000  0.75394100  1
  O  O12  1  0.57958700  0.92267200  0.87072800  1
  O  O13  1  0.33956900  0.99923800  0.68044400  1
  O  O14  1  0.53502700  0.10049800  0.56154500  1
  O  O15  1  0.43722600  0.99389100  0.82271400  1
  O  O16  1  0.49315900  0.18258400  0.72048200  1
  O  O17  1  0.34700200  0.23063400  0.02043800  1
