# generated using pymatgen
data_Cu3H28(C17O4)3
_symmetry_space_group_name_H-M   'P 1'
_cell_length_a   40.81092300
_cell_length_b   35.28855700
_cell_length_c   21.53686400
_cell_angle_alpha   90.00000000
_cell_angle_beta   59.64970800
_cell_angle_gamma   90.00000000
_symmetry_Int_Tables_number   1
_chemical_formula_structural   Cu3H28(C17O4)3
_chemical_formula_sum   'Cu12 H112 C204 O48'
_cell_volume   26765.76157344
_cell_formula_units_Z   4
loop_
 _symmetry_equiv_pos_site_id
 _symmetry_equiv_pos_as_xyz
  1  'x, y, z'
loop_
 _atom_site_type_symbol
 _atom_site_label
 _atom_site_symmetry_multiplicity
 _atom_site_fract_x
 _atom_site_fract_y
 _atom_site_fract_z
 _atom_site_occupancy
  Cu  Cu1  1  0.00000000  0.03926900  0.99999900  1
  Cu  Cu2  1  0.50000000  0.53926900  0.99999900  1
  Cu  Cu3  1  0.00000000  0.96523700  0.99999900  1
  Cu  Cu4  1  0.50000000  0.46523700  0.99999900  1
  Cu  Cu5  1  0.03772600  0.99972000  0.45975900  1
  Cu  Cu6  1  0.96227400  0.99972000  0.54023900  1
  Cu  Cu7  1  0.53772600  0.49972000  0.45975900  1
  Cu  Cu8  1  0.46227400  0.49972000  0.54023900  1
  Cu  Cu9  1  0.50261300  0.99962800  0.55796700  1
  Cu  Cu10  1  0.49738700  0.99962800  0.44203200  1
  Cu  Cu11  1  0.00261300  0.49962800  0.55796700  1
  Cu  Cu12  1  0.99738700  0.49962800  0.44203200  1
  H  H1  1  0.03983700  0.03692400  0.15538400  1
  H  H2  1  0.96016300  0.03692400  0.84461300  1
  H  H3  1  0.53983700  0.53692400  0.15538400  1
  H  H4  1  0.46016300  0.53692400  0.84461300  1
  H  H5  1  0.92556200  0.97212400  0.20901900  1
  H  H6  1  0.07443900  0.97212400  0.79097900  1
  H  H7  1  0.42556200  0.47212400  0.20901900  1
  H  H8  1  0.57443900  0.47212400  0.79097900  1
  H  H9  1  0.88200100  0.93174200  0.30562600  1
  H  H10  1  0.11799900  0.93174100  0.69437100  1
  H  H11  1  0.38200100  0.43174200  0.30562600  1
  H  H12  1  0.61799900  0.43174100  0.69437100  1
  H  H13  1  0.89135000  0.91815300  0.40732900  1
  H  H14  1  0.10865000  0.91815300  0.59266800  1
  H  H15  1  0.39135000  0.41815300  0.40732900  1
  H  H16  1  0.60865000  0.41815300  0.59266800  1
  H  H17  1  0.94290700  0.94666700  0.41407800  1
  H  H18  1  0.05709300  0.94666700  0.58591900  1
  H  H19  1  0.44290700  0.44666700  0.41407800  1
  H  H20  1  0.55709300  0.44666700  0.58591900  1
  H  H21  1  0.04111900  0.03461100  0.26624500  1
  H  H22  1  0.95888100  0.03461100  0.73375300  1
  H  H23  1  0.54111900  0.53461100  0.26624500  1
  H  H24  1  0.45888100  0.53461100  0.73375300  1
  H  H25  1  0.68391700  0.97982400  0.20951600  1
  H  H26  1  0.31608300  0.97982400  0.79048200  1
  H  H27  1  0.18391700  0.47982400  0.20951600  1
  H  H28  1  0.81608300  0.47982400  0.79048200  1
  H  H29  1  0.61475100  0.97988700  0.28266800  1
  H  H30  1  0.38524800  0.97988700  0.71733100  1
  H  H31  1  0.11475100  0.47988700  0.28266800  1
  H  H32  1  0.88524800  0.47988700  0.71733100  1
  H  H33  1  0.62256000  0.01900500  0.46307500  1
  H  H34  1  0.37744000  0.01900500  0.53692300  1
  H  H35  1  0.12256000  0.51900500  0.46307500  1
  H  H36  1  0.87744000  0.51900500  0.53692300  1
  H  H37  1  0.69160400  0.01867400  0.38878500  1
  H  H38  1  0.30839600  0.01867500  0.61121300  1
  H  H39  1  0.19160400  0.51867400  0.38878500  1
  H  H40  1  0.80839600  0.51867500  0.61121300  1
  H  H41  1  0.81284100  0.94301500  0.13953400  1
  H  H42  1  0.18715900  0.94301500  0.86046400  1
  H  H43  1  0.31284100  0.44301500  0.13953400  1
  H  H44  1  0.68715900  0.44301500  0.86046400  1
  H  H45  1  0.88217300  0.94381200  0.07211200  1
  H  H46  1  0.11782800  0.94381200  0.92788600  1
  H  H47  1  0.38217300  0.44381200  0.07211200  1
  H  H48  1  0.61782800  0.44381200  0.92788600  1
  H  H49  1  0.88035900  0.05948300  0.13419000  1
  H  H50  1  0.11964200  0.05948300  0.86580700  1
  H  H51  1  0.38035900  0.55948300  0.13419000  1
  H  H52  1  0.61964200  0.55948300  0.86580700  1
  H  H53  1  0.81120600  0.05791100  0.20103200  1
  H  H54  1  0.18879500  0.05791100  0.79896600  1
  H  H55  1  0.31120600  0.55791100  0.20103200  1
  H  H56  1  0.68879500  0.55791100  0.79896600  1
  H  H57  1  0.49018000  0.18726900  0.60686000  1
  H  H58  1  0.50982100  0.18726900  0.39313900  1
  H  H59  1  0.99018000  0.68726900  0.60686000  1
  H  H60  1  0.00982100  0.68726900  0.39313900  1
  H  H61  1  0.48995900  0.11813200  0.60773500  1
  H  H62  1  0.51004100  0.11813200  0.39226400  1
  H  H63  1  0.98995900  0.61813200  0.60773500  1
  H  H64  1  0.01004100  0.61813200  0.39226400  1
  H  H65  1  0.93948400  0.88079300  0.55693900  1
  H  H66  1  0.06051600  0.88079300  0.44305900  1
  H  H67  1  0.43948400  0.38079300  0.55693900  1
  H  H68  1  0.56051600  0.38079300  0.44305900  1
  H  H69  1  0.47660000  0.81202700  0.43131800  1
  H  H70  1  0.52339900  0.81202700  0.56868000  1
  H  H71  1  0.97660000  0.31202700  0.43131800  1
  H  H72  1  0.02339900  0.31202700  0.56868000  1
  H  H73  1  0.47643200  0.88113100  0.43084000  1
  H  H74  1  0.52356800  0.88113100  0.56915800  1
  H  H75  1  0.97643200  0.38113100  0.43084000  1
  H  H76  1  0.02356800  0.38113100  0.56915800  1
  H  H77  1  0.94010500  0.18827400  0.57031400  1
  H  H78  1  0.05989500  0.18827400  0.42968400  1
  H  H79  1  0.44010500  0.68827400  0.57031400  1
  H  H80  1  0.55989500  0.68827400  0.42968400  1
  H  H81  1  0.93968500  0.11916600  0.57081600  1
  H  H82  1  0.06031500  0.11916600  0.42918200  1
  H  H83  1  0.43968500  0.61916600  0.57081600  1
  H  H84  1  0.56031500  0.61916600  0.42918200  1
  H  H85  1  0.90522900  0.82649100  0.59543800  1
  H  H86  1  0.92745500  0.78487100  0.60463100  1
  H  H87  1  0.91538700  0.73193000  0.55419800  1
  H  H88  1  0.90659000  0.70201600  0.46111200  1
  H  H89  1  0.90842100  0.74050400  0.36421900  1
  H  H90  1  0.91890900  0.80927600  0.36093800  1
  H  H91  1  0.92792200  0.83954500  0.45357500  1
  H  H92  1  0.09477100  0.82649200  0.40456100  1
  H  H93  1  0.07254600  0.78487100  0.39536800  1
  H  H94  1  0.08461300  0.73193000  0.44580100  1
  H  H95  1  0.09341100  0.70201600  0.53888800  1
  H  H96  1  0.09157900  0.74050600  0.63578000  1
  H  H97  1  0.08109100  0.80927800  0.63906100  1
  H  H98  1  0.07207800  0.83954600  0.54642300  1
  H  H99  1  0.40523000  0.32649100  0.59543800  1
  H  H100  1  0.42745500  0.28487100  0.60463100  1
  H  H101  1  0.41538700  0.23193000  0.55419800  1
  H  H102  1  0.40659000  0.20201600  0.46111200  1
  H  H103  1  0.40842100  0.24050400  0.36421900  1
  H  H104  1  0.41890900  0.30927600  0.36093800  1
  H  H105  1  0.42792200  0.33954500  0.45357500  1
  H  H106  1  0.59477100  0.32649200  0.40456100  1
  H  H107  1  0.57254600  0.28487100  0.39536800  1
  H  H108  1  0.58461300  0.23193000  0.44580100  1
  H  H109  1  0.59341100  0.20201600  0.53888800  1
  H  H110  1  0.59157900  0.24050600  0.63578000  1
  H  H111  1  0.58109100  0.30927800  0.63906100  1
  H  H112  1  0.57207800  0.33954600  0.54642300  1
  C  C1  1  0.92810100  0.00217800  0.06016300  1
  C  C2  1  0.07189900  0.00217800  0.93983400  1
  C  C3  1  0.42810100  0.50217800  0.06016300  1
  C  C4  1  0.57189900  0.50217800  0.93983400  1
  C  C5  1  0.99303800  0.00263800  0.12380700  1
  C  C6  1  0.00696200  0.00263800  0.87619000  1
  C  C7  1  0.49303800  0.50263800  0.12380700  1
  C  C8  1  0.50696200  0.50263800  0.87619000  1
  C  C9  1  0.93125100  0.96661000  0.25190800  1
  C  C10  1  0.06874900  0.96661000  0.74809000  1
  C  C11  1  0.43125100  0.46661000  0.25190800  1
  C  C12  1  0.56874900  0.46661000  0.74809000  1
  C  C13  1  0.90569800  0.94413400  0.30753200  1
  C  C14  1  0.09430100  0.94413300  0.69246500  1
  C  C15  1  0.40569800  0.44413400  0.30753200  1
  C  C16  1  0.59430100  0.44413300  0.69246500  1
  C  C17  1  0.91072000  0.93682200  0.36470000  1
  C  C18  1  0.08928000  0.93682200  0.63529700  1
  C  C19  1  0.41072000  0.43682200  0.36470000  1
  C  C20  1  0.58928000  0.43682200  0.63529700  1
  C  C21  1  0.93990700  0.95389000  0.36859400  1
  C  C22  1  0.06009300  0.95389000  0.63140300  1
  C  C23  1  0.43990700  0.45389000  0.36859400  1
  C  C24  1  0.56009300  0.45389000  0.63140300  1
  C  C25  1  0.96479400  0.97836300  0.31461800  1
  C  C26  1  0.03520600  0.97836300  0.68538000  1
  C  C27  1  0.46479400  0.47836300  0.31461800  1
  C  C28  1  0.53520600  0.47836300  0.68538000  1
  C  C29  1  0.96221000  0.98230600  0.25303500  1
  C  C30  1  0.03779000  0.98230600  0.74696200  1
  C  C31  1  0.46221000  0.48230600  0.25303500  1
  C  C32  1  0.53779000  0.48230600  0.74696200  1
  C  C33  1  0.99011300  0.00255400  0.19444400  1
  C  C34  1  0.00988700  0.00255400  0.80555400  1
  C  C35  1  0.49011300  0.50255400  0.19444400  1
  C  C36  1  0.50988700  0.50255400  0.80555400  1
  C  C37  1  0.01801600  0.02121600  0.20039800  1
  C  C38  1  0.98198400  0.02121600  0.79959900  1
  C  C39  1  0.51801600  0.52121600  0.20039800  1
  C  C40  1  0.48198400  0.52121600  0.79959900  1
  C  C41  1  0.01923000  0.01919700  0.26274100  1
  C  C42  1  0.98077000  0.01919700  0.73725700  1
  C  C43  1  0.51923000  0.51919700  0.26274100  1
  C  C44  1  0.48077000  0.51919700  0.73725700  1
  C  C45  1  0.99293000  0.99797300  0.32003900  1
  C  C46  1  0.00707000  0.99797400  0.67995800  1
  C  C47  1  0.49293000  0.49797300  0.32003900  1
  C  C48  1  0.50707000  0.49797400  0.67995800  1
  C  C49  1  0.67029500  0.98839100  0.26528300  1
  C  C50  1  0.32970500  0.98839100  0.73471500  1
  C  C51  1  0.17029500  0.48839100  0.26528300  1
  C  C52  1  0.82970500  0.48839100  0.73471500  1
  C  C53  1  0.63118000  0.98849400  0.30688700  1
  C  C54  1  0.36882000  0.98849400  0.69311100  1
  C  C55  1  0.13118000  0.48849400  0.30688700  1
  C  C56  1  0.86882000  0.48849400  0.69311100  1
  C  C57  1  0.61352000  0.99946900  0.37834500  1
  C  C58  1  0.38648000  0.99946900  0.62165300  1
  C  C59  1  0.11352000  0.49946900  0.37834500  1
  C  C60  1  0.88648000  0.49946900  0.62165300  1
  C  C61  1  0.63551500  0.01029500  0.40750100  1
  C  C62  1  0.36448500  0.01029500  0.59249700  1
  C  C63  1  0.13551500  0.51029500  0.40750100  1
  C  C64  1  0.86448500  0.51029500  0.59249700  1
  C  C65  1  0.67459300  0.01014900  0.36570500  1
  C  C66  1  0.32540700  0.01014900  0.63429400  1
  C  C67  1  0.17459300  0.51014900  0.36570500  1
  C  C68  1  0.82540700  0.51014900  0.63429400  1
  C  C69  1  0.69203200  0.99921200  0.29462700  1
  C  C70  1  0.30796800  0.99921200  0.70537100  1
  C  C71  1  0.19203200  0.49921200  0.29462700  1
  C  C72  1  0.80796800  0.49921200  0.70537100  1
  C  C73  1  0.73276000  0.99929000  0.25138900  1
  C  C74  1  0.26724000  0.99929000  0.74861000  1
  C  C75  1  0.23276000  0.49929000  0.25138900  1
  C  C76  1  0.76724000  0.49929000  0.74861000  1
  C  C77  1  0.76696700  0.99962700  0.21579300  1
  C  C78  1  0.23303300  0.99962700  0.78420500  1
  C  C79  1  0.26696700  0.49962700  0.21579300  1
  C  C80  1  0.73303300  0.49962700  0.78420500  1
  C  C81  1  0.82782600  0.96861100  0.13781300  1
  C  C82  1  0.17217400  0.96861100  0.86218500  1
  C  C83  1  0.32782600  0.46861100  0.13781300  1
  C  C84  1  0.67217400  0.46861100  0.86218500  1
  C  C85  1  0.86703000  0.96920400  0.09973500  1
  C  C86  1  0.13297000  0.96920400  0.90026300  1
  C  C87  1  0.36703000  0.46920400  0.09973500  1
  C  C88  1  0.63297000  0.46920400  0.90026300  1
  C  C89  1  0.88641000  0.00174500  0.09803900  1
  C  C90  1  0.11359000  0.00174500  0.90195900  1
  C  C91  1  0.38641000  0.50174500  0.09803900  1
  C  C92  1  0.61359000  0.50174500  0.90195900  1
  C  C93  1  0.86605700  0.03369400  0.13433300  1
  C  C94  1  0.13394300  0.03369400  0.86566500  1
  C  C95  1  0.36605700  0.53369400  0.13433300  1
  C  C96  1  0.63394300  0.53369400  0.86566500  1
  C  C97  1  0.82690900  0.03296500  0.17226300  1
  C  C98  1  0.17309100  0.03296500  0.82773500  1
  C  C99  1  0.32690900  0.53296500  0.17226300  1
  C  C100  1  0.67309100  0.53296500  0.82773500  1
  C  C101  1  0.80774300  0.00043100  0.17434400  1
  C  C102  1  0.19225700  0.00043100  0.82565400  1
  C  C103  1  0.30774300  0.50043100  0.17434400  1
  C  C104  1  0.69225700  0.50043100  0.82565400  1
  C  C105  1  0.00000000  0.92685500  0.49999900  1
  C  C106  1  0.50000000  0.42685500  0.49999900  1
  C  C107  1  0.99538600  0.99808600  0.38555300  1
  C  C108  1  0.00461400  0.99808600  0.61444400  1
  C  C109  1  0.49538600  0.49808600  0.38555300  1
  C  C110  1  0.50461400  0.49808600  0.61444400  1
  C  C111  1  0.00000000  0.07255200  0.49999900  1
  C  C112  1  0.50000000  0.57255200  0.49999900  1
  C  C113  1  0.50000000  0.92775300  0.49999900  1
  C  C114  1  0.00000000  0.42775300  0.49999900  1
  C  C115  1  0.57189900  0.99959700  0.42285700  1
  C  C116  1  0.42810100  0.99959700  0.57714100  1
  C  C117  1  0.07189900  0.49959700  0.42285700  1
  C  C118  1  0.92810100  0.49959700  0.57714100  1
  C  C119  1  0.50000000  0.07150800  0.49999900  1
  C  C120  1  0.00000000  0.57150800  0.49999900  1
  C  C121  1  0.49446000  0.17190000  0.55991700  1
  C  C122  1  0.50554100  0.17190000  0.44008200  1
  C  C123  1  0.99446000  0.67190000  0.55991700  1
  C  C124  1  0.00554100  0.67190000  0.44008200  1
  C  C125  1  0.49434000  0.13283600  0.56013000  1
  C  C126  1  0.50566000  0.13283600  0.43986900  1
  C  C127  1  0.99434000  0.63283600  0.56013000  1
  C  C128  1  0.00566000  0.63283600  0.43986900  1
  C  C129  1  0.50000000  0.11306300  0.49999900  1
  C  C130  1  0.00000000  0.61306300  0.49999900  1
  C  C131  1  0.50000000  0.19139900  0.50000000  1
  C  C132  1  0.00000000  0.69139900  0.50000000  1
  C  C133  1  0.50000000  0.23199800  0.50000000  1
  C  C134  1  0.00000000  0.73199800  0.50000000  1
  C  C135  1  0.00000000  0.76612500  0.50000000  1
  C  C136  1  0.50000000  0.26612500  0.50000000  1
  C  C137  1  0.96593600  0.82650200  0.53158200  1
  C  C138  1  0.03406400  0.82650200  0.46841700  1
  C  C139  1  0.46593600  0.32650200  0.53158200  1
  C  C140  1  0.53406400  0.32650200  0.46841700  1
  C  C141  1  0.96612000  0.86563500  0.53222300  1
  C  C142  1  0.03388000  0.86563500  0.46777600  1
  C  C143  1  0.46612000  0.36563500  0.53222300  1
  C  C144  1  0.53388000  0.36563500  0.46777600  1
  C  C145  1  0.00000000  0.88531300  0.49999900  1
  C  C146  1  0.50000000  0.38531300  0.49999900  1
  C  C147  1  0.00000000  0.80683400  0.49999900  1
  C  C148  1  0.50000000  0.30683400  0.49999900  1
  C  C149  1  0.48688900  0.82737100  0.46151200  1
  C  C150  1  0.51311100  0.82737100  0.53848600  1
  C  C151  1  0.98688900  0.32737100  0.46151200  1
  C  C152  1  0.01311100  0.32737100  0.53848600  1
  C  C153  1  0.48686000  0.86643500  0.46142200  1
  C  C154  1  0.51314000  0.86643500  0.53857600  1
  C  C155  1  0.98686000  0.36643500  0.46142200  1
  C  C156  1  0.01314000  0.36643500  0.53857600  1
  C  C157  1  0.50000000  0.88620500  0.49999900  1
  C  C158  1  0.00000000  0.38620500  0.49999900  1
  C  C159  1  0.50000000  0.80785100  0.49999900  1
  C  C160  1  0.00000000  0.30785100  0.49999900  1
  C  C161  1  0.50000000  0.76721500  0.49999900  1
  C  C162  1  0.00000000  0.26721500  0.49999900  1
  C  C163  1  0.00000000  0.23308500  0.49999900  1
  C  C164  1  0.50000000  0.73308500  0.49999900  1
  C  C165  1  0.96643700  0.17292900  0.53939900  1
  C  C166  1  0.03356200  0.17292900  0.46059900  1
  C  C167  1  0.46643700  0.67292900  0.53939900  1
  C  C168  1  0.53356200  0.67292900  0.46059900  1
  C  C169  1  0.96636100  0.13386500  0.53948800  1
  C  C170  1  0.03363900  0.13386500  0.46050900  1
  C  C171  1  0.46636100  0.63386500  0.53948800  1
  C  C172  1  0.53363900  0.63386500  0.46050900  1
  C  C173  1  0.00000000  0.11409700  0.49999900  1
  C  C174  1  0.50000000  0.61409700  0.49999900  1
  C  C175  1  0.00000000  0.19244900  0.49999900  1
  C  C176  1  0.50000000  0.69244900  0.49999900  1
  C  C177  1  0.92870000  0.80608000  0.56551400  1
  C  C178  1  0.92289300  0.78767300  0.50940600  1
  C  C179  1  0.91636800  0.74913400  0.51177300  1
  C  C180  1  0.91136600  0.73221900  0.45946700  1
  C  C181  1  0.91240700  0.75378400  0.40515600  1
  C  C182  1  0.91832200  0.79232000  0.40328400  1
  C  C183  1  0.92348900  0.80927500  0.45537000  1
  C  C184  1  0.07130000  0.80608000  0.43448500  1
  C  C185  1  0.07710800  0.78767400  0.49059200  1
  C  C186  1  0.08363200  0.74913500  0.48822700  1
  C  C187  1  0.08863400  0.73222000  0.54053200  1
  C  C188  1  0.08759300  0.75378500  0.59484400  1
  C  C189  1  0.08167900  0.79232100  0.59671500  1
  C  C190  1  0.07651100  0.80927600  0.54462900  1
  C  C191  1  0.42870000  0.30608000  0.56551400  1
  C  C192  1  0.42289300  0.28767300  0.50940600  1
  C  C193  1  0.41636800  0.24913400  0.51177300  1
  C  C194  1  0.41136600  0.23221900  0.45946700  1
  C  C195  1  0.41240700  0.25378400  0.40515500  1
  C  C196  1  0.41832200  0.29232000  0.40328400  1
  C  C197  1  0.42348900  0.30927500  0.45537000  1
  C  C198  1  0.57130000  0.30608000  0.43448500  1
  C  C199  1  0.57710800  0.28767400  0.49059200  1
  C  C200  1  0.58363200  0.24913500  0.48822700  1
  C  C201  1  0.58863400  0.23222000  0.54053200  1
  C  C202  1  0.58759300  0.25378500  0.59484400  1
  C  C203  1  0.58167900  0.29232100  0.59671500  1
  C  C204  1  0.57651100  0.30927600  0.54462900  1
  O  O1  1  0.94517100  0.03351800  0.06240100  1
  O  O2  1  0.05482900  0.03351800  0.93759700  1
  O  O3  1  0.44517100  0.53351800  0.06240100  1
  O  O4  1  0.55482900  0.53351800  0.93759700  1
  O  O5  1  0.94676600  0.97100200  0.02718500  1
  O  O6  1  0.05323400  0.97100200  0.97281300  1
  O  O7  1  0.44676600  0.47100200  0.02718500  1
  O  O8  1  0.55323400  0.47100200  0.97281300  1
  O  O9  1  0.00599500  0.03351800  0.08393200  1
  O  O10  1  0.99400500  0.03351800  0.91606600  1
  O  O11  1  0.50599500  0.53351800  0.08393200  1
  O  O12  1  0.49400500  0.53351800  0.91606600  1
  O  O13  1  0.98540700  0.97099300  0.10090200  1
  O  O14  1  0.01459300  0.97099300  0.89909500  1
  O  O15  1  0.48540700  0.47099300  0.10090200  1
  O  O16  1  0.51459300  0.47099300  0.89909500  1
  O  O17  1  0.03254900  0.94462700  0.46342300  1
  O  O18  1  0.96745100  0.94462700  0.53657500  1
  O  O19  1  0.53254900  0.44462700  0.46342300  1
  O  O20  1  0.46745100  0.44462700  0.53657500  1
  O  O21  1  0.02916200  0.00057700  0.37841200  1
  O  O22  1  0.97083800  0.00057700  0.62158600  1
  O  O23  1  0.52916200  0.50057700  0.37841200  1
  O  O24  1  0.47083800  0.50057700  0.62158600  1
  O  O25  1  0.96405400  0.00144500  0.44797700  1
  O  O26  1  0.03594600  0.00144500  0.55202000  1
  O  O27  1  0.46405400  0.50144500  0.44797700  1
  O  O28  1  0.53594600  0.50144500  0.55202000  1
  O  O29  1  0.03248400  0.05479000  0.46210200  1
  O  O30  1  0.96751600  0.05479000  0.53789500  1
  O  O31  1  0.53248400  0.55479000  0.46210200  1
  O  O32  1  0.46751600  0.55479000  0.53789500  1
  O  O33  1  0.51263600  0.94557200  0.53773400  1
  O  O34  1  0.48736400  0.94557300  0.46226400  1
  O  O35  1  0.01263600  0.44557200  0.53773400  1
  O  O36  1  0.98736400  0.44557300  0.46226400  1
  O  O37  1  0.55624300  0.01005600  0.49092700  1
  O  O38  1  0.44375700  0.01005600  0.50907100  1
  O  O39  1  0.05624300  0.51005600  0.49092700  1
  O  O40  1  0.94375700  0.51005600  0.50907100  1
  O  O41  1  0.55183700  0.98919800  0.39307100  1
  O  O42  1  0.44816300  0.98919800  0.60692700  1
  O  O43  1  0.05183700  0.48919800  0.39307100  1
  O  O44  1  0.94816300  0.48919800  0.60692700  1
  O  O45  1  0.49178100  0.05368600  0.56012700  1
  O  O46  1  0.50821900  0.05368600  0.43987200  1
  O  O47  1  0.99178100  0.55368600  0.56012700  1
  O  O48  1  0.00821900  0.55368600  0.43987200  1
