data_DB0-m3_o11_o29_f0_pcu.sym.80_repeat
_audit_creation_date              2024-02-23
_audit_creation_method            'Materials Studio'
_symmetry_space_group_name_H-M    'P1'
_symmetry_Int_Tables_number       1
_symmetry_cell_setting            triclinic
loop_
_symmetry_equiv_pos_as_xyz
  x,y,z
_cell_length_a                    27.6351
_cell_length_b                    11.1300
_cell_length_c                    9.9075
_cell_angle_alpha                 89.9974
_cell_angle_beta                  89.9930
_cell_angle_gamma                 89.9936
loop_
_atom_site_label
_atom_site_type_symbol
_atom_site_fract_x
_atom_site_fract_y
_atom_site_fract_z
_atom_site_U_iso_or_equiv
_atom_site_adp_type
_atom_site_occupancy
O1     O     0.50471   0.32567   0.61430   0.00000  Uiso   1.00
O2     O     0.50598   0.32459   0.38178   0.00000  Uiso   1.00
C1     C     0.50566   0.26902   0.49839   0.00000  Uiso   1.00
O3     O     0.43074   0.50059   0.60433   0.00000  Uiso   1.00
O4     O     0.43230   0.50009   0.37207   0.00000  Uiso   1.00
C2     C     0.40880   0.49772   0.48715   0.00000  Uiso   1.00
Zn1    Zn    0.50232   0.50508   0.64792   0.00000  Uiso   1.00
Zn2    Zn    0.50477   0.50295   0.34093   0.00000  Uiso   1.00
O5     O     0.50129   0.68334   0.60749   0.00000  Uiso   1.00
O6     O     0.50321   0.68270   0.37416   0.00000  Uiso   1.00
O7     O     0.57481   0.50930   0.61724   0.00000  Uiso   1.00
O8     O     0.57639   0.50717   0.38401   0.00000  Uiso   1.00
C3     C     0.50168   0.73894   0.49094   0.00000  Uiso   1.00
C4     C     0.59823   0.50923   0.50170   0.00000  Uiso   1.00
C5     C     0.17902   0.39776   0.45581   0.00000  Uiso   1.00
O9     O     0.20330   0.29440   0.43762   0.00000  Uiso   1.00
N1     N     0.20374   0.50118   0.47059   0.00000  Uiso   1.00
C6     C     0.18006   0.60596   0.48670   0.00000  Uiso   1.00
C7     C     0.28197   0.55731   0.37635   0.00000  Uiso   1.00
C8     C     0.33185   0.55449   0.38054   0.00000  Uiso   1.00
C9     C     0.32870   0.43540   0.58141   0.00000  Uiso   1.00
C10    C     0.27887   0.43761   0.57559   0.00000  Uiso   1.00
C11    C     0.25533   0.49894   0.47410   0.00000  Uiso   1.00
C12    C     0.10400   0.50359   0.47568   0.00000  Uiso   1.00
C13    C     0.12896   0.39783   0.45732   0.00000  Uiso   1.00
C14    C     0.10381   0.29218   0.44273   0.00000  Uiso   1.00
C15    C     0.12998   0.60831   0.49024   0.00000  Uiso   1.00
C16    C     0.35566   0.49540   0.48386   0.00000  Uiso   1.00
H1     H     0.25818   0.39113   0.65210   0.00000  Uiso   1.00
H2     H     0.12237   0.20739   0.43092   0.00000  Uiso   1.00
C17    C     0.65132   0.51066   0.50327   0.00000  Uiso   1.00
C18    C     0.97751   0.40123   0.45589   0.00000  Uiso   1.00
C19    C     0.97885   0.61021   0.51960   0.00000  Uiso   1.00
C20    C     0.95324   0.50607   0.49045   0.00000  Uiso   1.00
C21    C     0.95028   0.30148   0.41767   0.00000  Uiso   1.00
C22    C     0.90065   0.30433   0.42011   0.00000  Uiso   1.00
C23    C     0.87675   0.40634   0.46070   0.00000  Uiso   1.00
C24    C     0.90292   0.50680   0.49570   0.00000  Uiso   1.00
C25    C     0.87817   0.60806   0.53572   0.00000  Uiso   1.00
C26    C     0.82809   0.60758   0.54033   0.00000  Uiso   1.00
N2     N     0.80321   0.50865   0.50419   0.00000  Uiso   1.00
C27    C     0.82672   0.40869   0.46462   0.00000  Uiso   1.00
C28    C     0.72634   0.52572   0.62328   0.00000  Uiso   1.00
C29    C     0.67639   0.52512   0.62305   0.00000  Uiso   1.00
C30    C     0.67679   0.49669   0.38408   0.00000  Uiso   1.00
C31    C     0.72663   0.49594   0.38486   0.00000  Uiso   1.00
C32    C     0.75160   0.51041   0.50427   0.00000  Uiso   1.00
O10    O     0.80126   0.31024   0.43111   0.00000  Uiso   1.00
C33    C     0.02816   0.39867   0.45918   0.00000  Uiso   1.00
C34    C     0.05367   0.50452   0.48008   0.00000  Uiso   1.00
C35    C     0.02930   0.61120   0.50583   0.00000  Uiso   1.00
C36    C     0.05416   0.29227   0.44351   0.00000  Uiso   1.00
H3     H     0.65737   0.53642   0.71751   0.00000  Uiso   1.00
H4     H     0.74561   0.53636   0.71748   0.00000  Uiso   1.00
H5     H     0.88111   0.22488   0.38923   0.00000  Uiso   1.00
H6     H     0.96589   0.21953   0.38033   0.00000  Uiso   1.00
H7     H     0.03754   0.20524   0.43618   0.00000  Uiso   1.00
O11    O     0.20538   0.70792   0.50359   0.00000  Uiso   1.00
C37    C     0.10581   0.71498   0.50829   0.00000  Uiso   1.00
H8     H     0.35214   0.60150   0.30366   0.00000  Uiso   1.00
H9     H     0.26386   0.60470   0.29559   0.00000  Uiso   1.00
H10    H     0.12511   0.79902   0.51708   0.00000  Uiso   1.00
C38    C     0.95317   0.71071   0.56339   0.00000  Uiso   1.00
C39    C     0.90357   0.70932   0.57129   0.00000  Uiso   1.00
O12    O     0.80396   0.70711   0.57728   0.00000  Uiso   1.00
C40    C     0.05621   0.71671   0.51607   0.00000  Uiso   1.00
H11    H     0.97015   0.79221   0.59713   0.00000  Uiso   1.00
H12    H     0.65823   0.48501   0.28899   0.00000  Uiso   1.00
H13    H     0.88525   0.78940   0.60579   0.00000  Uiso   1.00
H14    H     0.74610   0.48486   0.29103   0.00000  Uiso   1.00
H15    H     0.04024   0.80429   0.52618   0.00000  Uiso   1.00
C41    C     0.50495   0.93866   0.38520   0.00000  Uiso   1.00
C42    C     0.50075   0.87046   0.49572   0.00000  Uiso   1.00
H16    H     0.50819   0.89572   0.28747   0.00000  Uiso   1.00
H17    H     0.49648   0.90932   0.59475   0.00000  Uiso   1.00
C43    C     0.50471   0.07178   0.38801   0.00000  Uiso   1.00
C44    C     0.50656   0.13737   0.50146   0.00000  Uiso   1.00
H18    H     0.50343   0.11714   0.29132   0.00000  Uiso   1.00
H19    H     0.50892   0.09663   0.60008   0.00000  Uiso   1.00
C45    C     0.52927   0.57540   0.91885   0.00000  Uiso   1.00
N3     N     0.50030   0.50929   0.84967   0.00000  Uiso   1.00
H20    H     0.55617   0.62914   0.86695   0.00000  Uiso   1.00
H21    H     0.47130   0.47268   0.89978   0.00000  Uiso   1.00
C46    C     0.52529   0.58538   0.06745   0.00000  Uiso   1.00
N4     N     0.50741   0.50009   0.13920   0.00000  Uiso   1.00
H22    H     0.53969   0.66456   0.11680   0.00000  Uiso   1.00
H23    H     0.50002   0.42077   0.09046   0.00000  Uiso   1.00
S1     S     0.35634   0.34810   0.71229   0.00000  Uiso   1.00
C47    C     0.35075   0.20985   0.61638   0.00000  Uiso   1.00
H24    H     0.37726   0.14338   0.65490   0.00000  Uiso   1.00
H25    H     0.35866   0.22756   0.50848   0.00000  Uiso   1.00
H26    H     0.31361   0.17337   0.62735   0.00000  Uiso   1.00
