# generated using pymatgen
data_ZnH10C19NO6
_symmetry_space_group_name_H-M   'P 1'
_cell_length_a   11.93251100
_cell_length_b   13.16087900
_cell_length_c   13.65638200
_cell_angle_alpha   88.59470500
_cell_angle_beta   109.39135000
_cell_angle_gamma   91.18924400
_symmetry_Int_Tables_number   1
_chemical_formula_structural   ZnH10C19NO6
_chemical_formula_sum   'Zn2 H20 C38 N2 O12'
_cell_volume   2022.18187963
_cell_formula_units_Z   2
loop_
 _symmetry_equiv_pos_site_id
 _symmetry_equiv_pos_as_xyz
  1  'x, y, z'
loop_
 _atom_site_type_symbol
 _atom_site_label
 _atom_site_symmetry_multiplicity
 _atom_site_fract_x
 _atom_site_fract_y
 _atom_site_fract_z
 _atom_site_occupancy
  Zn  Zn1  1  0.62383900  0.49147700  0.50588000  1
  Zn  Zn2  1  0.36288800  0.50077200  0.48540700  1
  H  H1  1  0.24167300  0.59880600  0.16156400  1
  H  H2  1  0.26997200  0.65121200  0.83503400  1
  H  H3  1  0.20601000  0.64148000  0.97983600  1
  H  H4  1  0.55685900  0.44776600  0.17886600  1
  H  H5  1  0.74184300  0.39377200  0.82360600  1
  H  H6  1  0.66856300  0.40302900  0.10189300  1
  H  H7  1  0.79233200  0.35508800  0.00725100  1
  H  H8  1  0.40414000  0.61032700  0.74720900  1
  H  H9  1  0.33497500  0.83673400  0.45602000  1
  H  H10  1  0.71173100  0.80131900  0.56689000  1
  H  H11  1  0.25388200  0.00330400  0.42856800  1
  H  H12  1  0.74061200  0.97973400  0.57175400  1
  H  H13  1  0.27855700  0.18620800  0.42984000  1
  H  H14  1  0.82939600  0.38039500  0.64044900  1
  H  H15  1  0.95653400  0.63833400  0.33601000  1
  H  H16  1  0.03755600  0.35865500  0.65520300  1
  H  H17  1  0.16110300  0.61532700  0.35351800  1
  H  H18  1  0.20336300  0.40150500  0.59611400  1
  H  H19  1  0.83304200  0.19332900  0.67715800  1
  H  H20  1  0.68687300  0.64585000  0.22453300  1
  C  C1  1  0.47916500  0.29673500  0.48802500  1
  C  C2  1  0.55292200  0.48607800  0.69879000  1
  C  C3  1  0.50825500  0.69479100  0.50464900  1
  C  C4  1  0.43365400  0.50743600  0.29298100  1
  C  C5  1  0.28335600  0.59774200  0.02212600  1
  C  C6  1  0.40405100  0.52170900  0.18041800  1
  C  C7  1  0.68554200  0.42171000  0.86447800  1
  C  C8  1  0.71367300  0.39856500  0.96805400  1
  C  C9  1  0.64069600  0.42680900  0.02175400  1
  C  C10  1  0.53885100  0.48320000  0.97339600  1
  C  C11  1  0.51335600  0.51066700  0.86867000  1
  C  C12  1  0.46227600  0.51333800  0.02681500  1
  C  C13  1  0.36304400  0.56993800  0.97423400  1
  C  C14  1  0.34400200  0.60253200  0.87398000  1
  C  C15  1  0.41970000  0.57587200  0.82273600  1
  C  C16  1  0.48170400  0.49006400  0.13157300  1
  C  C17  1  0.30294700  0.57304200  0.12460600  1
  C  C18  1  0.58440700  0.47545600  0.81278900  1
  C  C19  1  0.52111800  0.80582100  0.51055200  1
  C  C20  1  0.46948500  0.18424400  0.48620900  1
  C  C21  1  0.34259800  0.03580200  0.45379200  1
  C  C22  1  0.35713500  0.13996100  0.45478200  1
  C  C23  1  0.56843100  0.12106500  0.51773300  1
  C  C24  1  0.55294100  0.01586700  0.51625700  1
  C  C25  1  0.43994600  0.97348600  0.48428500  1
  C  C26  1  0.42385800  0.86882500  0.48211800  1
  C  C27  1  0.63380500  0.84834400  0.54292700  1
  C  C28  1  0.64996500  0.95196800  0.54617700  1
  C  C29  1  0.00625500  0.58386500  0.39356600  1
  C  C30  1  0.12340400  0.57120100  0.40298700  1
  C  C31  1  0.14673700  0.45232100  0.53813100  1
  C  C32  1  0.02915900  0.46341300  0.53088200  1
  C  C33  1  0.95762300  0.52900000  0.45790200  1
  C  C34  1  0.83986700  0.54013200  0.45145100  1
  C  C35  1  0.86543300  0.42291100  0.58887500  1
  C  C36  1  0.98273700  0.41033900  0.59702900  1
  C  C37  1  0.68968300  0.16296700  0.55670300  1
  C  C38  1  0.76477500  0.61020200  0.37311200  1
  N  N1  1  0.79525200  0.48660100  0.51667700  1
  N  N2  1  0.19164400  0.50604300  0.47411000  1
  O  O1  1  0.58184200  0.34131100  0.49846100  1
  O  O2  1  0.38344900  0.34868400  0.48022000  1
  O  O3  1  0.63858600  0.48363900  0.65812000  1
  O  O4  1  0.44044400  0.49039400  0.64150300  1
  O  O5  1  0.60304000  0.64325600  0.51094900  1
  O  O6  1  0.40490800  0.65116300  0.49377000  1
  O  O7  1  0.54589200  0.50034100  0.34967900  1
  O  O8  1  0.34813300  0.50895300  0.33326200  1
  O  O9  1  0.74147800  0.18744300  0.49613500  1
  O  O10  1  0.74871800  0.16775800  0.66317600  1
  O  O11  1  0.74215000  0.69340900  0.39836600  1
  O  O12  1  0.73230600  0.58734600  0.26834700  1
