# generated using pymatgen
data_Fe2H29C50NO16
_symmetry_space_group_name_H-M   'P 1'
_cell_length_a   14.14109100
_cell_length_b   14.33604700
_cell_length_c   13.22900200
_cell_angle_alpha   86.77332000
_cell_angle_beta   93.12716800
_cell_angle_gamma   115.65985800
_symmetry_Int_Tables_number   1
_chemical_formula_structural   Fe2H29C50NO16
_chemical_formula_sum   'Fe2 H29 C50 N1 O16'
_cell_volume   2412.20527868
_cell_formula_units_Z   1
loop_
 _symmetry_equiv_pos_site_id
 _symmetry_equiv_pos_as_xyz
  1  'x, y, z'
loop_
 _atom_site_type_symbol
 _atom_site_label
 _atom_site_symmetry_multiplicity
 _atom_site_fract_x
 _atom_site_fract_y
 _atom_site_fract_z
 _atom_site_occupancy
  Fe  Fe1  1  0.53397100  0.05076100  0.22657300  1
  Fe  Fe2  1  0.54808200  0.06069400  0.77864900  1
  H  H1  1  0.87876700  0.01136100  0.20940900  1
  H  H2  1  0.82988900  0.03042700  0.84202000  1
  H  H3  1  0.16933700  0.02068700  0.80028400  1
  H  H4  1  0.22785000  0.02794900  0.16624700  1
  H  H5  1  0.03216700  0.85711700  0.25258600  1
  H  H6  1  0.12078600  0.11542900  0.43999100  1
  H  H7  1  0.09639200  0.17549700  0.24925000  1
  H  H8  1  0.52561900  0.70858600  0.78444500  1
  H  H9  1  0.55184900  0.55421700  0.79415200  1
  H  H10  1  0.56434800  0.17502500  0.48670600  1
  H  H11  1  0.50379600  0.39710400  0.30775100  1
  H  H12  1  0.49548000  0.53499500  0.38092900  1
  H  H13  1  0.56752500  0.42047700  0.71975900  1
  H  H14  1  0.49534700  0.67921500  0.36830000  1
  H  H15  1  0.47279200  0.91754800  0.52350600  1
  H  H16  1  0.87113200  0.91473000  0.79252900  1
  H  H17  1  0.07358900  0.06203400  0.69027000  1
  H  H18  1  0.97988100  0.10312600  0.73389100  1
  H  H19  1  0.94065900  0.00406300  0.64170900  1
  H  H20  1  0.05063800  0.88483100  0.72458100  1
  H  H21  1  0.91260400  0.80593900  0.72521400  1
  H  H22  1  0.98821600  0.81904100  0.84145500  1
  H  H23  1  0.10426000  0.94630300  0.53002900  1
  H  H24  1  0.95170900  0.75771100  0.41172800  1
  H  H25  1  0.91567600  0.83876200  0.48608900  1
  H  H26  1  0.97828300  0.76303200  0.54694700  1
  H  H27  1  0.13964200  0.80681700  0.38264900  1
  H  H28  1  0.17112000  0.81588800  0.51707400  1
  H  H29  1  0.23982000  0.92552900  0.43242500  1
  C  C1  1  0.86947200  0.01356900  0.12810900  1
  C  C2  1  0.78013000  0.02009700  0.08776000  1
  C  C3  1  0.76769000  0.02619400  0.98310400  1
  C  C4  1  0.84199400  0.02238900  0.92247800  1
  C  C5  1  0.92827500  0.00880100  0.96244400  1
  C  C6  1  0.94526200  0.01115200  0.06639000  1
  C  C7  1  0.99744400  0.99418400  0.89976600  1
  C  C8  1  0.09574300  0.00682300  0.94119400  1
  C  C9  1  0.11368900  0.01231700  0.04513900  1
  C  C10  1  0.03681900  0.00957800  0.10808600  1
  C  C11  1  0.17762700  0.01675100  0.88087300  1
  C  C12  1  0.27448500  0.02882600  0.92115500  1
  C  C13  1  0.29017400  0.03172000  0.02579900  1
  C  C14  1  0.20995400  0.02221800  0.08595900  1
  C  C15  1  0.07646400  0.96438400  0.37222000  1
  C  C16  1  0.09788500  0.06779300  0.37439400  1
  C  C17  1  0.08516600  0.09885200  0.27594600  1
  C  C18  1  0.05606000  0.01274800  0.21821700  1
  C  C19  1  0.70425400  0.02488300  0.15765300  1
  C  C20  1  0.48701300  0.86100600  0.34146000  1
  C  C21  1  0.39037900  0.05046500  0.07798800  1
  C  C22  1  0.51968500  0.21749400  0.30412200  1
  C  C23  1  0.52150300  0.87334200  0.70188700  1
  C  C24  1  0.67468500  0.02896000  0.93130800  1
  C  C25  1  0.55420700  0.23674100  0.66652100  1
  C  C26  1  0.35521600  0.03490200  0.85068100  1
  C  C27  1  0.50327000  0.66259200  0.53295600  1
  C  C28  1  0.50785100  0.71335500  0.62145800  1
  C  C29  1  0.52443600  0.67281900  0.71444600  1
  C  C30  1  0.53858500  0.58404200  0.72056100  1
  C  C31  1  0.53450000  0.53270900  0.63458800  1
  C  C32  1  0.51597400  0.57002000  0.54027400  1
  C  C33  1  0.54904400  0.44327100  0.64508600  1
  C  C34  1  0.54374400  0.38687700  0.56183500  1
  C  C35  1  0.52672200  0.42413500  0.46710800  1
  C  C36  1  0.51151300  0.51324600  0.45661500  1
  C  C37  1  0.55604300  0.29497000  0.57029900  1
  C  C38  1  0.55878600  0.24795300  0.48284700  1
  C  C39  1  0.54079100  0.28468400  0.38927000  1
  C  C40  1  0.52219200  0.37126900  0.38137200  1
  C  C41  1  0.49134000  0.70886400  0.43986800  1
  C  C42  1  0.48076300  0.80043700  0.43633200  1
  C  C43  1  0.47796900  0.84453800  0.52498900  1
  C  C44  1  0.49540600  0.80452800  0.61667200  1
  C  C45  1  0.95779900  0.95172800  0.79460400  1
  C  C46  1  0.99087300  0.03559200  0.71030900  1
  C  C47  1  0.98023200  0.86056200  0.77058100  1
  C  C48  1  0.08148800  0.89871500  0.46186700  1
  C  C49  1  0.97487100  0.80861500  0.47744300  1
  C  C50  1  0.16318300  0.85901400  0.44736300  1
  N  N1  1  0.05123900  0.93126000  0.27700000  1
  O  O1  1  0.63687600  0.06148300  0.12571200  1
  O  O2  1  0.48432900  0.82310900  0.25276200  1
  O  O3  1  0.70619800  0.99546700  0.25313700  1
  O  O4  1  0.50781500  0.95894000  0.34951700  1
  O  O5  1  0.39190900  0.99080400  0.15651800  1
  O  O6  1  0.47316500  0.13813600  0.06089600  1
  O  O7  1  0.59522600  0.19625200  0.27444100  1
  O  O8  1  0.42184300  0.15209500  0.28580900  1
  O  O9  1  0.46490500  0.92443900  0.71341700  1
  O  O10  1  0.61683600  0.90814100  0.74201300  1
  O  O11  1  0.68646000  0.08888400  0.84953200  1
  O  O12  1  0.58079100  0.95834100  0.95405800  1
  O  O13  1  0.33085500  0.01922700  0.75398900  1
  O  O14  1  0.59282600  0.16804000  0.66782100  1
  O  O15  1  0.45139100  0.05618500  0.88357300  1
  O  O16  1  0.49463800  0.23497100  0.73985400  1
