# Generated by REPEAT Assigner based on pymatgen
data_DB0-m3_o12_o17_f0_pcu.sym.26
_audit_creation_date              2022-05-24
_audit_creation_method            REPEAT_Assigner
_cell_length_a                    10.242081
_cell_length_b                    11.398144
_cell_length_c                    15.068677
_cell_angle_alpha                 90.004817
_cell_angle_beta                  80.657829
_cell_angle_gamma                 92.471560
_cell_volume                      1734.138465
_symmetry_space_group_name_H-M    P1
_symmetry_Int_Tables_number       1
loop_
    _symmetry_equiv_pos_site_id
    _symmetry_equiv_pos_as_xyz
    1  x,y,z
loop_
    _atom_site_type_symbol
    _atom_site_label
    _atom_site_fract_x
    _atom_site_fract_y
    _atom_site_fract_z
    _atom_type_partial_charge
    O   O1    0.421779  0.687332  0.513022  -0.612934
    O   O2    0.578222  0.312668  0.486979  -0.612890
    O   O3    0.646474  0.659377  0.489411  -0.648595
    O   O4    0.353526  0.340622  0.510590  -0.648279
    C   C1    0.545546  0.727987  0.500593  0.629314
    C   C2    0.454454  0.272012  0.499408  0.628901
    O   O5    0.381158  0.508766  0.644023  -0.751442
    O   O6    0.618842  0.491233  0.355977  -0.751475
    O   O7    0.605836  0.479523  0.621579  -0.713172
    O   O8    0.394164  0.520476  0.378422  -0.713447
    C   C3    0.492306  0.492887  0.674181  1.016240
    C   C4    0.507694  0.507113  0.325820  1.016465
    Zn  Zn1   0.351656  0.518226  0.514515  1.067785
    Zn  Zn2   0.648344  0.481774  0.485485  1.067701
    C   C5    0.478432  0.399289  0.189662  -0.005070
    C   C6    0.521568  0.600710  0.810338  -0.005203
    C   C7    0.508594  0.503584  0.228878  -0.196822
    C   C8    0.491406  0.496416  0.771123  -0.196742
    C   C9    0.535458  0.604290  0.179227  -0.058933
    C   C10   0.464542  0.395709  0.820773  -0.058856
    C   C11   0.531361  0.603176  0.088112  0.058858
    C   C12   0.468640  0.396823  0.911888  0.058779
    C   C13   0.501740  0.499337  0.046183  -0.026153
    C   C14   0.498260  0.500662  0.953818  -0.026225
    C   C15   0.475829  0.394961  0.096599  0.149324
    C   C16   0.524171  0.605038  0.903402  0.149463
    C   C17   0.555665  0.706134  0.038813  0.065700
    C   C18   0.444335  0.293865  0.961187  0.065740
    C   C19   0.551782  0.708536  0.948420  -0.134880
    C   C20   0.448218  0.291464  0.051581  -0.134766
    H   H1    0.557553  0.682790  0.214713  0.026598
    H   H2    0.442447  0.317210  0.785287  0.026595
    C   C21   0.575039  0.854103  0.511833  -0.008861
    C   C22   0.424962  0.145896  0.488167  -0.008511
    C   C23   0.494933  0.935789  0.487987  -0.039634
    C   C24   0.505067  0.064210  0.512014  -0.040169
    N   N1    0.843516  0.458518  0.467213  -0.090600
    N   N2    0.156484  0.541481  0.532787  -0.090752
    C   C25   0.927713  0.511872  0.510183  0.050730
    C   C26   0.072287  0.488127  0.489818  0.051235
    H   H3    0.121106  0.600445  0.581098  0.133338
    H   H4    0.878893  0.399554  0.418903  0.133386
    Br  Br1   0.440317  0.272506  0.274491  -0.014994
    Br  Br2   0.559683  0.727493  0.725510  -0.014991
    Br  Br3   0.594698  0.853800  0.091444  -0.051837
    Br  Br4   0.405303  0.146199  0.908556  -0.051921
    Br  Br5   0.583509  0.863808  0.899025  0.010408
    Br  Br6   0.416492  0.136191  0.100975  0.010314
    Br  Br7   0.605879  0.116276  0.603011  0.046607
    Br  Br8   0.394122  0.883723  0.396990  0.046317
    Br  Br9   0.253504  0.112706  0.456189  0.018021
    Br  Br10  0.746496  0.887293  0.543812  0.017986
    Br  Br11  0.136238  0.377287  0.398565  0.081021
    Br  Br12  0.863762  0.622713  0.601436  0.081325
