# generated using pymatgen
data_Zn2H25C48N3O11
_symmetry_space_group_name_H-M   'P 1'
_cell_length_a   13.45477100
_cell_length_b   15.36564700
_cell_length_c   11.74292400
_cell_angle_alpha   90.00000000
_cell_angle_beta   90.14602200
_cell_angle_gamma   90.00000000
_symmetry_Int_Tables_number   1
_chemical_formula_structural   Zn2H25C48N3O11
_chemical_formula_sum   'Zn2 H25 C48 N3 O11'
_cell_volume   2427.73903892
_cell_formula_units_Z   1
loop_
 _symmetry_equiv_pos_site_id
 _symmetry_equiv_pos_as_xyz
  1  'x, y, z'
loop_
 _atom_site_type_symbol
 _atom_site_label
 _atom_site_symmetry_multiplicity
 _atom_site_fract_x
 _atom_site_fract_y
 _atom_site_fract_z
 _atom_site_occupancy
  Zn  Zn1  1  0.89294800  0.50193800  0.49118200  1
  Zn  Zn2  1  0.11496200  0.50171200  0.48906800  1
  H  H1  1  0.13350400  0.20275300  0.93362200  1
  H  H2  1  0.13264300  0.79949700  0.93579500  1
  H  H3  1  0.86648300  0.26096900  0.65874600  1
  H  H4  1  0.86821700  0.74353300  0.65684000  1
  H  H5  1  0.85837000  0.13352000  0.77998900  1
  H  H6  1  0.85988600  0.87097900  0.77805700  1
  H  H7  1  0.85384400  0.19418200  0.07548700  1
  H  H8  1  0.85450600  0.80921100  0.07536400  1
  H  H9  1  0.15210200  0.27103500  0.29625400  1
  H  H10  1  0.15231800  0.73387000  0.29787600  1
  H  H11  1  0.85094200  0.32221100  0.19942600  1
  H  H12  1  0.85179000  0.68140900  0.19966000  1
  H  H13  1  0.15260200  0.14222700  0.17591300  1
  H  H14  1  0.15261700  0.86251100  0.17716100  1
  H  H15  1  0.98220200  0.00180300  0.78310900  1
  H  H16  1  0.01628700  0.00206200  0.19914600  1
  H  H17  1  0.24826700  0.51148700  0.66217200  1
  H  H18  1  0.74945100  0.49622200  0.31802200  1
  H  H19  1  0.59732300  0.49100400  0.21879900  1
  H  H20  1  0.42363900  0.51210600  0.67960500  1
  H  H21  1  0.57974600  0.50739200  0.68470000  1
  H  H22  1  0.75709700  0.50744300  0.67511700  1
  H  H23  1  0.18919900  0.51366500  0.25019000  1
  H  H24  1  0.15587100  0.42011100  0.79982700  1
  H  H25  1  0.15126900  0.58105000  0.80505000  1
  C  C1  1  0.00445600  0.30751300  0.72763200  1
  C  C2  1  0.00477000  0.69585600  0.72800600  1
  C  C3  1  0.99299300  0.08011600  0.93238400  1
  C  C4  1  0.99325200  0.92352500  0.93249800  1
  C  C5  1  0.07453500  0.21734200  0.87406500  1
  C  C6  1  0.07413600  0.78552100  0.87540200  1
  C  C7  1  0.92496000  0.25057800  0.72050700  1
  C  C8  1  0.92603700  0.75347600  0.71953600  1
  C  C9  1  0.07925800  0.29160000  0.80740800  1
  C  C10  1  0.07858300  0.71109300  0.80905800  1
  C  C11  1  0.99502400  0.16083800  0.86571400  1
  C  C12  1  0.99534000  0.84272200  0.86585100  1
  C  C13  1  0.92050600  0.17768800  0.78834900  1
  C  C14  1  0.92152200  0.82638500  0.78736400  1
  C  C15  1  0.00159300  0.30622200  0.25569300  1
  C  C16  1  0.00214300  0.69809700  0.25666500  1
  C  C17  1  0.00378600  0.08010000  0.04985200  1
  C  C18  1  0.00401200  0.92375900  0.05002800  1
  C  C19  1  0.91976500  0.21189100  0.12293400  1
  C  C20  1  0.92032700  0.79186000  0.12322000  1
  C  C21  1  0.08638400  0.25579200  0.24707600  1
  C  C22  1  0.08670500  0.74882900  0.24836100  1
  C  C23  1  0.91805000  0.28383300  0.19350100  1
  C  C24  1  0.91871300  0.72005900  0.19400900  1
  C  C25  1  0.00400400  0.16071000  0.11644900  1
  C  C26  1  0.00434200  0.84332700  0.11697700  1
  C  C27  1  0.08681400  0.18251500  0.17955600  1
  C  C28  1  0.08700900  0.82198900  0.18062600  1
  C  C29  1  0.98672000  0.00179700  0.87502800  1
  C  C30  1  0.01016600  0.00198200  0.10733100  1
  C  C31  1  0.00747100  0.62286200  0.64681900  1
  C  C32  1  0.00694000  0.38036200  0.64623500  1
  C  C33  1  0.00075200  0.62444300  0.33596200  1
  C  C34  1  0.00012600  0.37985400  0.33506500  1
  C  C35  1  0.30176600  0.49292400  0.38781900  1
  C  C36  1  0.29148500  0.50731300  0.58535000  1
  C  C37  1  0.39365500  0.50686300  0.59489200  1
  C  C38  1  0.45259700  0.50100900  0.49860400  1
  C  C39  1  0.40475900  0.49449100  0.39466500  1
  C  C40  1  0.61254900  0.50519000  0.60130900  1
  C  C41  1  0.55688300  0.50153600  0.50154200  1
  C  C42  1  0.60818200  0.49792600  0.39989500  1
  C  C43  1  0.55741400  0.49355700  0.29850600  1
  C  C44  1  0.71507400  0.50515700  0.59664700  1
  C  C45  1  0.71065600  0.49866900  0.39840700  1
  C  C46  1  0.25671200  0.48086700  0.27420000  1
  C  C47  1  0.16088500  0.35337500  0.82815300  1
  C  C48  1  0.15838100  0.64803600  0.83172500  1
  N  N1  1  0.24560900  0.50132500  0.48350100  1
  N  N2  1  0.45789000  0.49172100  0.29783200  1
  N  N3  1  0.76267000  0.50222200  0.49606100  1
  O  O1  1  0.09327200  0.59524900  0.60690400  1
  O  O2  1  0.09267800  0.40792100  0.60633000  1
  O  O3  1  0.92176300  0.59257100  0.61073800  1
  O  O4  1  0.92124200  0.41091000  0.61040700  1
  O  O5  1  0.91518200  0.59599500  0.37429700  1
  O  O6  1  0.91465200  0.40806900  0.37389100  1
  O  O7  1  0.08618500  0.59355800  0.37110400  1
  O  O8  1  0.08551800  0.41079700  0.37007600  1
  O  O9  1  0.29323900  0.43039900  0.20589100  1
  O  O10  1  0.23335900  0.33124200  0.88355600  1
  O  O11  1  0.23114900  0.66933100  0.88718400  1
