# generated using pymatgen
data_Zn2H34C41(N2O3)3
_symmetry_space_group_name_H-M   'P 1'
_cell_length_a   15.92003600
_cell_length_b   15.95018400
_cell_length_c   17.10207400
_cell_angle_alpha   89.99384400
_cell_angle_beta   89.11922900
_cell_angle_gamma   92.71814100
_symmetry_Int_Tables_number   1
_chemical_formula_structural   Zn2H34C41(N2O3)3
_chemical_formula_sum   'Zn2 H34 C41 N6 O9'
_cell_volume   4337.28699965
_cell_formula_units_Z   1
loop_
 _symmetry_equiv_pos_site_id
 _symmetry_equiv_pos_as_xyz
  1  'x, y, z'
loop_
 _atom_site_type_symbol
 _atom_site_label
 _atom_site_symmetry_multiplicity
 _atom_site_fract_x
 _atom_site_fract_y
 _atom_site_fract_z
 _atom_site_occupancy
  Zn  Zn1  1  0.59487600  0.50431100  0.50488900  1
  Zn  Zn2  1  0.40379900  0.49544100  0.49686400  1
  H  H1  1  0.60223500  0.92999500  0.41724700  1
  H  H2  1  0.58742300  0.06965300  0.40523600  1
  H  H3  1  0.36640800  0.05918300  0.47771000  1
  H  H4  1  0.43327500  0.07127200  0.39210800  1
  H  H5  1  0.44998700  0.93183900  0.38509300  1
  H  H6  1  0.37102300  0.91880000  0.46171900  1
  H  H7  1  0.54658700  0.06445700  0.61722000  1
  H  H8  1  0.52396400  0.92520200  0.62494200  1
  H  H9  1  0.63511600  0.08159700  0.49996000  1
  H  H10  1  0.63272000  0.94101400  0.51820800  1
  H  H11  1  0.41457200  0.93091100  0.59994900  1
  H  H12  1  0.61746000  0.50538200  0.75540700  1
  H  H13  1  0.60975900  0.50500600  0.89528900  1
  H  H14  1  0.65817100  0.50718100  0.11509600  1
  H  H15  1  0.64996000  0.50686200  0.25732900  1
  H  H16  1  0.34870400  0.49276700  0.74441300  1
  H  H17  1  0.38889100  0.49462300  0.10647200  1
  H  H18  1  0.34047900  0.49236700  0.88664500  1
  H  H19  1  0.38120300  0.49432900  0.24635500  1
  H  H20  1  0.73359900  0.42258600  0.41932600  1
  H  H21  1  0.88532200  0.42656500  0.42371000  1
  H  H22  1  0.12285600  0.39404400  0.39162000  1
  H  H23  1  0.27680100  0.40162400  0.39983900  1
  H  H24  1  0.72193800  0.59812800  0.60190800  1
  H  H25  1  0.11341400  0.57321400  0.57801000  1
  H  H26  1  0.87588400  0.60572100  0.61011400  1
  H  H27  1  0.26513500  0.57718100  0.58240800  1
  H  H28  1  0.38648000  0.16453800  0.70141500  1
  H  H29  1  0.49497400  0.16672500  0.67623400  1
  H  H30  1  0.39492600  0.02121900  0.76098400  1
  H  H31  1  0.50774300  0.02902800  0.74677300  1
  H  H32  1  0.51408000  0.16185700  0.82391500  1
  H  H33  1  0.47048000  0.07313700  0.87940400  1
  H  H34  1  0.40162400  0.14986600  0.84160600  1
  C  C1  1  0.50936100  0.50044000  0.34792600  1
  C  C2  1  0.49914400  0.33603400  0.50076600  1
  C  C3  1  0.48931200  0.49930000  0.65382600  1
  C  C4  1  0.49953300  0.66372100  0.50099100  1
  C  C5  1  0.58197700  0.05126300  0.46770700  1
  C  C6  1  0.42789300  0.04365100  0.45157800  1
  C  C7  1  0.43297000  0.94933200  0.44585700  1
  C  C8  1  0.49956100  0.75365500  0.50105800  1
  C  C9  1  0.49920000  0.07891600  0.50148100  1
  C  C10  1  0.58494100  0.95682900  0.47476400  1
  C  C11  1  0.49934700  0.92083100  0.50116200  1
  C  C12  1  0.47981200  0.95154300  0.58296900  1
  C  C13  1  0.48883100  0.04648300  0.58480700  1
  C  C14  1  0.49950000  0.82917400  0.50110800  1
  C  C15  1  0.49914700  0.17059200  0.50105400  1
  C  C16  1  0.49911600  0.24611100  0.50084000  1
  C  C17  1  0.51488400  0.50063100  0.26225400  1
  C  C18  1  0.44258600  0.49720300  0.21837400  1
  C  C19  1  0.44742600  0.49738200  0.13776900  1
  C  C20  1  0.52537200  0.50100800  0.10011400  1
  C  C21  1  0.59729400  0.50436900  0.14409100  1
  C  C22  1  0.59237900  0.50418700  0.22460100  1
  C  C23  1  0.55122700  0.50224400  0.86398800  1
  C  C24  1  0.55607500  0.50247200  0.78338300  1
  C  C25  1  0.47327700  0.49857600  0.90163700  1
  C  C26  1  0.48378200  0.49905500  0.73949800  1
  C  C27  1  0.40628200  0.49544300  0.77714500  1
  C  C28  1  0.40135900  0.49521200  0.85765500  1
  C  C29  1  0.23325700  0.53678200  0.54044000  1
  C  C30  1  0.14661700  0.53414400  0.53747500  1
  C  C31  1  0.10588000  0.48240000  0.48347000  1
  C  C32  1  0.15341500  0.43477700  0.43413000  1
  C  C33  1  0.23983700  0.43906900  0.43879500  1
  C  C34  1  0.85211900  0.46562900  0.46425200  1
  C  C35  1  0.76547900  0.46298400  0.46129500  1
  C  C36  1  0.89285800  0.51737200  0.51825700  1
  C  C37  1  0.75890200  0.56068900  0.56294700  1
  C  C38  1  0.84532400  0.56498900  0.56760400  1
  C  C39  1  0.43893600  0.12383800  0.68647200  1
  C  C40  1  0.45065700  0.06533000  0.75531300  1
  C  C41  1  0.45976300  0.11602900  0.82988800  1
  N  N1  1  0.53374600  0.50138100  0.01762900  1
  N  N2  1  0.46489800  0.49818800  0.98412300  1
  N  N3  1  0.27831400  0.48968500  0.49151300  1
  N  N4  1  0.01729000  0.47684700  0.47720400  1
  N  N5  1  0.98144700  0.52292700  0.52452000  1
  N  N6  1  0.72042300  0.51007200  0.51023200  1
  O  O1  1  0.57941400  0.50371000  0.38752200  1
  O  O2  1  0.43457300  0.49694600  0.38147000  1
  O  O3  1  0.57167200  0.37833500  0.50378800  1
  O  O4  1  0.42666000  0.37157600  0.49781300  1
  O  O5  1  0.56410100  0.50280200  0.62028300  1
  O  O6  1  0.41926000  0.49603800  0.61423000  1
  O  O7  1  0.57201300  0.62817500  0.50394600  1
  O  O8  1  0.42700400  0.62141800  0.49797100  1
  O  O9  1  0.41622000  0.07797400  0.61937100  1
