# generated using pymatgen
data_Fe2H48C97(S3O4)4
_symmetry_space_group_name_H-M   'P 1'
_cell_length_a   15.33604700
_cell_length_b   21.42945000
_cell_length_c   29.61781400
_cell_angle_alpha   94.38941900
_cell_angle_beta   76.17864000
_cell_angle_gamma   75.28644200
_symmetry_Int_Tables_number   1
_chemical_formula_structural   Fe2H48C97(S3O4)4
_chemical_formula_sum   'Fe2 H48 C97 S12 O16'
_cell_volume   9043.81924174
_cell_formula_units_Z   1
loop_
 _symmetry_equiv_pos_site_id
 _symmetry_equiv_pos_as_xyz
  1  'x, y, z'
loop_
 _atom_site_type_symbol
 _atom_site_label
 _atom_site_symmetry_multiplicity
 _atom_site_fract_x
 _atom_site_fract_y
 _atom_site_fract_z
 _atom_site_occupancy
  Fe  Fe1  1  0.60921100  0.01032300  0.90466700  1
  Fe  Fe2  1  0.43229600  0.03741000  0.11435800  1
  H  H1  1  0.69519500  0.06699800  0.12225300  1
  H  H2  1  0.85653200  0.07060900  0.10754000  1
  H  H3  1  0.89748000  0.01878500  0.96089300  1
  H  H4  1  0.00272700  0.07103900  0.05334900  1
  H  H5  1  0.04184600  0.97264900  0.96516800  1
  H  H6  1  0.18931400  0.97050200  0.91117900  1
  H  H7  1  0.35064000  0.97463100  0.89640500  1
  H  H8  1  0.14664700  0.02720800  0.05740300  1
  H  H9  1  0.33590700  0.58831300  0.48684100  1
  H  H10  1  0.57530200  0.38863100  0.48989600  1
  H  H11  1  0.21325000  0.53381800  0.67868000  1
  H  H12  1  0.74336900  0.47655500  0.31558500  1
  H  H13  1  0.62761900  0.57061600  0.31332000  1
  H  H14  1  0.96296400  0.80097300  0.68577300  1
  H  H15  1  0.08571800  0.72643800  0.61854400  1
  H  H16  1  0.33067200  0.73101000  0.36343900  1
  H  H17  1  0.04404100  0.23809900  0.32501700  1
  H  H18  1  0.88852700  0.29350700  0.38171900  1
  H  H19  1  0.53867500  0.22234300  0.59593000  1
  H  H20  1  0.58407600  0.15318700  0.65575400  1
  H  H21  1  0.94334000  0.68367700  0.81749000  1
  H  H22  1  0.81712900  0.76215900  0.88419300  1
  H  H23  1  0.65436700  0.75391700  0.21615400  1
  H  H24  1  0.07580600  0.35518900  0.19271100  1
  H  H25  1  0.21935100  0.28288600  0.13066800  1
  H  H26  1  0.50434000  0.21475200  0.86370800  1
  H  H27  1  0.45931000  0.28917800  0.80474800  1
  H  H28  1  0.19988100  0.43608200  0.66596100  1
  H  H29  1  0.26465600  0.41279000  0.70811300  1
  H  H30  1  0.22378800  0.32165400  0.73646300  1
  H  H31  1  0.19010900  0.21694000  0.72417400  1
  H  H32  1  0.18549600  0.17295700  0.64590800  1
  H  H33  1  0.21361800  0.23467900  0.57985900  1
  H  H34  1  0.24772900  0.33943700  0.59161700  1
  H  H35  1  0.25451200  0.82687500  0.34510500  1
  H  H36  1  0.28253600  0.84327400  0.28656900  1
  H  H37  1  0.26884700  0.95646400  0.29384200  1
  H  H38  1  0.30611200  0.05240400  0.32542900  1
  H  H39  1  0.39077400  0.04496600  0.38650800  1
  H  H40  1  0.43708900  0.94108400  0.41639500  1
  H  H41  1  0.40054600  0.84485700  0.38525300  1
  H  H42  1  0.74415000  0.83991900  0.16975600  1
  H  H43  1  0.69529400  0.86232100  0.12174700  1
  H  H44  1  0.85818600  0.74010200  0.15231300  1
  H  H45  1  0.92854400  0.63004000  0.10814500  1
  H  H46  1  0.85429500  0.58829400  0.05210000  1
  H  H47  1  0.70916200  0.65719800  0.04013800  1
  H  H48  1  0.63821900  0.76763600  0.08408000  1
  C  C1  1  0.73867100  0.05695700  0.08648700  1
  C  C2  1  0.83017600  0.05838400  0.07830300  1
  C  C3  1  0.88920400  0.04113400  0.03357400  1
  C  C4  1  0.85362000  0.02719200  0.99640000  1
  C  C5  1  0.76094600  0.02666600  0.00408700  1
  C  C6  1  0.70417800  0.03901400  0.05005000  1
  C  C7  1  0.98767300  0.04059300  0.02706800  1
  C  C8  1  0.05712900  0.00305500  0.99139800  1
  C  C9  1  0.21520800  0.98390700  0.94030700  1
  C  C10  1  0.30661600  0.98562200  0.93208000  1
  C  C11  1  0.34038600  0.00533400  0.96827900  1
  C  C12  1  0.28319200  0.01909500  0.01419600  1
  C  C13  1  0.19079900  0.01784200  0.02193100  1
  C  C14  1  0.15568800  0.00244100  0.98488600  1
  C  C15  1  0.58262900  0.08047000  0.83345100  1
  C  C16  1  0.43294200  0.01635300  0.95556600  1
  C  C17  1  0.72546100  0.01578900  0.96289100  1
  C  C18  1  0.73078300  0.88776100  0.86820200  1
  C  C19  1  0.31146000  0.16051700  0.14966900  1
  C  C20  1  0.31811000  0.03147800  0.05540900  1
  C  C21  1  0.61076900  0.02918200  0.06240100  1
  C  C22  1  0.51129800  0.93304300  0.15471200  1
  C  C23  1  0.48218900  0.55583600  0.41230900  1
  C  C24  1  0.56415100  0.53660100  0.37702100  1
  C  C25  1  0.63302500  0.48166300  0.37875100  1
  C  C26  1  0.61825800  0.44714200  0.41567700  1
  C  C27  1  0.53636200  0.46688800  0.45189700  1
  C  C28  1  0.46809600  0.52238700  0.45053200  1
  C  C29  1  0.52264200  0.43233800  0.48933800  1
  C  C30  1  0.44314700  0.45484600  0.52666900  1
  C  C31  1  0.37698500  0.51185200  0.52624600  1
  C  C32  1  0.38833200  0.54458400  0.48764800  1
  C  C33  1  0.42916600  0.42141400  0.56490800  1
  C  C34  1  0.35324900  0.44498100  0.60362000  1
  C  C35  1  0.29195400  0.50596700  0.60486500  1
  C  C36  1  0.30167600  0.53654400  0.56546700  1
  C  C37  1  0.22445800  0.54506200  0.64326900  1
  C  C38  1  0.17858500  0.60407900  0.63252200  1
  C  C39  1  0.42909900  0.34837500  0.62471200  1
  C  C40  1  0.34998300  0.40211800  0.63687500  1
  C  C41  1  0.71947200  0.45597800  0.34678400  1
  C  C42  1  0.77247500  0.40111400  0.35964200  1
  C  C43  1  0.48707200  0.62862700  0.35222700  1
  C  C44  1  0.56804000  0.57747500  0.34319900  1
  C  C45  1  0.10947300  0.65263400  0.66486900  1
  C  C46  1  0.45442900  0.30126800  0.65265300  1
  C  C47  1  0.86209000  0.36530200  0.33416300  1
  C  C48  1  0.47354100  0.67844200  0.32499800  1
  C  C49  1  0.98867100  0.72581700  0.73075600  1
  C  C50  1  0.00130400  0.75286900  0.68974800  1
  C  C51  1  0.06842400  0.71196600  0.65294100  1
  C  C52  1  0.39110400  0.72768600  0.33481600  1
  C  C53  1  0.39323400  0.77500500  0.30599600  1
  C  C54  1  0.47889100  0.76226100  0.27206000  1
  C  C55  1  0.01503000  0.31084400  0.27889500  1
  C  C56  1  0.99740300  0.28141400  0.31851100  1
  C  C57  1  0.91217200  0.31171700  0.34936400  1
  C  C58  1  0.51433300  0.24034900  0.63311700  1
  C  C59  1  0.53841000  0.20233700  0.66581600  1
  C  C60  1  0.50149500  0.23418400  0.71130100  1
  C  C61  1  0.92338000  0.75880500  0.77208200  1
  C  C62  1  0.50315400  0.79943200  0.23669800  1
  C  C63  1  0.09845800  0.28268900  0.23958900  1
  C  C64  1  0.51943800  0.20487400  0.74958400  1
  C  C65  1  0.90715100  0.73226400  0.81328100  1
  C  C66  1  0.83883200  0.77442200  0.84932100  1
  C  C67  1  0.80220000  0.83377100  0.83629900  1
  C  C68  1  0.52171300  0.87530500  0.17866800  1
  C  C69  1  0.60558200  0.83190200  0.17887600  1
  C  C70  1  0.59489900  0.78935200  0.21094800  1
  C  C71  1  0.11801500  0.30959300  0.19879600  1
  C  C72  1  0.19553900  0.27081500  0.16541100  1
  C  C73  1  0.23617300  0.21378000  0.18021300  1
  C  C74  1  0.56333000  0.13399300  0.80634000  1
  C  C75  1  0.52048900  0.19798000  0.82650600  1
  C  C76  1  0.49484700  0.23774600  0.79474800  1
  C  C77  1  0.26102800  0.40090100  0.67167300  1
  C  C78  1  0.24136300  0.33654600  0.66446500  1
  C  C79  1  0.22310200  0.30250800  0.70176400  1
  C  C80  1  0.20363700  0.24366600  0.69499800  1
  C  C81  1  0.20092200  0.21904800  0.65115500  1
  C  C82  1  0.21678600  0.25361100  0.61413600  1
  C  C83  1  0.23632000  0.31244300  0.62080900  1
  C  C84  1  0.31132300  0.83487300  0.31713800  1
  C  C85  1  0.33542800  0.89327600  0.33591000  1
  C  C86  1  0.30734400  0.95226300  0.32015700  1
  C  C87  1  0.32771000  0.00650400  0.33810200  1
  C  C88  1  0.37501300  0.00238000  0.37237200  1
  C  C89  1  0.40108900  0.94412600  0.38905300  1
  C  C90  1  0.38085200  0.88979100  0.37115100  1
  C  C91  1  0.69975500  0.82808700  0.14772300  1
  C  C92  1  0.74323400  0.76097900  0.12120100  1
  C  C93  1  0.82497100  0.72230700  0.12773600  1
  C  C94  1  0.86468500  0.66031300  0.10294200  1
  C  C95  1  0.82306600  0.63689400  0.07152900  1
  C  C96  1  0.74169900  0.67550300  0.06484500  1
  C  C97  1  0.70184800  0.73748700  0.08961200  1
  S  S1  1  0.21798000  0.61425000  0.57241600  1
  S  S2  1  0.50457200  0.34403400  0.56764000  1
  S  S3  1  0.71473200  0.37839200  0.41330100  1
  S  S4  1  0.39998600  0.62721600  0.40446100  1
  S  S5  1  0.06388300  0.64467400  0.72523400  1
  S  S6  1  0.56212200  0.68828600  0.27679100  1
  S  S7  1  0.92284500  0.38189200  0.27858400  1
  S  S8  1  0.42964300  0.31615100  0.71567200  1
  S  S9  1  0.85180300  0.84069200  0.77651800  1
  S  S10  1  0.42230900  0.86099000  0.21734700  1
  S  S11  1  0.17988700  0.20568400  0.23876600  1
  S  S12  1  0.57680400  0.11953500  0.74449200  1
  O  O1  1  0.59847200  0.09037400  0.87473000  1
  O  O2  1  0.44247300  0.07346000  0.96908300  1
  O  O3  1  0.58065700  0.02248700  0.81683800  1
  O  O4  1  0.50196400  0.97387100  0.92418900  1
  O  O5  1  0.63519500  0.03048600  0.96661000  1
  O  O6  1  0.78473100  0.99564500  0.92121000  1
  O  O7  1  0.70644100  0.94442800  0.85367800  1
  O  O8  1  0.69302300  0.88040400  0.91141600  1
  O  O9  1  0.33731800  0.10481700  0.16524800  1
  O  O10  1  0.34857800  0.16657900  0.10605400  1
  O  O11  1  0.40792400  0.02162000  0.05140900  1
  O  O12  1  0.25941100  0.04732800  0.09744900  1
  O  O13  1  0.57439100  0.96516200  0.14994800  1
  O  O14  1  0.54501800  0.06869900  0.09703500  1
  O  O15  1  0.43299300  0.95703100  0.14326100  1
  O  O16  1  0.59791500  0.97500900  0.04506600  1
