# generated using pymatgen
data_ZnH9C13NO6
_symmetry_space_group_name_H-M   'P 1'
_cell_length_a   8.41417700
_cell_length_b   11.01267700
_cell_length_c   14.23280900
_cell_angle_alpha   90.00000000
_cell_angle_beta   90.00000000
_cell_angle_gamma   90.00000000
_symmetry_Int_Tables_number   1
_chemical_formula_structural   ZnH9C13NO6
_chemical_formula_sum   'Zn2 H18 C26 N2 O12'
_cell_volume   1318.84927970
_cell_formula_units_Z   2
loop_
 _symmetry_equiv_pos_site_id
 _symmetry_equiv_pos_as_xyz
  1  'x, y, z'
loop_
 _atom_site_type_symbol
 _atom_site_label
 _atom_site_symmetry_multiplicity
 _atom_site_fract_x
 _atom_site_fract_y
 _atom_site_fract_z
 _atom_site_occupancy
  Zn  Zn1  1  0.50159800  0.51403800  0.89558900  1
  Zn  Zn2  1  0.50158400  0.48181500  0.10563300  1
  H  H1  1  0.74530000  0.90549200  0.99501300  1
  H  H2  1  0.25787700  0.90548900  0.99499300  1
  H  H3  1  0.25788400  0.09032600  0.00619000  1
  H  H4  1  0.74530200  0.09032900  0.00621000  1
  H  H5  1  0.00159000  0.58421900  0.04414300  1
  H  H6  1  0.00159100  0.41161700  0.95711000  1
  H  H7  1  0.75515000  0.51194000  0.57503600  1
  H  H8  1  0.75479900  0.48407400  0.42328000  1
  H  H9  1  0.24897500  0.49547200  0.57854000  1
  H  H10  1  0.24818900  0.47900700  0.42572600  1
  H  H11  1  0.38429400  0.68205500  0.56431900  1
  H  H12  1  0.39156800  0.66309600  0.40633500  1
  H  H13  1  0.59835300  0.68994200  0.56604900  1
  H  H14  1  0.60568800  0.66512900  0.40855200  1
  H  H15  1  0.23476200  0.30562300  0.38848100  1
  H  H16  1  0.42161900  0.27399000  0.57858600  1
  H  H17  1  0.59981200  0.26084500  0.46257200  1
  H  H18  1  0.78357100  0.35411800  0.63999100  1
  C  C1  1  0.86066500  0.74095400  0.02120500  1
  C  C2  1  0.14251200  0.74095200  0.02119100  1
  C  C3  1  0.85949300  0.86466200  0.00637400  1
  C  C4  1  0.14368500  0.86466000  0.00636200  1
  C  C5  1  0.00159000  0.93032500  0.00488300  1
  C  C6  1  0.00159000  0.68118100  0.03370100  1
  C  C7  1  0.14369000  0.13116700  0.99483700  1
  C  C8  1  0.85949400  0.13116900  0.99484900  1
  C  C9  1  0.14251800  0.25488000  0.98001700  1
  C  C10  1  0.86066700  0.25488200  0.98003200  1
  C  C11  1  0.00159100  0.31465700  0.96754000  1
  C  C12  1  0.00159100  0.06550800  0.99632800  1
  C  C13  1  0.28632200  0.66748700  0.01424600  1
  C  C14  1  0.71685500  0.66748900  0.01426000  1
  C  C15  1  0.71682900  0.32833200  0.98697200  1
  C  C16  1  0.28635700  0.32833000  0.98695800  1
  C  C17  1  0.35414800  0.44036600  0.55889900  1
  C  C18  1  0.35223300  0.42779300  0.45248800  1
  C  C19  1  0.65561800  0.44960300  0.55827900  1
  C  C20  1  0.65356900  0.43163400  0.45229800  1
  C  C21  1  0.50176400  0.51043900  0.58935100  1
  C  C22  1  0.50146800  0.48550500  0.41193600  1
  C  C23  1  0.49847300  0.61972400  0.43717200  1
  C  C24  1  0.49506400  0.63465500  0.54340500  1
  C  C25  1  0.50153100  0.47313800  0.30957200  1
  C  C26  1  0.50167500  0.52312700  0.69169200  1
  N  N1  1  0.50157000  0.46712300  0.22841000  1
  N  N2  1  0.50161400  0.52924700  0.77284900  1
  O  O1  1  0.33655900  0.61297700  0.09059100  1
  O  O2  1  0.33847600  0.64050000  0.92984900  1
  O  O3  1  0.66666667  0.61297800  0.09060400  1
  O  O4  1  0.66471000  0.64050000  0.92986200  1
  O  O5  1  0.66666667  0.38288900  0.91064000  1
  O  O6  1  0.66472700  0.35537000  0.07136500  1
  O  O7  1  0.33654800  0.38288800  0.91062600  1
  O  O8  1  0.33845100  0.35536900  0.07135200  1
  O  O9  1  0.33618400  0.30736000  0.42371400  1
  O  O10  1  0.34080200  0.32872200  0.60528900  1
  O  O11  1  0.67466500  0.31031000  0.42561100  1
  O  O12  1  0.68157800  0.34133500  0.60675300  1
