# Generated by REPEAT Assigner based on pymatgen
data_DB0-m2_o14_o20_f0_nbo.sym.86
_audit_creation_date              2022-05-24
_audit_creation_method            REPEAT_Assigner
_cell_length_a                    28.861081
_cell_length_b                    30.449740
_cell_length_c                    21.038798
_cell_angle_alpha                 90.000000
_cell_angle_beta                  133.301331
_cell_angle_gamma                 90.000000
_cell_volume                      13455.610360
_symmetry_space_group_name_H-M    P1
_symmetry_Int_Tables_number       1
loop_
    _symmetry_equiv_pos_site_id
    _symmetry_equiv_pos_as_xyz
    1  x,y,z
loop_
    _atom_site_type_symbol
    _atom_site_label
    _atom_site_fract_x
    _atom_site_fract_y
    _atom_site_fract_z
    _atom_type_partial_charge
    O   O1    0.322925  0.246608  0.145117  -0.598138
    O   O2    0.680348  0.783000  0.859598  -0.576523
    O   O3    0.678093  0.245946  0.856530  -0.606855
    O   O4    0.321013  0.782208  0.142087  -0.581171
    O   O5    0.822925  0.746608  0.145117  -0.598130
    O   O6    0.180348  0.283000  0.859598  -0.576526
    O   O7    0.178093  0.745946  0.856530  -0.606851
    O   O8    0.821013  0.282208  0.142087  -0.581169
    O   O9    0.263923  0.192950  0.039307  -0.553845
    O   O10   0.737932  0.836795  0.965446  -0.561027
    O   O11   0.736891  0.192222  0.962196  -0.556004
    O   O12   0.263423  0.836062  0.036374  -0.586064
    O   O13   0.763923  0.692950  0.039307  -0.553825
    O   O14   0.237932  0.336795  0.965446  -0.561020
    O   O15   0.236891  0.692222  0.962196  -0.556006
    O   O16   0.763423  0.336062  0.036374  -0.586075
    C   C1    0.306617  0.205420  0.121257  0.629665
    C   C2    0.695570  0.824255  0.883525  0.594861
    C   C3    0.694216  0.204722  0.880253  0.632215
    C   C4    0.305608  0.823473  0.118291  0.626615
    C   C5    0.806617  0.705420  0.121257  0.629659
    C   C6    0.195570  0.324255  0.883525  0.594809
    C   C7    0.194216  0.704722  0.880253  0.632194
    C   C8    0.805608  0.323473  0.118291  0.626609
    O   O17   0.345548  0.290693  0.054509  -0.595176
    O   O18   0.656626  0.739440  0.949308  -0.610780
    O   O19   0.655728  0.290089  0.947380  -0.591059
    O   O20   0.344350  0.738513  0.052010  -0.607888
    O   O21   0.845548  0.790693  0.054509  -0.595182
    O   O22   0.156626  0.239440  0.949308  -0.610792
    O   O23   0.155728  0.790089  0.947380  -0.591069
    O   O24   0.844350  0.238513  0.052010  -0.607860
    O   O25   0.293835  0.233900  0.954750  -0.626317
    O   O26   0.709247  0.795381  0.051007  -0.604684
    O   O27   0.707414  0.233301  0.047163  -0.623102
    O   O28   0.291886  0.794570  0.950581  -0.600609
    O   O29   0.793835  0.733900  0.954750  -0.626305
    O   O30   0.209247  0.295381  0.051007  -0.604671
    O   O31   0.207414  0.733301  0.047163  -0.623111
    O   O32   0.791886  0.294570  0.950581  -0.600590
    C   C9    0.341443  0.261496  0.005033  0.808633
    C   C10   0.661102  0.768299  0.999539  0.792571
    C   C11   0.659878  0.260961  0.996988  0.803602
    C   C12   0.339868  0.767342  0.001730  0.802073
    C   C13   0.841443  0.761496  0.005033  0.808644
    C   C14   0.161102  0.268299  0.999539  0.792559
    C   C15   0.159878  0.760961  0.996988  0.803602
    C   C16   0.839867  0.267342  0.001730  0.802043
    Cu  Cu1   0.282768  0.295911  0.063498  0.970150
    Cu  Cu2   0.719884  0.733766  0.941301  0.980657
    Cu  Cu3   0.718438  0.295211  0.938246  0.984539
    Cu  Cu4   0.281229  0.733002  0.060307  0.975496
    Cu  Cu5   0.782768  0.795911  0.063498  0.970160
    Cu  Cu6   0.219884  0.233766  0.941301  0.980594
    Cu  Cu7   0.218438  0.795211  0.938246  0.984597
    Cu  Cu8   0.781229  0.233002  0.060307  0.975538
    C   C17   0.390852  0.260303  0.004458  -0.235880
    C   C18   0.611440  0.769616  0.999552  -0.217762
    C   C19   0.610589  0.259917  0.997810  -0.233320
    C   C20   0.389494  0.768683  0.001641  -0.241271
    C   C21   0.890852  0.760303  0.004458  -0.235873
    C   C22   0.111440  0.269616  0.999552  -0.217776
    C   C23   0.110589  0.759917  0.997810  -0.233327
    C   C24   0.889494  0.268683  0.001641  -0.241257
    C   C25   0.432103  0.259598  0.003478  0.081265
    C   C26   0.569838  0.770250  0.999808  0.072556
    C   C27   0.569403  0.259351  0.998922  0.086167
    C   C28   0.431067  0.769568  0.001335  0.088033
    C   C29   0.932103  0.759598  0.003478  0.081259
    C   C30   0.069838  0.270250  0.999808  0.072568
    C   C31   0.069403  0.759351  0.998922  0.086171
    C   C32   0.931067  0.269568  0.001335  0.088043
    C   C33   0.480254  0.259133  0.001951  -0.023801
    C   C34   0.521188  0.770471  0.000309  -0.017341
    C   C35   0.521288  0.259058  0.000524  -0.021550
    C   C36   0.479697  0.770252  0.000802  -0.026898
    C   C37   0.980254  0.759133  0.001951  -0.023793
    C   C38   0.021188  0.270471  0.000309  -0.017346
    C   C39   0.021288  0.759058  0.000524  -0.021561
    C   C40   0.979697  0.270252  0.000802  -0.026910
    C   C41   0.238554  0.151578  0.146265  -0.342898
    C   C42   0.718603  0.834287  0.772056  -0.326635
    C   C43   0.762180  0.147450  0.859113  -0.343889
    C   C44   0.288247  0.829510  0.236738  -0.276176
    C   C45   0.738554  0.651578  0.146265  -0.342903
    C   C46   0.218603  0.334287  0.772056  -0.326516
    C   C47   0.262180  0.647450  0.859113  -0.343912
    C   C48   0.788247  0.329510  0.236738  -0.276145
    H   H1    0.213505  0.178673  0.101146  0.210283
    H   H2    0.748187  0.811699  0.826124  0.204305
    H   H3    0.788049  0.174397  0.904411  0.209971
    H   H4    0.259161  0.806412  0.183534  0.199351
    H   H5    0.713505  0.678673  0.101146  0.210289
    H   H6    0.248187  0.311699  0.826124  0.204296
    H   H7    0.288049  0.674397  0.904411  0.209977
    H   H8    0.759161  0.306412  0.183534  0.199343
    C   C49   0.203885  0.124242  0.152511  -0.108299
    C   C50   0.727968  0.836519  0.716267  -0.124962
    C   C51   0.796476  0.118287  0.854998  -0.103454
    C   C52   0.282112  0.830002  0.295974  -0.183849
    C   C53   0.703885  0.624242  0.152511  -0.108365
    C   C54   0.227968  0.336519  0.716267  -0.125169
    C   C55   0.296476  0.618287  0.854998  -0.103415
    C   C56   0.782112  0.330002  0.295974  -0.183806
    H   H9    0.154062  0.131382  0.112233  0.101394
    H   H10   0.764180  0.815847  0.729802  0.120251
    H   H11   0.846887  0.123832  0.897085  0.102269
    H   H12   0.249762  0.807275  0.288233  0.125368
    H   H13   0.654062  0.631382  0.112233  0.101417
    H   H14   0.264180  0.315847  0.729802  0.120285
    H   H15   0.346887  0.623832  0.897085  0.102260
    H   H16   0.749762  0.307275  0.288233  0.125356
    C   C57   0.232830  0.088897  0.208991  0.317269
    C   C58   0.691601  0.864568  0.645445  0.305576
    C   C59   0.766445  0.083115  0.798194  0.291372
    C   C60   0.317790  0.858339  0.365889  0.332832
    C   C61   0.732830  0.588897  0.208991  0.317378
    C   C62   0.191601  0.364568  0.645445  0.305978
    C   C63   0.266445  0.583115  0.798194  0.291372
    C   C64   0.817790  0.358339  0.365889  0.332613
    C   C65   0.297215  0.082297  0.260690  -0.346190
    C   C66   0.646942  0.890875  0.632805  -0.349809
    C   C67   0.701448  0.078616  0.743675  -0.322675
    C   C68   0.358675  0.887391  0.374449  -0.310047
    C   C69   0.797215  0.582297  0.260690  -0.346169
    C   C70   0.146942  0.390875  0.632805  -0.350275
    C   C71   0.201448  0.578616  0.743675  -0.322629
    C   C72   0.858675  0.387391  0.374449  -0.309767
    H   H17   0.317604  0.053397  0.301233  0.167281
    H   H18   0.617291  0.910567  0.574418  0.148818
    H   H19   0.679982  0.050017  0.702296  0.150594
    H   H20   0.387035  0.908845  0.429895  0.184748
    H   H21   0.817604  0.553397  0.301233  0.167276
    H   H22   0.117291  0.410567  0.574418  0.148969
    H   H23   0.179982  0.550017  0.702296  0.150579
    H   H24   0.887035  0.408845  0.429895  0.184646
    C   C73   0.333447  0.110903  0.258132  0.118178
    C   C74   0.639391  0.890748  0.691355  0.166259
    C   C75   0.665852  0.108832  0.744650  0.086933
    C   C76   0.363245  0.888688  0.312786  0.042651
    C   C77   0.833447  0.610903  0.258132  0.118120
    C   C78   0.139391  0.390748  0.691355  0.166569
    C   C79   0.165852  0.608832  0.744650  0.086892
    C   C80   0.863245  0.388688  0.312786  0.042634
    C   C81   0.303166  0.144729  0.197438  0.224044
    C   C82   0.673830  0.860794  0.759609  0.171748
    C   C83   0.696973  0.142439  0.805802  0.236870
    C   C84   0.329631  0.858196  0.245362  0.233086
    C   C85   0.803166  0.644729  0.197438  0.224072
    C   C86   0.173830  0.360794  0.759609  0.171542
    C   C87   0.196973  0.642439  0.805802  0.236889
    C   C88   0.829631  0.358196  0.245362  0.232995
    C   C89   0.337734  0.171645  0.189121  -0.274297
    C   C90   0.663719  0.857773  0.815239  -0.180450
    C   C91   0.662594  0.170951  0.812222  -0.277617
    C   C92   0.337003  0.856981  0.186610  -0.276187
    C   C93   0.837734  0.671645  0.189121  -0.274316
    C   C94   0.163719  0.357773  0.815239  -0.180340
    C   C95   0.162594  0.670951  0.812222  -0.277632
    C   C96   0.837003  0.356981  0.186610  -0.276164
    C   C97   0.402304  0.165379  0.242492  0.379940
    C   C98   0.620113  0.884858  0.803514  0.297976
    C   C99   0.597481  0.166359  0.756532  0.366482
    C   C100  0.376720  0.886518  0.194174  0.414586
    C   C101  0.902304  0.665379  0.242492  0.379963
    C   C102  0.120113  0.384858  0.803514  0.297854
    C   C103  0.097481  0.666359  0.756532  0.366499
    C   C104  0.876720  0.386518  0.194174  0.414655
    H   H25   0.483111  0.127649  0.346284  0.202911
    H   H26   0.554070  0.937284  0.729116  0.167332
    H   H27   0.515686  0.129932  0.650769  0.210078
    H   H28   0.439905  0.940626  0.265765  0.201367
    H   H29   0.983111  0.627649  0.346284  0.202914
    H   H30   0.054070  0.437284  0.729116  0.167316
    H   H31   0.015686  0.629931  0.650769  0.210088
    H   H32   0.939905  0.440626  0.265765  0.201397
    C   C105  0.432510  0.132308  0.303844  -0.351166
    C   C106  0.586912  0.915275  0.736890  -0.252479
    C   C107  0.566606  0.133430  0.694864  -0.365491
    C   C108  0.409298  0.917202  0.260232  -0.359408
    C   C109  0.932510  0.632308  0.303844  -0.351208
    C   C110  0.086912  0.415275  0.736890  -0.252400
    C   C111  0.066606  0.633430  0.694864  -0.365525
    C   C112  0.909298  0.417202  0.260232  -0.359502
    C   C113  0.399016  0.105323  0.312932  -0.132494
    C   C114  0.596547  0.918925  0.681305  -0.216982
    C   C115  0.599921  0.105006  0.687656  -0.087767
    C   C116  0.402453  0.919018  0.318899  -0.110719
    C   C117  0.899016  0.605323  0.312932  -0.132423
    C   C118  0.096547  0.418925  0.681305  -0.217055
    C   C119  0.099921  0.605006  0.687656  -0.087714
    C   C120  0.902453  0.419018  0.318899  -0.110665
    O   O33   0.997420  0.460627  0.425019  -0.593596
    O   O34   0.019911  0.549297  0.610050  -0.601299
    O   O35   0.001384  0.460504  0.575112  -0.613332
    O   O36   0.978729  0.549412  0.390221  -0.587607
    O   O37   0.497420  0.960627  0.425019  -0.593570
    O   O38   0.519911  0.049297  0.610050  -0.601302
    O   O39   0.501384  0.960504  0.575112  -0.613360
    O   O40   0.478730  0.049412  0.390221  -0.587626
    O   O41   0.907630  0.477765  0.400101  -0.589944
    O   O42   0.072923  0.566707  0.566129  -0.561475
    O   O43   0.091115  0.477828  0.600062  -0.547568
    O   O44   0.925721  0.566643  0.434179  -0.571559
    O   O45   0.407630  0.977765  0.400101  -0.589978
    O   O46   0.572923  0.066707  0.566129  -0.561462
    O   O47   0.591115  0.977828  0.600062  -0.547603
    O   O48   0.425721  0.066643  0.434179  -0.571542
    C   C121  0.937712  0.453538  0.385782  0.725733
    C   C122  0.063389  0.571547  0.618905  0.699829
    C   C123  0.061112  0.453451  0.614321  0.759736
    C   C124  0.935171  0.571585  0.381312  0.727829
    C   C125  0.437712  0.953538  0.385782  0.725770
    C   C126  0.563389  0.071547  0.618905  0.699844
    C   C127  0.561112  0.953451  0.614321  0.759789
    C   C128  0.435171  0.071585  0.381312  0.727850
    Cu  Cu9   0.041589  0.513753  0.494393  0.877765
    Cu  Cu10  0.957121  0.513646  0.505829  0.917625
    Cu  Cu11  0.541589  0.013753  0.494393  0.877794
    Cu  Cu12  0.457121  0.013646  0.505829  0.917657
    N   N1    0.436312  0.192069  0.231298  -0.105065
    C   C129  0.477281  0.224723  0.297756  0.025669
    C   C130  0.546820  0.212296  0.356917  0.244735
    O   O49   0.561405  0.202732  0.307392  -0.436586
    C   C131  0.529899  0.163583  0.263431  0.324585
    C   C132  0.458475  0.170725  0.195173  -0.158906
    H   H33   0.465365  0.228579  0.337590  -0.004071
    H   H34   0.469267  0.256540  0.265848  0.041292
    H   H35   0.558903  0.184521  0.400069  -0.034511
    H   H36   0.575975  0.240743  0.399685  0.014240
    H   H37   0.543104  0.137106  0.309447  -0.039815
    H   H38   0.544874  0.152659  0.229519  0.001387
    H   H39   0.434246  0.138583  0.167003  0.047664
    H   H40   0.446302  0.191496  0.142225  0.087037
    N   N2    0.609521  0.880565  0.859615  -0.125156
    C   C133  0.644420  0.910557  0.932223  0.035393
    C   C134  0.601336  0.945855  0.918193  0.226593
    O   O50   0.549923  0.926652  0.901378  -0.452913
    C   C135  0.511871  0.907722  0.818553  0.355893
    C   C136  0.545821  0.869285  0.819407  -0.134287
    H   H41   0.682875  0.926210  0.940278  -0.007796
    H   H42   0.666010  0.892053  0.992489  0.053058
    H   H43   0.585252  0.968330  0.864866  -0.031122
    H   H44   0.628975  0.965655  0.978765  0.024637
    H   H45   0.496995  0.932423  0.768945  -0.019002
    H   H46   0.467793  0.895098  0.799610  0.001874
    H   H47   0.517827  0.857988  0.751468  0.027784
    H   H48   0.548526  0.841940  0.856633  0.074556
    N   N3    0.563514  0.194457  0.765887  -0.064863
    C   C137  0.523846  0.226961  0.698464  -0.004613
    C   C138  0.453839  0.215678  0.638449  0.262548
    O   O51   0.438098  0.207544  0.687029  -0.443619
    C   C139  0.468320  0.168298  0.731817  0.322675
    C   C140  0.539860  0.174636  0.801155  -0.168800
    H   H49   0.536581  0.229460  0.659421  0.001914
    H   H50   0.532452  0.259226  0.729449  0.044020
    H   H51   0.441242  0.187510  0.595755  -0.042396
    H   H52   0.425799  0.244251  0.595220  0.018821
    H   H53   0.455058  0.141378  0.686513  -0.039544
    H   H54   0.452243  0.158435  0.764818  0.002585
    H   H55   0.563189  0.142353  0.830354  0.052374
    H   H56   0.551804  0.196170  0.853119  0.082595
    N   N4    0.385140  0.883892  0.135580  -0.114057
    C   C141  0.355810  0.918261  0.071183  0.011316
    C   C142  0.404686  0.950280  0.091538  0.237389
    O   O52   0.452762  0.927797  0.104492  -0.441701
    C   C143  0.486706  0.904566  0.182533  0.344231
    C   C144  0.446128  0.867998  0.171693  -0.147357
    H   H57   0.321219  0.936293  0.068714  -0.006850
    H   H58   0.329897  0.903270  0.006330  0.049422
    H   H59   0.424371  0.971034  0.148568  -0.029367
    H   H60   0.380439  0.972556  0.034783  0.022399
    H   H61   0.504456  0.926613  0.237164  -0.045764
    H   H62   0.529007  0.889503  0.199553  -0.000333
    H   H63   0.471682  0.852599  0.236115  0.035075
    H   H64   0.438501  0.842800  0.127301  0.086580
    N   N5    0.936312  0.692069  0.231298  -0.105096
    C   C145  0.977281  0.724723  0.297756  0.025663
    C   C146  0.046820  0.712296  0.356917  0.244752
    O   O53   0.061405  0.702732  0.307392  -0.436597
    C   C147  0.029899  0.663583  0.263431  0.324571
    C   C148  0.958475  0.670725  0.195173  -0.158913
    H   H65   0.965365  0.728579  0.337590  -0.004073
    H   H66   0.969267  0.756540  0.265848  0.041290
    H   H67   0.058903  0.684521  0.400069  -0.034516
    H   H68   0.075975  0.740743  0.399685  0.014234
    H   H69   0.043104  0.637106  0.309447  -0.039812
    H   H70   0.044874  0.652659  0.229519  0.001393
    H   H71   0.934246  0.638583  0.167003  0.047669
    H   H72   0.946302  0.691496  0.142225  0.087039
    N   N6    0.109521  0.380565  0.859615  -0.125133
    C   C149  0.144420  0.410557  0.932223  0.035457
    C   C150  0.101336  0.445855  0.918193  0.226465
    O   O54   0.049923  0.426652  0.901378  -0.452880
    C   C151  0.011871  0.407722  0.818553  0.355889
    C   C152  0.045821  0.369285  0.819407  -0.134288
    H   H73   0.182875  0.426210  0.940278  -0.007792
    H   H74   0.166010  0.392053  0.992489  0.053022
    H   H75   0.085252  0.468330  0.864866  -0.031092
    H   H76   0.128975  0.465655  0.978765  0.024671
    H   H77   0.996995  0.432423  0.768945  -0.018998
    H   H78   0.967793  0.395098  0.799610  0.001873
    H   H79   0.017827  0.357988  0.751468  0.027791
    H   H80   0.048526  0.341940  0.856633  0.074552
    N   N7    0.063514  0.694457  0.765887  -0.064866
    C   C153  0.023846  0.726961  0.698464  -0.004618
    C   C154  0.953839  0.715678  0.638449  0.262566
    O   O55   0.938098  0.707544  0.687029  -0.443628
    C   C155  0.968320  0.668298  0.731817  0.322666
    C   C156  0.039860  0.674636  0.801155  -0.168810
    H   H81   0.036581  0.729460  0.659421  0.001913
    H   H82   0.032452  0.759226  0.729449  0.044019
    H   H83   0.941242  0.687510  0.595755  -0.042399
    H   H84   0.925799  0.744251  0.595220  0.018817
    H   H85   0.955058  0.641378  0.686513  -0.039539
    H   H86   0.952243  0.658435  0.764818  0.002593
    H   H87   0.063189  0.642353  0.830354  0.052377
    H   H88   0.051804  0.696170  0.853119  0.082601
    N   N8    0.885140  0.383892  0.135580  -0.113975
    C   C157  0.855810  0.418261  0.071183  0.011633
    C   C158  0.904686  0.450280  0.091538  0.237270
    O   O56   0.952762  0.427797  0.104492  -0.441689
    C   C159  0.986706  0.404566  0.182533  0.344279
    C   C160  0.946128  0.367998  0.171693  -0.147533
    H   H89   0.821219  0.436293  0.068714  -0.006940
    H   H90   0.829897  0.403270  0.006330  0.049318
    H   H91   0.924371  0.471034  0.148568  -0.029361
    H   H92   0.880439  0.472556  0.034783  0.022410
    H   H93   0.004456  0.426613  0.237164  -0.045771
    H   H94   0.029007  0.389503  0.199553  -0.000339
    H   H95   0.971682  0.352599  0.236115  0.035109
    H   H96   0.938501  0.342800  0.127301  0.086610
    N   N9    0.198467  0.059115  0.215700  -0.358695
    C   C161  0.215450  0.058430  0.297940  0.047416
    C   C162  0.167224  0.084256  0.290688  0.249831
    O   O57   0.106338  0.066785  0.224403  -0.420424
    C   C163  0.089581  0.075725  0.145629  0.260985
    C   C164  0.132249  0.050440  0.140361  0.074889
    H   H97   0.263097  0.073177  0.350151  0.029015
    H   H98   0.216138  0.023964  0.315618  0.035174
    H   H99   0.168879  0.119482  0.278979  -0.013538
    H   H100  0.179783  0.081670  0.353557  0.004963
    H   H101  0.091011  0.111471  0.137441  -0.020272
    H   H102  0.039845  0.064780  0.091153  -0.018325
    H   H103  0.120215  0.058307  0.079033  0.023725
    H   H104  0.123298  0.014883  0.139010  0.041498
    N   N10   0.698815  0.867376  0.585238  -0.263659
    C   C165  0.722543  0.908431  0.583324  0.038005
    C   C166  0.792657  0.904317  0.634044  0.267578
    O   O58   0.802281  0.870651  0.598944  -0.420227
    C   C167  0.788378  0.831307  0.617216  0.258747
    C   C168  0.718063  0.829132  0.567790  -0.074414
    H   H105  0.716212  0.934980  0.612822  0.019852
    H   H106  0.696187  0.917135  0.514628  0.028491
    H   H107  0.820447  0.898554  0.704221  -0.012409
    H   H108  0.809157  0.935722  0.628572  0.004295
    H   H109  0.818810  0.827294  0.688420  -0.017154
    H   H110  0.799316  0.803611  0.595080  0.018471
    H   H111  0.707209  0.798564  0.584033  0.050319
    H   H112  0.690532  0.828214  0.496933  0.080300
    N   N11   0.800352  0.051429  0.793970  -0.310981
    C   C169  0.786602  0.049887  0.714076  -0.005048
    C   C170  0.839190  0.072345  0.726742  0.274219
    O   O59   0.897632  0.052341  0.794875  -0.441561
    C   C171  0.912092  0.062264  0.871750  0.292850
    C   C172  0.864835  0.040311  0.871759  0.044093
    H   H113  0.741018  0.066728  0.660780  0.037605
    H   H114  0.783143  0.015129  0.695434  0.053237
    H   H115  0.840405  0.107902  0.739210  -0.017326
    H   H116  0.829020  0.068958  0.665691  0.003799
    H   H117  0.913725  0.098234  0.880856  -0.031780
    H   H118  0.960167  0.049252  0.927834  -0.007994
    H   H119  0.874976  0.049276  0.931338  0.034256
    H   H120  0.870757  0.004248  0.872953  0.030961
    N   N12   0.310573  0.857382  0.426157  -0.392728
    C   C173  0.364833  0.865508  0.517541  0.130210
    C   C174  0.362777  0.911668  0.543015  0.313277
    O   O60   0.304471  0.919345  0.518248  -0.451945
    C   C175  0.258098  0.918876  0.426974  0.267458
    C   C176  0.250603  0.872857  0.393973  0.050232
    H   H121  0.409962  0.860115  0.533823  0.007970
    H   H122  0.363598  0.841866  0.556451  0.024020
    H   H123  0.372152  0.936864  0.515071  -0.040801
    H   H124  0.401209  0.914462  0.614988  -0.048487
    H   H125  0.270086  0.942095  0.399447  -0.010335
    H   H126  0.212027  0.929357  0.404415  0.004323
    H   H127  0.214309  0.873310  0.321605  0.023149
    H   H128  0.234371  0.850750  0.417326  0.048528
    N   N13   0.698467  0.559115  0.215700  -0.358788
    C   C177  0.715450  0.558430  0.297940  0.047442
    C   C178  0.667224  0.584256  0.290688  0.249903
    O   O61   0.606338  0.566785  0.224403  -0.420396
    C   C179  0.589581  0.575725  0.145629  0.260701
    C   C180  0.632249  0.550440  0.140361  0.074993
    H   H129  0.763097  0.573177  0.350151  0.028992
    H   H130  0.716138  0.523964  0.315618  0.035193
    H   H131  0.668879  0.619482  0.278979  -0.013542
    H   H132  0.679783  0.581670  0.353557  0.004932
    H   H133  0.591011  0.611471  0.137441  -0.020225
    H   H134  0.539845  0.564780  0.091153  -0.018186
    H   H135  0.620215  0.558307  0.079033  0.023722
    H   H136  0.623298  0.514883  0.139010  0.041474
    N   N14   0.198815  0.367376  0.585238  -0.263829
    C   C181  0.222543  0.408431  0.583324  0.038144
    C   C182  0.292657  0.404317  0.634044  0.267631
    O   O62   0.302281  0.370651  0.598944  -0.420260
    C   C183  0.288378  0.331307  0.617216  0.258800
    C   C184  0.218063  0.329132  0.567790  -0.074480
    H   H137  0.216212  0.434980  0.612822  0.019797
    H   H138  0.196187  0.417135  0.514628  0.028450
    H   H139  0.320447  0.398554  0.704221  -0.012431
    H   H140  0.309157  0.435722  0.628572  0.004269
    H   H141  0.318810  0.327294  0.688420  -0.017168
    H   H142  0.299316  0.303611  0.595080  0.018460
    H   H143  0.207209  0.298564  0.584033  0.050324
    H   H144  0.190532  0.328214  0.496933  0.080325
    N   N15   0.300352  0.551429  0.793970  -0.310948
    C   C185  0.286602  0.549887  0.714076  -0.005004
    C   C186  0.339190  0.572345  0.726742  0.274218
    O   O63   0.397632  0.552341  0.794875  -0.441542
    C   C187  0.412092  0.562264  0.871750  0.292869
    C   C188  0.364835  0.540311  0.871759  0.044140
    H   H145  0.241018  0.566728  0.660780  0.037591
    H   H146  0.283143  0.515129  0.695434  0.053230
    H   H147  0.340405  0.607902  0.739210  -0.017327
    H   H148  0.329020  0.568958  0.665691  0.003796
    H   H149  0.413725  0.598234  0.880856  -0.031788
    H   H150  0.460167  0.549252  0.927834  -0.008022
    H   H151  0.374976  0.549276  0.931338  0.034225
    H   H152  0.370757  0.504248  0.872953  0.030955
    N   N16   0.810573  0.357382  0.426157  -0.392627
    C   C189  0.864833  0.365508  0.517541  0.130240
    C   C190  0.862777  0.411668  0.543015  0.313313
    O   O64   0.804471  0.419345  0.518248  -0.451965
    C   C191  0.758098  0.418876  0.426974  0.267490
    C   C192  0.750603  0.372857  0.393973  0.050225
    H   H153  0.909962  0.360115  0.533823  0.007951
    H   H154  0.863598  0.341866  0.556451  0.024004
    H   H155  0.872152  0.436864  0.515071  -0.040805
    H   H156  0.901209  0.414462  0.614988  -0.048499
    H   H157  0.770086  0.442095  0.399447  -0.010357
    H   H158  0.712027  0.429357  0.404415  0.004318
    H   H159  0.714309  0.373310  0.321605  0.023167
    H   H160  0.734371  0.350750  0.417326  0.048514
