# generated using pymatgen
data_ZnH6C15I2N3O4
_symmetry_space_group_name_H-M   'P 1'
_cell_length_a   11.91449200
_cell_length_b   15.92082500
_cell_length_c   17.09388800
_cell_angle_alpha   89.11878300
_cell_angle_beta   89.99163200
_cell_angle_gamma   92.73310900
_symmetry_Int_Tables_number   1
_chemical_formula_structural   ZnH6C15I2N3O4
_chemical_formula_sum   'Zn2 H12 C30 I4 N6 O8'
_cell_volume   3238.44197371
_cell_formula_units_Z   2
loop_
 _symmetry_equiv_pos_site_id
 _symmetry_equiv_pos_as_xyz
  1  'x, y, z'
loop_
 _atom_site_type_symbol
 _atom_site_label
 _atom_site_symmetry_multiplicity
 _atom_site_fract_x
 _atom_site_fract_y
 _atom_site_fract_z
 _atom_site_occupancy
  Zn  Zn1  1  0.49157000  0.40449100  0.49464800  1
  Zn  Zn2  1  0.50843000  0.59550900  0.50535200  1
  H  H1  1  0.50424500  0.38581100  0.24651300  1
  H  H2  1  0.49575500  0.61418900  0.75348700  1
  H  H3  1  0.50327600  0.39160900  0.10699300  1
  H  H4  1  0.49672400  0.60839100  0.89300700  1
  H  H5  1  0.49942900  0.34577100  0.74484500  1
  H  H6  1  0.50057000  0.65422900  0.25515500  1
  H  H7  1  0.60418200  0.26948900  0.57107300  1
  H  H8  1  0.39581800  0.73051100  0.42892700  1
  H  H9  1  0.60290800  0.11802100  0.56998600  1
  H  H10  1  0.39709200  0.88197900  0.43001400  1
  H  H11  1  0.65500900  0.88212600  0.60398300  1
  H  H12  1  0.34499100  0.11787400  0.39601700  1
  C  C1  1  0.49888200  0.48583900  0.65283300  1
  C  C2  1  0.50111800  0.51416100  0.34716600  1
  C  C3  1  0.71895900  0.49536800  0.49940900  1
  C  C4  1  0.28104100  0.50463200  0.50059100  1
  C  C5  1  0.83941700  0.49547800  0.49950800  1
  C  C6  1  0.16058300  0.50452200  0.50049200  1
  C  C7  1  0.94066900  0.49800600  0.49979200  1
  C  C8  1  0.05933100  0.50199400  0.50020800  1
  C  C9  1  0.49817100  0.48050500  0.73863700  1
  C  C10  1  0.50182900  0.51949500  0.26136300  1
  C  C11  1  0.49715700  0.55318200  0.78188300  1
  C  C12  1  0.50284300  0.44681800  0.21811700  1
  C  C13  1  0.49749400  0.54947000  0.86248500  1
  C  C14  1  0.50250600  0.45053000  0.13751500  1
  C  C15  1  0.49869500  0.47223300  0.90105200  1
  C  C16  1  0.50130400  0.52776700  0.09894800  1
  C  C17  1  0.49898700  0.39973700  0.85780300  1
  C  C18  1  0.50101300  0.60026300  0.14219700  1
  C  C19  1  0.49871100  0.40357900  0.77710900  1
  C  C20  1  0.50128900  0.59642000  0.22289100  1
  C  C21  1  0.45316500  0.76404700  0.46771000  1
  C  C22  1  0.54683400  0.23595300  0.53229000  1
  C  C23  1  0.45431700  0.85081800  0.46860800  1
  C  C24  1  0.54568300  0.14918200  0.53139200  1
  C  C25  1  0.52752500  0.89429100  0.51810800  1
  C  C26  1  0.47247500  0.10570900  0.48189200  1
  C  C27  1  0.59720300  0.84931400  0.56496800  1
  C  C28  1  0.40279700  0.15068600  0.43503100  1
  C  C29  1  0.59418700  0.76281900  0.56284100  1
  C  C30  1  0.40581300  0.23718100  0.43715900  1
  I  I1  1  0.50034800  0.28209200  0.91548900  1
  I  I2  1  0.49965200  0.71790800  0.08451100  1
  I  I3  1  0.70641900  0.70273400  0.63832600  1
  I  I4  1  0.29358100  0.29726600  0.36167400  1
  N  N1  1  0.49962800  0.46530500  0.98371700  1
  N  N2  1  0.50037200  0.53469500  0.01628300  1
  N  N3  1  0.52210300  0.72080400  0.51426400  1
  N  N4  1  0.47789700  0.27919600  0.48573600  1
  N  N5  1  0.53352600  0.98307200  0.52241700  1
  N  N6  1  0.46647400  0.01692800  0.47758300  1
  O  O1  1  0.49397300  0.41608700  0.61256500  1
  O  O2  1  0.50602700  0.58391300  0.38743500  1
  O  O3  1  0.50449500  0.56087400  0.61986900  1
  O  O4  1  0.49550500  0.43912600  0.38013000  1
  O  O5  1  0.66101200  0.42324300  0.49631700  1
  O  O6  1  0.33898800  0.57675700  0.50368300  1
  O  O7  1  0.67267400  0.56821800  0.50276200  1
  O  O8  1  0.32732600  0.43178100  0.49723800  1
