# generated using pymatgen
data_ZnH9C15SNO4
_symmetry_space_group_name_H-M   'P 1'
_cell_length_a   12.15113800
_cell_length_b   8.50499600
_cell_length_c   11.03564300
_cell_angle_alpha   90.00000000
_cell_angle_beta   107.62134700
_cell_angle_gamma   90.00000000
_symmetry_Int_Tables_number   1
_chemical_formula_structural   ZnH9C15SNO4
_chemical_formula_sum   'Zn2 H18 C30 S2 N2 O8'
_cell_volume   1086.96892858
_cell_formula_units_Z   2
loop_
 _symmetry_equiv_pos_site_id
 _symmetry_equiv_pos_as_xyz
  1  'x, y, z'
loop_
 _atom_site_type_symbol
 _atom_site_label
 _atom_site_symmetry_multiplicity
 _atom_site_fract_x
 _atom_site_fract_y
 _atom_site_fract_z
 _atom_site_occupancy
  Zn  Zn1  1  0.88179200  0.50325900  0.47186100  1
  Zn  Zn2  1  0.13879400  0.49883900  0.53730200  1
  H  H1  1  0.00474000  0.74629200  0.91136300  1
  H  H2  1  0.99704100  0.25412600  0.90605300  1
  H  H3  1  0.01713200  0.25611100  0.09853000  1
  H  H4  1  0.02621400  0.74837500  0.10436300  1
  H  H5  1  0.05466500  0.99877100  0.60510700  1
  H  H6  1  0.96608500  0.00365600  0.40411500  1
  H  H7  1  0.29069800  0.47832300  0.76993000  1
  H  H8  1  0.68848400  0.50103200  0.81974500  1
  H  H9  1  0.30327800  0.51412200  0.39986600  1
  H  H10  1  0.40102400  0.46800800  0.28458200  1
  H  H11  1  0.51804300  0.47882600  0.15256100  1
  H  H12  1  0.80277500  0.50585000  0.68411300  1
  H  H13  1  0.47698500  0.73779100  0.02103600  1
  H  H14  1  0.35122900  0.62025000  0.95297800  1
  H  H15  1  0.41176900  0.73969100  0.85198600  1
  H  H16  1  0.78444800  0.79547900  0.16658500  1
  H  H17  1  0.64787100  0.75568300  0.19148200  1
  H  H18  1  0.66888400  0.72593800  0.03687000  1
  C  C1  1  0.02809700  0.86011500  0.75241200  1
  C  C2  1  0.02246300  0.13872100  0.74884000  1
  C  C3  1  0.01437200  0.85934000  0.87240100  1
  C  C4  1  0.00943600  0.14087100  0.86918300  1
  C  C5  1  0.01303900  0.00069100  0.93740300  1
  C  C6  1  0.04014600  0.99935400  0.69635000  1
  C  C7  1  0.00761100  0.14299300  0.13741700  1
  C  C8  1  0.01343300  0.86157700  0.14109500  1
  C  C9  1  0.99317500  0.14220500  0.25703500  1
  C  C10  1  0.99995000  0.86380700  0.26127500  1
  C  C11  1  0.98126600  0.00303800  0.31320000  1
  C  C12  1  0.00956200  0.00165300  0.07268400  1
  C  C13  1  0.02167800  0.71787600  0.67592900  1
  C  C14  1  0.01643000  0.28031000  0.67147500  1
  C  C15  1  0.00491200  0.72207500  0.33822200  1
  C  C16  1  0.99937300  0.28439700  0.33333333  1
  C  C17  1  0.45985800  0.49427600  0.75341600  1
  C  C18  1  0.67610000  0.50454500  0.30003000  1
  C  C19  1  0.55885800  0.48899600  0.25289400  1
  C  C20  1  0.49148700  0.48509800  0.33066800  1
  C  C21  1  0.54167000  0.49796100  0.46004400  1
  C  C22  1  0.66266700  0.50387700  0.50794200  1
  C  C23  1  0.47298200  0.49893300  0.54199400  1
  C  C24  1  0.52623400  0.49878500  0.67162900  1
  C  C25  1  0.64489300  0.50163100  0.71885200  1
  C  C26  1  0.71192500  0.50469500  0.63874600  1
  C  C27  1  0.35187600  0.50240500  0.49830300  1
  C  C28  1  0.34218500  0.48640800  0.70594700  1
  C  C29  1  0.43195000  0.66457900  0.93808500  1
  C  C30  1  0.70904800  0.71629400  0.14087100  1
  S  S1  1  0.52265500  0.50028800  0.92134500  1
  S  S2  1  0.75159300  0.51342800  0.18334400  1
  N  N1  1  0.28993600  0.49498500  0.58072400  1
  N  N2  1  0.72980200  0.50682200  0.42773800  1
  O  O1  1  0.11701600  0.66777100  0.65613700  1
  O  O2  1  0.11234700  0.32840300  0.65229300  1
  O  O3  1  0.91880700  0.66563600  0.61155100  1
  O  O4  1  0.91430900  0.33651300  0.60816500  1
  O  O5  1  0.90897500  0.67431800  0.35777900  1
  O  O6  1  0.90411900  0.33436900  0.35324200  1
  O  O7  1  0.10667600  0.66509200  0.40081800  1
  O  O8  1  0.10211400  0.33690200  0.39741400  1
