# Generated by REPEAT Assigner based on pymatgen
data_DB0-m9_o1_o24_f0_sra.sym.22
_audit_creation_date              2022-05-24
_audit_creation_method            REPEAT_Assigner
_cell_length_a                    6.325652
_cell_length_b                    13.172539
_cell_length_c                    15.628023
_cell_angle_alpha                 90.352140
_cell_angle_beta                  89.968638
_cell_angle_gamma                 90.006336
_cell_volume                      1302.178525
_symmetry_space_group_name_H-M    P1
_symmetry_Int_Tables_number       1
loop_
    _symmetry_equiv_pos_site_id
    _symmetry_equiv_pos_as_xyz
    1  x,y,z
loop_
    _atom_site_type_symbol
    _atom_site_label
    _atom_site_fract_x
    _atom_site_fract_y
    _atom_site_fract_z
    _atom_type_partial_charge
    O  O1   0.334660  0.208905  0.135280  -0.597416
    O  O2   0.665339  0.791095  0.864720  -0.597468
    O  O3   0.708882  0.201457  0.368326  -0.611815
    O  O4   0.291116  0.798543  0.631674  -0.611895
    O  O5   0.917630  0.363816  0.302257  -0.501436
    O  O6   0.082369  0.636183  0.697742  -0.501473
    C  C1   0.536485  0.147816  0.369669  0.861401
    C  C2   0.463514  0.852184  0.630331  0.861579
    O  O7   0.619022  0.130374  0.201265  -0.446224
    O  O8   0.380977  0.869625  0.798735  -0.446355
    O  O9   0.834751  0.293487  0.135526  -0.565652
    O  O10  0.165248  0.706513  0.864474  -0.565688
    C  C3   0.499623  0.147571  0.132844  0.779343
    C  C4   0.500376  0.852429  0.867156  0.779350
    O  O11  0.417461  0.139824  0.301610  -0.325231
    O  O12  0.582537  0.860176  0.698390  -0.325339
    O  O13  0.522051  0.329867  0.250147  -0.517086
    O  O14  0.477947  0.670133  0.749852  -0.517166
    V  V1   0.796245  0.239321  0.251510  1.235000
    V  V2   0.203754  0.760679  0.748490  1.235286
    O  O15  0.119074  0.372561  0.201820  -0.351278
    O  O16  0.880925  0.627439  0.798180  -0.351282
    C  C5   0.999782  0.354712  0.133270  0.663411
    C  C6   0.000217  0.645288  0.866730  0.663318
    O  O17  0.209022  0.302705  0.368557  -0.625675
    O  O18  0.790977  0.697295  0.631443  -0.625695
    C  C7   0.035826  0.355694  0.370493  0.793986
    C  C8   0.964172  0.644306  0.629507  0.794054
    V  V3   0.296243  0.263984  0.251534  1.089750
    V  V4   0.703756  0.736016  0.748466  1.089888
    O  O19  0.021821  0.173417  0.249800  -0.447839
    O  O20  0.978178  0.826583  0.750200  -0.447861
    C  C9   0.824554  0.444067  0.498763  -0.235975
    C  C10  0.175445  0.555933  0.501237  -0.235915
    C  C11  0.977097  0.455525  0.572818  0.461958
    C  C12  0.022902  0.544474  0.427182  0.461694
    H  H1   0.681165  0.395628  0.498119  0.123777
    H  H2   0.318834  0.604372  0.501881  0.123745
    C  C13  0.985966  0.568113  0.559545  -0.087904
    C  C14  0.014033  0.431886  0.440455  -0.087746
    C  C15  0.833462  0.558782  0.485213  -0.066561
    C  C16  0.166537  0.441218  0.514787  -0.066741
    H  H3   0.697828  0.609948  0.472800  0.070368
    H  H4   0.302171  0.390052  0.527200  0.070384
    C  C17  0.852650  0.493088  0.935112  -0.131749
    C  C18  0.147349  0.506912  0.064888  -0.131667
    H  H5   0.737568  0.487454  0.884198  0.106198
    H  H6   0.262431  0.512546  0.115802  0.106169
    C  C19  0.854575  0.422165  0.999647  0.015247
    C  C20  0.145424  0.577835  0.000353  0.015108
    H  H7   0.740087  0.361228  0.999534  0.069923
    H  H8   0.259912  0.638771  0.000466  0.069961
    C  C21  0.001960  0.428987  0.064478  -0.086065
    C  C22  0.998039  0.571013  0.935521  -0.085933
    C  C23  0.661339  0.070260  0.502760  0.348916
    C  C24  0.338660  0.929739  0.497239  0.349143
    C  C25  0.645567  0.997735  0.565683  0.191452
    C  C26  0.354432  0.002265  0.434317  0.191111
    C  C27  0.484340  0.927395  0.562840  -0.461451
    C  C28  0.515659  0.072605  0.437160  -0.461161
    C  C29  0.647250  0.994413  0.064918  0.283938
    C  C30  0.352749  0.005587  0.935082  0.283847
    C  C31  0.645615  0.922170  0.000705  -0.086837
    C  C32  0.354383  0.077830  0.999295  -0.086741
    H  H9   0.760203  0.861295  0.001069  0.126460
    H  H10  0.239796  0.138705  0.998930  0.126436
    C  C33  0.498263  0.927721  0.935854  -0.253490
    C  C34  0.501736  0.072279  0.064146  -0.253602
    F  F1   0.953045  0.410388  0.651822  -0.295682
    F  F2   0.046954  0.589612  0.348178  -0.295636
    F  F3   0.820528  0.139056  0.505191  -0.168926
    F  F4   0.179471  0.860944  0.494809  -0.168894
    F  F5   0.787889  0.995866  0.630420  -0.159188
    F  F6   0.212110  0.004133  0.369579  -0.159014
    F  F7   0.791339  0.988768  0.128832  -0.197740
    F  F8   0.208660  0.011232  0.871168  -0.197711
