# generated using pymatgen
data_Cu3H24(C10O3)4
_symmetry_space_group_name_H-M   'P 1'
_cell_length_a   33.24486700
_cell_length_b   28.67332700
_cell_length_c   20.93986800
_cell_angle_alpha   90.00000000
_cell_angle_beta   120.12353100
_cell_angle_gamma   90.00000000
_symmetry_Int_Tables_number   1
_chemical_formula_structural   Cu3H24(C10O3)4
_chemical_formula_sum   'Cu12 H96 C160 O48'
_cell_volume   17264.94942908
_cell_formula_units_Z   4
loop_
 _symmetry_equiv_pos_site_id
 _symmetry_equiv_pos_as_xyz
  1  'x, y, z'
loop_
 _atom_site_type_symbol
 _atom_site_label
 _atom_site_symmetry_multiplicity
 _atom_site_fract_x
 _atom_site_fract_y
 _atom_site_fract_z
 _atom_site_occupancy
  Cu  Cu1  1  0.00258000  0.95623600  0.99786300  1
  Cu  Cu2  1  0.99988900  0.04871600  0.00842900  1
  Cu  Cu3  1  0.50161100  0.45315700  0.99723600  1
  Cu  Cu4  1  0.49875800  0.54558100  0.00795500  1
  Cu  Cu5  1  0.95301100  0.00164000  0.47040200  1
  Cu  Cu6  1  0.04520600  0.99638700  0.53290400  1
  Cu  Cu7  1  0.45389400  0.50152700  0.47158800  1
  Cu  Cu8  1  0.54605100  0.49726600  0.53316800  1
  Cu  Cu9  1  0.50878200  0.00484000  0.44453900  1
  Cu  Cu10  1  0.49406200  0.99410100  0.55757000  1
  Cu  Cu11  1  0.00749100  0.50432000  0.44510300  1
  Cu  Cu12  1  0.99303200  0.49391900  0.55846400  1
  H  H1  1  0.06206900  0.95985400  0.85439200  1
  H  H2  1  0.94146100  0.04608700  0.15620100  1
  H  H3  1  0.04878100  0.94165900  0.23448800  1
  H  H4  1  0.95084600  0.05987300  0.76566800  1
  H  H5  1  0.56019600  0.45586700  0.84937400  1
  H  H6  1  0.44106700  0.54370700  0.15643900  1
  H  H7  1  0.54711300  0.43787800  0.23425900  1
  H  H8  1  0.45233800  0.55979200  0.77038800  1
  H  H9  1  0.00285600  0.94355300  0.79212700  1
  H  H10  1  0.00174700  0.06072700  0.21472400  1
  H  H11  1  0.06251500  0.00294000  0.24786600  1
  H  H12  1  0.93957400  0.99816300  0.76370700  1
  H  H13  1  0.49988800  0.44029700  0.79242000  1
  H  H14  1  0.50163400  0.55821800  0.21370800  1
  H  H15  1  0.56214800  0.49895300  0.24600700  1
  H  H16  1  0.43840100  0.49847100  0.75947600  1
  H  H17  1  0.01853000  0.94844500  0.70191000  1
  H  H18  1  0.99525500  0.05312400  0.31269400  1
  H  H19  1  0.05805800  0.00521400  0.34812700  1
  H  H20  1  0.94703800  0.98563500  0.66569800  1
  H  H21  1  0.50544400  0.44709100  0.69339900  1
  H  H22  1  0.49578400  0.55155100  0.31249600  1
  H  H23  1  0.55804000  0.50395100  0.34661000  1
  H  H24  1  0.44242500  0.49364400  0.65871500  1
  H  H25  1  0.07246000  0.97750300  0.75660200  1
  H  H26  1  0.93648300  0.03634300  0.26061200  1
  H  H27  1  0.05674700  0.94337300  0.34630400  1
  H  H28  1  0.93710600  0.04642900  0.65104000  1
  H  H29  1  0.56394700  0.46472200  0.74396700  1
  H  H30  1  0.43700500  0.53489700  0.26155300  1
  H  H31  1  0.55733900  0.44220300  0.34759300  1
  H  H32  1  0.44208100  0.55539000  0.65707300  1
  H  H33  1  0.07492500  0.05680000  0.87453400  1
  H  H34  1  0.92441500  0.95035400  0.12355400  1
  H  H35  1  0.97474800  0.91641400  0.17122700  1
  H  H36  1  0.02403500  0.08875200  0.83253400  1
  H  H37  1  0.57688200  0.55020300  0.87988000  1
  H  H38  1  0.42282400  0.44965000  0.12456300  1
  H  H39  1  0.47195900  0.41420100  0.16865400  1
  H  H40  1  0.52711600  0.58478300  0.83545000  1
  H  H41  1  0.12161700  0.00142000  0.87180900  1
  H  H42  1  0.15003100  0.05470600  0.92205000  1
  H  H43  1  0.18028400  0.01158700  0.90166000  1
  H  H44  1  0.20640600  0.05172300  0.84265900  1
  H  H45  1  0.19870200  0.09148100  0.73581100  1
  H  H46  1  0.12219400  0.11785000  0.63860900  1
  H  H47  1  0.05491900  0.10380900  0.64644900  1
  H  H48  1  0.94067500  0.90313300  0.36847200  1
  H  H49  1  0.90506600  0.85667900  0.30667600  1
  H  H50  1  0.88643600  0.88931000  0.35944800  1
  H  H51  1  0.81975500  0.91762400  0.27363500  1
  H  H52  1  0.77314600  0.97196900  0.17585800  1
  H  H53  1  0.80679800  0.01241200  0.11073300  1
  H  H54  1  0.88453900  0.99985000  0.14207400  1
  H  H55  1  0.87133000  0.87840600  0.14196500  1
  H  H56  1  0.88294500  0.82367200  0.11661300  1
  H  H57  1  0.90781500  0.87332900  0.10017800  1
  H  H58  1  0.93721600  0.77769700  0.19641000  1
  H  H59  1  0.00195100  0.75857200  0.31673800  1
  H  H60  1  0.04235300  0.82023100  0.40766200  1
  H  H61  1  0.01944900  0.89880000  0.37977000  1
  H  H62  1  0.10297400  0.12569300  0.85916600  1
  H  H63  1  0.07443200  0.16867400  0.88433300  1
  H  H64  1  0.10562000  0.18503600  0.83812600  1
  H  H65  1  0.03148500  0.22889600  0.77874100  1
  H  H66  1  0.96171500  0.23750300  0.65809500  1
  H  H67  1  0.93106700  0.17000200  0.57556700  1
  H  H68  1  0.96728300  0.09645200  0.61230200  1
  H  H69  1  0.55586300  0.59837600  0.63125500  1
  H  H70  1  0.60916700  0.61538000  0.63938700  1
  H  H71  1  0.58913900  0.64655100  0.69153300  1
  H  H72  1  0.67718700  0.58968400  0.72513300  1
  H  H73  1  0.72597200  0.53568200  0.82195600  1
  H  H74  1  0.69422400  0.49212600  0.88723400  1
  H  H75  1  0.61632300  0.50187400  0.85750600  1
  H  H76  1  0.44264000  0.40109900  0.37234000  1
  H  H77  1  0.40843300  0.35354200  0.31146900  1
  H  H78  1  0.38897700  0.38531200  0.36388000  1
  H  H79  1  0.32138400  0.41181600  0.27791200  1
  H  H80  1  0.27355000  0.46640800  0.18137300  1
  H  H81  1  0.30622000  0.50944800  0.11701200  1
  H  H82  1  0.38413500  0.49867100  0.14738600  1
  H  H83  1  0.38249900  0.38829200  0.13070500  1
  H  H84  1  0.37392900  0.32840000  0.13978900  1
  H  H85  1  0.40845000  0.34574800  0.09972400  1
  H  H86  1  0.44095600  0.27678800  0.19674400  1
  H  H87  1  0.50742800  0.25782500  0.31697500  1
  H  H88  1  0.54578700  0.31954600  0.40888200  1
  H  H89  1  0.52029100  0.39764000  0.38191200  1
  H  H90  1  0.61591700  0.61237600  0.87270900  1
  H  H91  1  0.58931300  0.65445500  0.90325100  1
  H  H92  1  0.62336700  0.67243900  0.86268000  1
  H  H93  1  0.55524600  0.72273300  0.80539200  1
  H  H94  1  0.48827900  0.74045100  0.68501500  1
  H  H95  1  0.45107400  0.67804100  0.59397300  1
  H  H96  1  0.47822300  0.60054000  0.62184300  1
  C  C1  1  0.91229800  0.00061400  0.91804300  1
  C  C2  1  0.09007900  0.00425400  0.08886100  1
  C  C3  1  0.41127300  0.49813700  0.91703200  1
  C  C4  1  0.58908800  0.50061600  0.08814600  1
  C  C5  1  0.01157400  0.01169800  0.89070800  1
  C  C6  1  0.99095400  0.99324500  0.11565600  1
  C  C7  1  0.51047900  0.50844100  0.89007800  1
  C  C8  1  0.48993000  0.49029000  0.11514200  1
  C  C9  1  0.02917500  0.97135400  0.80581900  1
  C  C10  1  0.97495000  0.03375300  0.20271700  1
  C  C11  1  0.03764800  0.97598200  0.24461000  1
  C  C12  1  0.96291700  0.02468400  0.76090700  1
  C  C13  1  0.52625900  0.46752300  0.80313200  1
  C  C14  1  0.47478000  0.53145500  0.20255100  1
  C  C15  1  0.53694000  0.47282700  0.24398700  1
  C  C16  1  0.46311400  0.52504900  0.76105000  1
  C  C17  1  0.03530500  0.97816200  0.74016400  1
  C  C18  1  0.97160100  0.02749900  0.27109100  1
  C  C19  1  0.03740100  0.97465300  0.31581200  1
  C  C20  1  0.96193800  0.02034800  0.68903900  1
  C  C21  1  0.52890200  0.47325100  0.73405400  1
  C  C22  1  0.47193000  0.52578300  0.27144900  1
  C  C23  1  0.53750000  0.47293500  0.31583500  1
  C  C24  1  0.46245900  0.52498000  0.68912400  1
  C  C25  1  0.04125500  0.05838200  0.82412300  1
  C  C26  1  0.95735200  0.94778400  0.17656700  1
  C  C27  1  0.54349400  0.55342100  0.82773200  1
  C  C28  1  0.45610000  0.44585300  0.17673400  1
  C  C29  1  0.01207200  0.01657900  0.82105500  1
  C  C30  1  0.98942600  0.98791400  0.18439700  1
  C  C31  1  0.51158100  0.51343100  0.82092200  1
  C  C32  1  0.48870700  0.48529400  0.18418900  1
  C  C33  1  0.01167100  0.02317700  0.70117300  1
  C  C34  1  0.98726500  0.97853400  0.30196200  1
  C  C35  1  0.51238800  0.52182200  0.70204700  1
  C  C36  1  0.48759400  0.47694300  0.30279600  1
  C  C37  1  0.04098300  0.06619900  0.75056500  1
  C  C38  1  0.95272100  0.94051500  0.24575200  1
  C  C39  1  0.54644400  0.56070600  0.75676900  1
  C  C40  1  0.45290000  0.43865400  0.24749400  1
  C  C41  1  0.86245600  0.00000700  0.86823800  1
  C  C42  1  0.14006500  0.00480900  0.13728100  1
  C  C43  1  0.36138800  0.49756400  0.86764200  1
  C  C44  1  0.63897600  0.50125800  0.13734000  1
  C  C45  1  0.82074100  0.99968900  0.82628000  1
  C  C46  1  0.18188300  0.00468100  0.17832200  1
  C  C47  1  0.31964900  0.49755900  0.82590200  1
  C  C48  1  0.68073400  0.50134900  0.17884800  1
  C  C49  1  0.77175800  0.99947800  0.77677600  1
  C  C50  1  0.23096000  0.00405200  0.22696500  1
  C  C51  1  0.27065100  0.49788300  0.77657000  1
  C  C52  1  0.72976300  0.50110200  0.22786300  1
  C  C53  1  0.73008000  0.99937100  0.73449200  1
  C  C54  1  0.27269800  0.00324600  0.26866100  1
  C  C55  1  0.22896300  0.49828100  0.73442700  1
  C  C56  1  0.77148300  0.50071200  0.26974200  1
  C  C57  1  0.68113000  0.99926700  0.68470000  1
  C  C58  1  0.32168800  0.00209300  0.31793500  1
  C  C59  1  0.18000700  0.49873200  0.68479600  1
  C  C60  1  0.82047700  0.50010600  0.31906700  1
  C  C61  1  0.63947300  0.99912600  0.64225100  1
  C  C62  1  0.36336600  0.00102200  0.36006300  1
  C  C63  1  0.13833900  0.49897400  0.64250200  1
  C  C64  1  0.86216500  0.49951400  0.36115700  1
  C  C65  1  0.99613000  0.91131200  0.52241700  1
  C  C66  1  0.00212000  0.08677700  0.48042900  1
  C  C67  1  0.49818000  0.41183700  0.52618200  1
  C  C68  1  0.50176300  0.58692800  0.47837500  1
  C  C69  1  0.00789500  0.01815500  0.62770700  1
  C  C70  1  0.99033000  0.98101800  0.37517300  1
  C  C71  1  0.50887800  0.51877200  0.62854900  1
  C  C72  1  0.49106000  0.47997600  0.37623700  1
  C  C73  1  0.50001000  0.08831300  0.51404000  1
  C  C74  1  0.50277500  0.91059400  0.48802500  1
  C  C75  1  0.99835300  0.58797800  0.51380900  1
  C  C76  1  0.00213400  0.41024400  0.48973300  1
  C  C77  1  0.58973700  0.99882700  0.59150200  1
  C  C78  1  0.41310800  0.99973500  0.41054000  1
  C  C79  1  0.08859300  0.49893000  0.59195900  1
  C  C80  1  0.91192500  0.49874700  0.41152100  1
  C  C81  1  0.99416200  0.86162500  0.52752000  1
  C  C82  1  0.00427200  0.13649700  0.47603000  1
  C  C83  1  0.49648700  0.36207600  0.53127200  1
  C  C84  1  0.50351100  0.63664700  0.47264400  1
  C  C85  1  0.99345500  0.81968200  0.52928500  1
  C  C86  1  0.00526000  0.17843600  0.47444300  1
  C  C87  1  0.49591900  0.32009400  0.53273400  1
  C  C88  1  0.50437700  0.67860700  0.47060500  1
  C  C89  1  0.99356300  0.77049700  0.52910000  1
  C  C90  1  0.00558300  0.22762800  0.47456400  1
  C  C91  1  0.49606200  0.27087200  0.53197600  1
  C  C92  1  0.50477600  0.72784600  0.47073200  1
  C  C93  1  0.49666600  0.22890700  0.52969500  1
  C  C94  1  0.50469700  0.76985100  0.47257800  1
  C  C95  1  0.99425800  0.72854100  0.52744200  1
  C  C96  1  0.00527900  0.26960500  0.47611600  1
  C  C97  1  0.49774300  0.17982600  0.52543600  1
  C  C98  1  0.50423100  0.81900100  0.47650000  1
  C  C99  1  0.99556000  0.67947300  0.52398600  1
  C  C100  1  0.00441300  0.31871100  0.47946700  1
  C  C101  1  0.49879100  0.13801500  0.52072200  1
  C  C102  1  0.50362800  0.86086000  0.48114200  1
  C  C103  1  0.99683900  0.63766300  0.51989200  1
  C  C104  1  0.00342300  0.36054700  0.48353600  1
  C  C105  1  0.08876800  0.06934500  0.75340800  1
  C  C106  1  0.13376900  0.05384500  0.80890800  1
  C  C107  1  0.14622200  0.02922000  0.87955800  1
  C  C108  1  0.17200800  0.06244800  0.80060100  1
  C  C109  1  0.16823800  0.08535100  0.74057700  1
  C  C110  1  0.12569000  0.10022300  0.68677000  1
  C  C111  1  0.08712200  0.09253900  0.69315700  1
  C  C112  1  0.90196000  0.94885500  0.22922700  1
  C  C113  1  0.88157600  0.92623300  0.26660200  1
  C  C114  1  0.90525600  0.89190900  0.32843700  1
  C  C115  1  0.83566600  0.93514800  0.24618900  1
  C  C116  1  0.80884200  0.96562000  0.19065600  1
  C  C117  1  0.82761900  0.98798500  0.15428900  1
  C  C118  1  0.87290600  0.97976200  0.17283900  1
  C  C119  1  0.96587100  0.88841400  0.26529900  1
  C  C120  1  0.94108500  0.85171200  0.21497200  1
  C  C121  1  0.89875300  0.85802300  0.13977600  1
  C  C122  1  0.95516100  0.80585800  0.23454900  1
  C  C123  1  0.99184900  0.79459500  0.30247500  1
  C  C124  1  0.01458200  0.82906600  0.35292300  1
  C  C125  1  0.00178000  0.87488500  0.33503000  1
  C  C126  1  0.01890700  0.11528500  0.72452300  1
  C  C127  1  0.03857600  0.15584400  0.76818800  1
  C  C128  1  0.08279700  0.15808700  0.84137800  1
  C  C129  1  0.01683400  0.19852600  0.74402800  1
  C  C130  1  0.97770700  0.20362500  0.67632100  1
  C  C131  1  0.96046000  0.16586900  0.63066900  1
  C  C132  1  0.98090600  0.12280800  0.65380100  1
  C  C133  1  0.59695400  0.55384800  0.77115900  1
  C  C134  1  0.61615300  0.57807300  0.73338000  1
  C  C135  1  0.59067400  0.61148800  0.67073800  1
  C  C136  1  0.66219400  0.57096200  0.75295200  1
  C  C137  1  0.69021200  0.54064000  0.80784900  1
  C  C138  1  0.67248000  0.51649800  0.84424300  1
  C  C139  1  0.62710900  0.52299000  0.82658000  1
  C  C140  1  0.40247900  0.44639700  0.23301500  1
  C  C141  1  0.38275900  0.42247800  0.27029200  1
  C  C142  1  0.40757800  0.38869100  0.33262200  1
  C  C143  1  0.33677300  0.43028000  0.25046500  1
  C  C144  1  0.30929400  0.46095100  0.19574600  1
  C  C145  1  0.32754400  0.48481900  0.15987000  1
  C  C146  1  0.37289800  0.47771300  0.17787400  1
  C  C147  1  0.46686700  0.38680300  0.26748000  1
  C  C148  1  0.44289300  0.34982400  0.21742900  1
  C  C149  1  0.39975400  0.35418900  0.14307400  1
  C  C150  1  0.45878600  0.30453000  0.23589400  1
  C  C151  1  0.49607500  0.29360500  0.30336900  1
  C  C152  1  0.51762200  0.32812600  0.35434300  1
  C  C153  1  0.50329200  0.37367100  0.33702100  1
  C  C154  1  0.53149900  0.61230100  0.73609400  1
  C  C155  1  0.55477200  0.64971400  0.78561400  1
  C  C156  1  0.59806400  0.64616700  0.85991600  1
  C  C157  1  0.53794800  0.69468200  0.76660900  1
  C  C158  1  0.50037700  0.70490700  0.69906600  1
  C  C159  1  0.47948900  0.67001100  0.64856500  1
  C  C160  1  0.49478100  0.62477400  0.66642800  1
  O  O1  1  0.93539000  0.96120100  0.93197400  1
  O  O2  1  0.06747700  0.04409700  0.06998300  1
  O  O3  1  0.06973800  0.96417100  0.06071200  1
  O  O4  1  0.93313200  0.04112900  0.94108000  1
  O  O5  1  0.43448400  0.45875100  0.93109000  1
  O  O6  1  0.56588500  0.53999800  0.07407000  1
  O  O7  1  0.56883900  0.46049600  0.06003200  1
  O  O8  1  0.43152900  0.53824200  0.94519000  1
  O  O9  1  0.00816300  0.96946100  0.91126900  1
  O  O10  1  0.99423700  0.03542300  0.09496100  1
  O  O11  1  0.99285800  0.95547600  0.08230800  1
  O  O12  1  0.00968100  0.04958100  0.92403200  1
  O  O13  1  0.51115200  0.46625100  0.91437000  1
  O  O14  1  0.48924500  0.53248200  0.09084700  1
  O  O15  1  0.49556700  0.45262700  0.08521900  1
  O  O16  1  0.50478200  0.54609800  0.91995400  1
  O  O17  1  0.95720800  0.93514100  0.49315200  1
  O  O18  1  0.04132900  0.06349200  0.51467400  1
  O  O19  1  0.03702400  0.93063300  0.54774700  1
  O  O20  1  0.96161000  0.06814200  0.46113100  1
  O  O21  1  0.45902500  0.43533900  0.49665800  1
  O  O22  1  0.54090400  0.56341000  0.50785900  1
  O  O23  1  0.53839300  0.43085500  0.54469300  1
  O  O24  1  0.46158100  0.56796300  0.46025800  1
  O  O25  1  0.96591100  0.01596800  0.56999900  1
  O  O26  1  0.03210900  0.98176200  0.43329600  1
  O  O27  1  0.46690900  0.51701800  0.57087800  1
  O  O28  1  0.53302700  0.48161300  0.43392700  1
  O  O29  1  0.04543500  0.00802700  0.62494600  1
  O  O30  1  0.95283200  0.99051400  0.37824100  1
  O  O31  1  0.54636900  0.50964300  0.62514800  1
  O  O32  1  0.45358900  0.48929500  0.37958500  1
  O  O33  1  0.50492000  0.07142900  0.46010400  1
  O  O34  1  0.49801300  0.92754100  0.54195600  1
  O  O35  1  0.49590000  0.06212500  0.56182000  1
  O  O36  1  0.50683500  0.93681200  0.44032500  1
  O  O37  1  0.00329000  0.57094300  0.45999400  1
  O  O38  1  0.99734200  0.42732600  0.54354800  1
  O  O39  1  0.99448300  0.56195900  0.56196900  1
  O  O40  1  0.00592300  0.43628100  0.44161900  1
  O  O41  1  0.57446500  0.00550900  0.52089400  1
  O  O42  1  0.42833100  0.99684400  0.48171200  1
  O  O43  1  0.07320800  0.50541800  0.52127700  1
  O  O44  1  0.92725100  0.49619200  0.48274700  1
  O  O45  1  0.56172400  0.99631000  0.61863200  1
  O  O46  1  0.44106800  0.00621200  0.38399500  1
  O  O47  1  0.06069100  0.49652700  0.61929500  1
  O  O48  1  0.93975900  0.50528200  0.38475400  1
