data_DB0-m29_o92_o510_f0_pts.sym.6_repeat
_audit_creation_date              2024-02-23
_audit_creation_method            'Materials Studio'
_symmetry_space_group_name_H-M    'P1'
_symmetry_Int_Tables_number       1
_symmetry_cell_setting            triclinic
loop_
_symmetry_equiv_pos_as_xyz
  x,y,z
_cell_length_a                    14.4301
_cell_length_b                    21.6535
_cell_length_c                    13.0910
_cell_angle_alpha                 113.1186
_cell_angle_beta                  86.9696
_cell_angle_gamma                 83.0422
loop_
_atom_site_label
_atom_site_type_symbol
_atom_site_fract_x
_atom_site_fract_y
_atom_site_fract_z
_atom_site_U_iso_or_equiv
_atom_site_adp_type
_atom_site_occupancy
C1     C     0.27210   0.98590   0.10238   0.00000  Uiso   1.00
C2     C     0.17576   0.00243   0.11455   0.00000  Uiso   1.00
H1     H     0.13693   0.01994   0.19626   0.00000  Uiso   1.00
C3     C     0.12873   0.99619   0.02260   0.00000  Uiso   1.00
C4     C     0.17994   0.98018   0.92009   0.00000  Uiso   1.00
H2     H     0.14515   0.98229   0.85026   0.00000  Uiso   1.00
C5     C     0.27697   0.96604   0.90897   0.00000  Uiso   1.00
C6     C     0.32191   0.96524   0.99904   0.00000  Uiso   1.00
C7     C     0.02551   0.01283   0.03922   0.00000  Uiso   1.00
C8     C     0.97274   0.98478   0.95721   0.00000  Uiso   1.00
C9     C     0.82103   0.99515   0.88008   0.00000  Uiso   1.00
C10    C     0.72443   0.01179   0.89389   0.00000  Uiso   1.00
C11    C     0.67549   0.03260   0.99764   0.00000  Uiso   1.00
C12    C     0.72106   0.03210   0.08733   0.00000  Uiso   1.00
C13    C     0.81810   0.01719   0.07494   0.00000  Uiso   1.00
H3     H     0.85324   0.01527   0.14465   0.00000  Uiso   1.00
C14    C     0.86905   0.00078   0.97200   0.00000  Uiso   1.00
H4     H     0.39764   0.95679   0.99308   0.00000  Uiso   1.00
H5     H     0.59972   0.04096   0.00401   0.00000  Uiso   1.00
H6     H     0.99296   0.04773   0.12142   0.00000  Uiso   1.00
H7     H     0.00751   0.94884   0.87716   0.00000  Uiso   1.00
O1     O     0.57233   0.05087   0.19241   0.00000  Uiso   1.00
C15    C     0.66411   0.03648   0.18713   0.00000  Uiso   1.00
O2     O     0.60586   0.89009   0.16424   0.00000  Uiso   1.00
O3     O     0.70173   0.01328   0.25665   0.00000  Uiso   1.00
O4     O     0.55311   0.95325   0.34613   0.00000  Uiso   1.00
C16    C     0.60154   0.89772   0.26899   0.00000  Uiso   1.00
Fe1    Fe    0.49687   0.01848   0.28649   0.00000  Uiso   1.00
O5     O     0.40617   0.96539   0.19013   0.00000  Uiso   1.00
O6     O     0.30383   0.06352   0.27971   0.00000  Uiso   1.00
C17    C     0.32446   0.00252   0.19958   0.00000  Uiso   1.00
O7     O     0.44931   0.10590   0.41827   0.00000  Uiso   1.00
O8     O     0.37230   0.03482   0.46793   0.00000  Uiso   1.00
C18    C     0.39553   0.09539   0.49219   0.00000  Uiso   1.00
O9     O     0.54426   0.89491   0.57855   0.00000  Uiso   1.00
O10    O     0.62445   0.96510   0.53050   0.00000  Uiso   1.00
C19    C     0.59933   0.90499   0.50527   0.00000  Uiso   1.00
O11    O     0.59335   0.03487   0.80340   0.00000  Uiso   1.00
O12    O     0.68131   0.93028   0.72702   0.00000  Uiso   1.00
C20    C     0.67039   0.99406   0.79791   0.00000  Uiso   1.00
O13    O     0.29624   0.98415   0.73893   0.00000  Uiso   1.00
O14    O     0.44265   0.04825   0.65219   0.00000  Uiso   1.00
C21    C     0.39359   0.10348   0.72917   0.00000  Uiso   1.00
O15    O     0.42609   0.95136   0.80781   0.00000  Uiso   1.00
C22    C     0.33430   0.96282   0.81035   0.00000  Uiso   1.00
O16    O     0.38889   0.11104   0.83389   0.00000  Uiso   1.00
Fe2    Fe    0.49985   0.98278   0.71081   0.00000  Uiso   1.00
C23    C     0.10556   0.32922   0.65279   0.00000  Uiso   1.00
O17    O     0.06050   0.29487   0.70054   0.00000  Uiso   1.00
N1     N     0.19993   0.31572   0.63151   0.00000  Uiso   1.00
C24    C     0.24566   0.34845   0.58073   0.00000  Uiso   1.00
C25    C     0.30217   0.20726   0.57064   0.00000  Uiso   1.00
C26    C     0.34742   0.15374   0.59036   0.00000  Uiso   1.00
C27    C     0.29376   0.21441   0.78508   0.00000  Uiso   1.00
C28    C     0.24729   0.26680   0.76353   0.00000  Uiso   1.00
C29    C     0.25112   0.26334   0.65601   0.00000  Uiso   1.00
C30    C     0.09982   0.40931   0.56795   0.00000  Uiso   1.00
C31    C     0.05464   0.37623   0.62170   0.00000  Uiso   1.00
C32    C     0.95852   0.38984   0.64352   0.00000  Uiso   1.00
C33    C     0.19624   0.39536   0.54825   0.00000  Uiso   1.00
C34    C     0.34396   0.15707   0.69953   0.00000  Uiso   1.00
H8     H     0.28971   0.21912   0.87051   0.00000  Uiso   1.00
H9     H     0.20820   0.31072   0.83164   0.00000  Uiso   1.00
H10    H     0.92107   0.36587   0.68772   0.00000  Uiso   1.00
C35    C     0.65127   0.84398   0.29823   0.00000  Uiso   1.00
C36    C     0.90058   0.51036   0.51104   0.00000  Uiso   1.00
C37    C     0.04550   0.53734   0.45066   0.00000  Uiso   1.00
C38    C     0.94790   0.54647   0.46352   0.00000  Uiso   1.00
C39    C     0.80283   0.51838   0.51624   0.00000  Uiso   1.00
C40    C     0.75378   0.56349   0.48126   0.00000  Uiso   1.00
C41    C     0.80046   0.60145   0.43913   0.00000  Uiso   1.00
C42    C     0.89710   0.59241   0.42904   0.00000  Uiso   1.00
C43    C     0.94227   0.63032   0.38493   0.00000  Uiso   1.00
C44    C     0.89094   0.67694   0.35338   0.00000  Uiso   1.00
N2     N     0.79638   0.68553   0.36525   0.00000  Uiso   1.00
C45    C     0.75074   0.64840   0.40697   0.00000  Uiso   1.00
C46    C     0.69172   0.79277   0.42617   0.00000  Uiso   1.00
C47    C     0.64686   0.84660   0.40696   0.00000  Uiso   1.00
C48    C     0.70282   0.78730   0.21266   0.00000  Uiso   1.00
C49    C     0.74986   0.73500   0.23395   0.00000  Uiso   1.00
C50    C     0.74437   0.73758   0.34091   0.00000  Uiso   1.00
O18    O     0.65638   0.65707   0.41694   0.00000  Uiso   1.00
C51    C     0.95163   0.46682   0.55103   0.00000  Uiso   1.00
C52    C     0.04916   0.45534   0.53354   0.00000  Uiso   1.00
C53    C     0.09648   0.48919   0.48149   0.00000  Uiso   1.00
C54    C     0.90765   0.43466   0.60939   0.00000  Uiso   1.00
H11    H     0.68971   0.79559   0.51057   0.00000  Uiso   1.00
H12    H     0.67807   0.56826   0.48788   0.00000  Uiso   1.00
H13    H     0.76052   0.48955   0.54476   0.00000  Uiso   1.00
H14    H     0.83328   0.44362   0.63322   0.00000  Uiso   1.00
O19    O     0.33992   0.33568   0.56233   0.00000  Uiso   1.00
C55    C     0.24297   0.42737   0.49417   0.00000  Uiso   1.00
H15    H     0.30322   0.20365   0.48585   0.00000  Uiso   1.00
H16    H     0.31852   0.41670   0.47576   0.00000  Uiso   1.00
C56    C     0.08958   0.57731   0.40778   0.00000  Uiso   1.00
C57    C     0.03858   0.62286   0.37527   0.00000  Uiso   1.00
O20    O     0.93533   0.71564   0.31432   0.00000  Uiso   1.00
C58    C     0.19413   0.47338   0.46088   0.00000  Uiso   1.00
H17    H     0.16418   0.57667   0.40027   0.00000  Uiso   1.00
H18    H     0.70799   0.78325   0.12758   0.00000  Uiso   1.00
H19    H     0.07608   0.65273   0.34287   0.00000  Uiso   1.00
H20    H     0.79077   0.69183   0.16620   0.00000  Uiso   1.00
H21    H     0.23655   0.49401   0.41607   0.00000  Uiso   1.00
C59    C     0.87111   0.97434   0.76871   0.00000  Uiso   1.00
C60    C     0.88278   0.02247   0.72650   0.00000  Uiso   1.00
C61    C     0.92832   0.00305   0.62085   0.00000  Uiso   1.00
C62    C     0.96170   0.93544   0.55688   0.00000  Uiso   1.00
C63    C     0.94928   0.88717   0.59839   0.00000  Uiso   1.00
C64    C     0.90377   0.90653   0.70403   0.00000  Uiso   1.00
H22    H     0.85650   0.07551   0.77638   0.00000  Uiso   1.00
H23    H     0.93773   0.04086   0.58812   0.00000  Uiso   1.00
H24    H     0.99733   0.92024   0.47404   0.00000  Uiso   1.00
H25    H     0.97507   0.83412   0.54805   0.00000  Uiso   1.00
H26    H     0.89367   0.86856   0.73618   0.00000  Uiso   1.00
