data_DB0-m3_o18_o25_f0_pcu.sym.32_repeat
_audit_creation_date              2024-02-23
_audit_creation_method            'Materials Studio'
_symmetry_space_group_name_H-M    'P1'
_symmetry_Int_Tables_number       1
_symmetry_cell_setting            triclinic
loop_
_symmetry_equiv_pos_as_xyz
  x,y,z
_cell_length_a                    14.5874
_cell_length_b                    15.9455
_cell_length_c                    16.0266
_cell_angle_alpha                 89.9626
_cell_angle_beta                  103.2641
_cell_angle_gamma                 86.0909
loop_
_atom_site_label
_atom_site_type_symbol
_atom_site_fract_x
_atom_site_fract_y
_atom_site_fract_z
_atom_site_U_iso_or_equiv
_atom_site_adp_type
_atom_site_occupancy
O1     O     0.37676   0.60391   0.46984   0.00000  Uiso   1.00
O2     O     0.62324   0.39609   0.53016   0.00000  Uiso   1.00
O3     O     0.53184   0.63806   0.50820   0.00000  Uiso   1.00
O4     O     0.46816   0.36194   0.49179   0.00000  Uiso   1.00
C1     C     0.44097   0.65936   0.48578   0.00000  Uiso   1.00
C2     C     0.55903   0.34064   0.51422   0.00000  Uiso   1.00
O5     O     0.41272   0.48215   0.60238   0.00000  Uiso   1.00
O6     O     0.58728   0.51785   0.39762   0.00000  Uiso   1.00
O7     O     0.56810   0.51573   0.64159   0.00000  Uiso   1.00
O8     O     0.43190   0.48427   0.35840   0.00000  Uiso   1.00
C3     C     0.48847   0.49879   0.66028   0.00000  Uiso   1.00
C4     C     0.51153   0.50121   0.33972   0.00000  Uiso   1.00
Zn1    Zn    0.39785   0.47688   0.47365   0.00000  Uiso   1.00
Zn2    Zn    0.60215   0.52313   0.52635   0.00000  Uiso   1.00
C5     C     0.44050   0.55623   0.01809   0.00000  Uiso   1.00
C6     C     0.55950   0.44377   0.98191   0.00000  Uiso   1.00
C7     C     0.51767   0.57202   0.97377   0.00000  Uiso   1.00
C8     C     0.48233   0.42798   0.02623   0.00000  Uiso   1.00
H1     H     0.66243   0.53231   0.06978   0.00000  Uiso   1.00
H2     H     0.33757   0.46769   0.93022   0.00000  Uiso   1.00
C9     C     0.48527   0.49816   0.74906   0.00000  Uiso   1.00
C10    C     0.51473   0.50184   0.25094   0.00000  Uiso   1.00
C11    C     0.41084   0.48226   0.96068   0.00000  Uiso   1.00
C12    C     0.58916   0.51774   0.03932   0.00000  Uiso   1.00
C13    C     0.49055   0.49857   0.91647   0.00000  Uiso   1.00
C14    C     0.50945   0.50143   0.08353   0.00000  Uiso   1.00
C15    C     0.48620   0.49813   0.82440   0.00000  Uiso   1.00
C16    C     0.51380   0.50187   0.17560   0.00000  Uiso   1.00
C17    C     0.41030   0.74932   0.47844   0.00000  Uiso   1.00
C18    C     0.58970   0.25068   0.52156   0.00000  Uiso   1.00
C19    C     0.28804   0.85871   0.44734   0.00000  Uiso   1.00
C20    C     0.71196   0.14130   0.55266   0.00000  Uiso   1.00
C21    C     0.31585   0.77463   0.45650   0.00000  Uiso   1.00
C22    C     0.68415   0.22537   0.54350   0.00000  Uiso   1.00
C23    C     0.47646   0.80904   0.49340   0.00000  Uiso   1.00
C24    C     0.52354   0.19096   0.50660   0.00000  Uiso   1.00
C25    C     0.44961   0.89513   0.48774   0.00000  Uiso   1.00
C26    C     0.55039   0.10487   0.51226   0.00000  Uiso   1.00
C27    C     0.35403   0.91889   0.46153   0.00000  Uiso   1.00
C28    C     0.64597   0.08111   0.53847   0.00000  Uiso   1.00
C29    C     0.51543   0.95752   0.50610   0.00000  Uiso   1.00
C30    C     0.48457   0.04248   0.49390   0.00000  Uiso   1.00
C31    C     0.38852   0.06316   0.46225   0.00000  Uiso   1.00
C32    C     0.61148   0.93684   0.53775   0.00000  Uiso   1.00
C33    C     0.32405   0.00270   0.44820   0.00000  Uiso   1.00
C34    C     0.67595   0.99730   0.55180   0.00000  Uiso   1.00
H3     H     0.45111   0.21451   0.49285   0.00000  Uiso   1.00
H4     H     0.54889   0.78549   0.50715   0.00000  Uiso   1.00
H5     H     0.73735   0.27062   0.55513   0.00000  Uiso   1.00
H6     H     0.26265   0.72938   0.44487   0.00000  Uiso   1.00
H7     H     0.21319   0.87580   0.42874   0.00000  Uiso   1.00
H8     H     0.78681   0.12420   0.57126   0.00000  Uiso   1.00
H9     H     0.36033   0.12629   0.44543   0.00000  Uiso   1.00
H10    H     0.63967   0.87371   0.55457   0.00000  Uiso   1.00
N1     N     0.73568   0.55546   0.56266   0.00000  Uiso   1.00
N2     N     0.26432   0.44455   0.43734   0.00000  Uiso   1.00
C35    C     0.85893   0.63516   0.63719   0.00000  Uiso   1.00
C36    C     0.14107   0.36484   0.36281   0.00000  Uiso   1.00
C37    C     0.76745   0.61194   0.62319   0.00000  Uiso   1.00
C38    C     0.23255   0.38806   0.37681   0.00000  Uiso   1.00
C39    C     0.79532   0.51643   0.52015   0.00000  Uiso   1.00
C40    C     0.20468   0.48357   0.47985   0.00000  Uiso   1.00
C41    C     0.89060   0.53313   0.53595   0.00000  Uiso   1.00
C42    C     0.10940   0.46687   0.46405   0.00000  Uiso   1.00
C43    C     0.92136   0.59769   0.59145   0.00000  Uiso   1.00
C44    C     0.07864   0.40232   0.40854   0.00000  Uiso   1.00
C45    C     0.95429   0.48799   0.49535   0.00000  Uiso   1.00
C46    C     0.04571   0.51201   0.50465   0.00000  Uiso   1.00
C47    C     0.07086   0.58257   0.55269   0.00000  Uiso   1.00
C48    C     0.92914   0.41743   0.44731   0.00000  Uiso   1.00
C49    C     0.01235   0.62327   0.59759   0.00000  Uiso   1.00
C50    C     0.98765   0.37673   0.40241   0.00000  Uiso   1.00
H11    H     0.23558   0.52590   0.52858   0.00000  Uiso   1.00
H12    H     0.76442   0.47410   0.47142   0.00000  Uiso   1.00
H13    H     0.13644   0.61085   0.55686   0.00000  Uiso   1.00
H14    H     0.86356   0.38915   0.44314   0.00000  Uiso   1.00
N3     N     0.53357   0.65430   0.94339   0.00000  Uiso   1.00
H15    H     0.55057   0.69248   0.99685   0.00000  Uiso   1.00
H16    H     0.59252   0.64728   0.91673   0.00000  Uiso   1.00
N4     N     0.46643   0.34570   0.05661   0.00000  Uiso   1.00
H17    H     0.44943   0.30752   0.00315   0.00000  Uiso   1.00
H18    H     0.40748   0.35272   0.08327   0.00000  Uiso   1.00
N5     N     0.29246   0.35057   0.32628   0.00000  Uiso   1.00
H19    H     0.30876   0.39683   0.28717   0.00000  Uiso   1.00
H20    H     0.35340   0.32284   0.36630   0.00000  Uiso   1.00
N6     N     0.70754   0.64943   0.67372   0.00000  Uiso   1.00
H21    H     0.69124   0.60317   0.71283   0.00000  Uiso   1.00
H22    H     0.64660   0.67716   0.63370   0.00000  Uiso   1.00
N7     N     0.88728   0.69619   0.70117   0.00000  Uiso   1.00
H23    H     0.84384   0.75126   0.68429   0.00000  Uiso   1.00
H24    H     0.87893   0.67305   0.75974   0.00000  Uiso   1.00
N8     N     0.11272   0.30381   0.29883   0.00000  Uiso   1.00
H25    H     0.15616   0.24874   0.31571   0.00000  Uiso   1.00
H26    H     0.12107   0.32695   0.24026   0.00000  Uiso   1.00
N9     N     0.37626   0.62208   0.03908   0.00000  Uiso   1.00
H27    H     0.33791   0.64980   0.98145   0.00000  Uiso   1.00
H28    H     0.32888   0.59333   0.06786   0.00000  Uiso   1.00
N10    N     0.62374   0.37792   0.96092   0.00000  Uiso   1.00
H29    H     0.66209   0.35020   0.01855   0.00000  Uiso   1.00
H30    H     0.67112   0.40667   0.93214   0.00000  Uiso   1.00
N11    N     0.22604   0.02717   0.41706   0.00000  Uiso   1.00
H31    H     0.21479   0.09222   0.42088   0.00000  Uiso   1.00
H32    H     0.20745   0.01143   0.35240   0.00000  Uiso   1.00
N12    N     0.77396   0.97283   0.58294   0.00000  Uiso   1.00
H33    H     0.78521   0.90778   0.57912   0.00000  Uiso   1.00
H34    H     0.79255   0.98857   0.64760   0.00000  Uiso   1.00
N13    N     0.04836   0.69428   0.64513   0.00000  Uiso   1.00
H35    H     0.05780   0.68244   0.71073   0.00000  Uiso   1.00
H36    H     0.00417   0.74809   0.62405   0.00000  Uiso   1.00
N14    N     0.95164   0.30572   0.35487   0.00000  Uiso   1.00
H37    H     0.99583   0.25191   0.37595   0.00000  Uiso   1.00
H38    H     0.94220   0.31756   0.28927   0.00000  Uiso   1.00
