# generated using pymatgen
data_ZnH9C16NO4
_symmetry_space_group_name_H-M   'P 1'
_cell_length_a   8.51554000
_cell_length_b   11.36796600
_cell_length_c   13.03993200
_cell_angle_alpha   96.68075100
_cell_angle_beta   86.47661700
_cell_angle_gamma   93.62785300
_symmetry_Int_Tables_number   1
_chemical_formula_structural   ZnH9C16NO4
_chemical_formula_sum   'Zn2 H18 C32 N2 O8'
_cell_volume   1249.37388028
_cell_formula_units_Z   2
loop_
 _symmetry_equiv_pos_site_id
 _symmetry_equiv_pos_as_xyz
  1  'x, y, z'
loop_
 _atom_site_type_symbol
 _atom_site_label
 _atom_site_symmetry_multiplicity
 _atom_site_fract_x
 _atom_site_fract_y
 _atom_site_fract_z
 _atom_site_occupancy
  Zn  Zn1  1  0.50840800  0.13224400  0.50822500  1
  Zn  Zn2  1  0.49159200  0.86775700  0.49177500  1
  H  H1  1  0.98211200  0.96056300  0.42447100  1
  H  H2  1  0.01788800  0.03943800  0.57552900  1
  H  H3  1  0.29404200  0.01116900  0.17062300  1
  H  H4  1  0.70595800  0.98883200  0.82937700  1
  H  H5  1  0.31755300  0.97124600  0.01467800  1
  H  H6  1  0.68244700  0.02875500  0.98532200  1
  H  H7  1  0.34936000  0.98303400  0.83563300  1
  H  H8  1  0.65063900  0.01696700  0.16436700  1
  H  H9  1  0.50924800  0.70346500  0.63668700  1
  H  H10  1  0.49075100  0.29653500  0.36331300  1
  H  H11  1  0.46546500  0.70407800  0.31933700  1
  H  H12  1  0.53453400  0.29592200  0.68066300  1
  H  H13  1  0.54404000  0.46338500  0.79453900  1
  H  H14  1  0.63766200  0.59170500  0.74265100  1
  H  H15  1  0.42440100  0.57715400  0.76191900  1
  H  H16  1  0.45596000  0.53661500  0.20546100  1
  H  H17  1  0.57559800  0.42284600  0.23808100  1
  H  H18  1  0.36233700  0.40829600  0.25734900  1
  C  C1  1  0.87284900  0.99144200  0.29054700  1
  C  C2  1  0.12715100  0.00855800  0.70945300  1
  C  C3  1  0.00035000  0.97589700  0.34505600  1
  C  C4  1  0.99965000  0.02410400  0.65494400  1
  C  C5  1  0.14968600  0.98709100  0.30149400  1
  C  C6  1  0.85031300  0.01290900  0.69850600  1
  C  C7  1  0.17342400  0.99933800  0.19834200  1
  C  C8  1  0.82657600  0.00066300  0.80165800  1
  C  C9  1  0.04532400  0.99774200  0.13670500  1
  C  C10  1  0.95467600  0.00225900  0.86329500  1
  C  C11  1  0.89464000  0.00027100  0.18503900  1
  C  C12  1  0.10536000  0.99972900  0.81496100  1
  C  C13  1  0.06522400  0.99642800  0.02885700  1
  C  C14  1  0.93477500  0.00357300  0.97114300  1
  C  C15  1  0.78731900  0.01501400  0.02286500  1
  C  C16  1  0.21268000  0.98498700  0.97713500  1
  C  C17  1  0.76761400  0.01100600  0.12776000  1
  C  C18  1  0.23238600  0.98899500  0.87224000  1
  C  C19  1  0.71792100  0.00834400  0.63274700  1
  C  C20  1  0.28207900  0.99165700  0.36725300  1
  C  C21  1  0.72113300  0.99614000  0.35081800  1
  C  C22  1  0.27886600  0.00386000  0.64918200  1
  C  C23  1  0.52161300  0.46768900  0.63196400  1
  C  C24  1  0.47838700  0.53231100  0.36803600  1
  C  C25  1  0.52593200  0.34578200  0.61579000  1
  C  C26  1  0.47406700  0.65421800  0.38420900  1
  C  C27  1  0.50047800  0.34686700  0.43826200  1
  C  C28  1  0.49952200  0.65313300  0.56173800  1
  C  C29  1  0.49470300  0.46945600  0.45120900  1
  C  C30  1  0.50529700  0.53054500  0.54879100  1
  C  C31  1  0.53254900  0.52886000  0.73913800  1
  C  C32  1  0.46745000  0.47114000  0.26086200  1
  N  N1  1  0.48350800  0.71233900  0.47983900  1
  N  N2  1  0.51649200  0.28766200  0.52016100  1
  O  O1  1  0.66187300  0.90394600  0.59318900  1
  O  O2  1  0.33812600  0.09605400  0.40681100  1
  O  O3  1  0.67018500  0.10855700  0.60921000  1
  O  O4  1  0.32981400  0.89144400  0.39079000  1
  O  O5  1  0.67811500  0.10016100  0.39526200  1
  O  O6  1  0.32188400  0.89983900  0.60473800  1
  O  O7  1  0.65857700  0.89570300  0.37944300  1
  O  O8  1  0.34142300  0.10429800  0.62055700  1
