# generated using pymatgen
data_VH8C18N2O9
_symmetry_space_group_name_H-M   'P 1'
_cell_length_a   27.71480300
_cell_length_b   6.18264700
_cell_length_c   23.54333200
_cell_angle_alpha   90.00000000
_cell_angle_beta   94.91248400
_cell_angle_gamma   90.00000000
_symmetry_Int_Tables_number   1
_chemical_formula_structural   VH8C18N2O9
_chemical_formula_sum   'V4 H32 C72 N8 O36'
_cell_volume   4019.35092791
_cell_formula_units_Z   4
loop_
 _symmetry_equiv_pos_site_id
 _symmetry_equiv_pos_as_xyz
  1  'x, y, z'
loop_
 _atom_site_type_symbol
 _atom_site_label
 _atom_site_symmetry_multiplicity
 _atom_site_fract_x
 _atom_site_fract_y
 _atom_site_fract_z
 _atom_site_occupancy
  V  V1  1  0.74931000  0.92197800  0.23450600  1
  V  V2  1  0.25174700  0.06526800  0.76592300  1
  V  V3  1  0.75069000  0.42197800  0.26549300  1
  V  V4  1  0.24825300  0.56526800  0.73407700  1
  H  H1  1  0.06770500  0.64352100  0.53441800  1
  H  H2  1  0.92328700  0.36728000  0.47128500  1
  H  H3  1  0.43229500  0.14352100  0.96558200  1
  H  H4  1  0.57671300  0.86728000  0.02871500  1
  H  H5  1  0.13855000  0.58605500  0.60289900  1
  H  H6  1  0.85344700  0.40057100  0.40029900  1
  H  H7  1  0.36145000  0.08605500  0.89710100  1
  H  H8  1  0.64655300  0.90057100  0.09970100  1
  H  H9  1  0.36490400  0.22409100  0.66607100  1
  H  H10  1  0.63977200  0.75614200  0.33886000  1
  H  H11  1  0.13509600  0.72409100  0.83392900  1
  H  H12  1  0.86022800  0.25614200  0.16113900  1
  H  H13  1  0.43073700  0.26901700  0.60312800  1
  H  H14  1  0.57491000  0.70704800  0.40299800  1
  H  H15  1  0.06926300  0.76901700  0.89687200  1
  H  H16  1  0.92509000  0.20704800  0.09700200  1
  H  H17  1  0.41552100  0.60941200  0.55231800  1
  H  H18  1  0.58875600  0.36738100  0.45354700  1
  H  H19  1  0.08447900  0.10941200  0.94768200  1
  H  H20  1  0.91124400  0.86738100  0.04645300  1
  H  H21  1  0.34983900  0.56461400  0.61509900  1
  H  H22  1  0.65336900  0.41640500  0.38953900  1
  H  H23  1  0.15016100  0.06461400  0.88490100  1
  H  H24  1  0.84663100  0.91640500  0.11046100  1
  H  H25  1  0.11986800  0.54445100  0.71478300  1
  H  H26  1  0.84248900  0.54098100  0.27698000  1
  H  H27  1  0.38013200  0.04445100  0.78521700  1
  H  H28  1  0.65751100  0.04098100  0.22302000  1
  H  H29  1  0.99822100  0.52744100  0.55078000  1
  H  H30  1  0.97418700  0.39687700  0.38307300  1
  H  H31  1  0.50177900  0.02744100  0.94922000  1
  H  H32  1  0.52581300  0.89687700  0.11692700  1
  C  C1  1  0.81201700  0.62561900  0.17877200  1
  C  C2  1  0.18519100  0.35928000  0.81774300  1
  C  C3  1  0.68798300  0.12561900  0.32122700  1
  C  C4  1  0.31480900  0.85928000  0.68225700  1
  C  C5  1  0.67690800  0.62713700  0.17971500  1
  C  C6  1  0.32056500  0.36401300  0.82339900  1
  C  C7  1  0.82309200  0.12713700  0.32028500  1
  C  C8  1  0.17943500  0.86401300  0.67660100  1
  C  C9  1  0.08108000  0.77379800  0.56207100  1
  C  C10  1  0.91515700  0.23949000  0.44061600  1
  C  C11  1  0.41892000  0.27379800  0.93792900  1
  C  C12  1  0.58484300  0.73949000  0.05938400  1
  C  C13  1  0.12088900  0.74208400  0.60022600  1
  C  C14  1  0.87589400  0.25745600  0.40089600  1
  C  C15  1  0.37911100  0.24208400  0.89977400  1
  C  C16  1  0.62410600  0.75745600  0.09910400  1
  C  C17  1  0.13840100  0.90849000  0.63510800  1
  C  C18  1  0.86481500  0.09404600  0.36196000  1
  C  C19  1  0.36159900  0.40849000  0.86489100  1
  C  C20  1  0.63518500  0.59404600  0.13803900  1
  C  C21  1  0.11584000  0.10923500  0.63175100  1
  C  C22  1  0.89422100  0.91212700  0.36235300  1
  C  C23  1  0.38416000  0.60923500  0.86824900  1
  C  C24  1  0.60577900  0.41212700  0.13764600  1
  C  C25  1  0.07546300  0.13918500  0.59377400  1
  C  C26  1  0.93348000  0.89484900  0.40243000  1
  C  C27  1  0.42453700  0.63918500  0.90622600  1
  C  C28  1  0.56652000  0.39484900  0.09757000  1
  C  C29  1  0.05839700  0.97195200  0.55903100  1
  C  C30  1  0.94373300  0.05749900  0.44141500  1
  C  C31  1  0.44160300  0.47195200  0.94096900  1
  C  C32  1  0.55626700  0.55749900  0.05858400  1
  C  C33  1  0.01775000  0.00633700  0.51824000  1
  C  C34  1  0.98384600  0.03254500  0.48345800  1
  C  C35  1  0.48225000  0.50633700  0.98176000  1
  C  C36  1  0.51615400  0.53254500  0.01654200  1
  C  C37  1  0.37588800  0.08926100  0.64093700  1
  C  C38  1  0.62878800  0.89005900  0.36431500  1
  C  C39  1  0.12411200  0.58926100  0.85906300  1
  C  C40  1  0.87121200  0.39005900  0.13568500  1
  C  C41  1  0.41285800  0.11434200  0.60564800  1
  C  C42  1  0.59234600  0.86265800  0.40025900  1
  C  C43  1  0.08714200  0.61434200  0.89435200  1
  C  C44  1  0.90765400  0.36265800  0.09974100  1
  C  C45  1  0.42718700  0.94177900  0.57384600  1
  C  C46  1  0.57785400  0.03441900  0.43224900  1
  C  C47  1  0.07281300  0.44177900  0.92615300  1
  C  C48  1  0.92214600  0.53441900  0.06775100  1
  C  C49  1  0.40435800  0.74473700  0.57715300  1
  C  C50  1  0.60008300  0.23266600  0.42860800  1
  C  C51  1  0.09564200  0.24473700  0.92284700  1
  C  C52  1  0.89991700  0.73266600  0.07139100  1
  C  C53  1  0.36748400  0.71973500  0.61234200  1
  C  C54  1  0.63636500  0.26002800  0.39274200  1
  C  C55  1  0.13251600  0.21973500  0.88765800  1
  C  C56  1  0.86363500  0.76002800  0.10725800  1
  C  C57  1  0.35324900  0.89147900  0.64436100  1
  C  C58  1  0.65067900  0.08938700  0.36040900  1
  C  C59  1  0.14675100  0.39147900  0.85563900  1
  C  C60  1  0.84932100  0.58938700  0.13959000  1
  C  C61  1  0.53869400  0.00909200  0.46947700  1
  C  C62  1  0.46658000  0.96607000  0.53690600  1
  C  C63  1  0.96130600  0.50909200  0.03052300  1
  C  C64  1  0.03342000  0.46607000  0.96309400  1
  C  C65  1  0.13395700  0.28998600  0.66786700  1
  C  C66  1  0.88620100  0.74099600  0.31987600  1
  C  C67  1  0.36604300  0.78998600  0.83213300  1
  C  C68  1  0.61379900  0.24099600  0.18012400  1
  C  C69  1  0.05150500  0.34984000  0.58769100  1
  C  C70  1  0.96358700  0.69995600  0.40612400  1
  C  C71  1  0.44849500  0.84984000  0.91230900  1
  C  C72  1  0.53641300  0.19995600  0.09387600  1
  N  N1  1  0.48041000  0.79630700  0.50640100  1
  N  N2  1  0.52486500  0.17879400  0.49998900  1
  N  N3  1  0.01959000  0.29630700  0.99359900  1
  N  N4  1  0.97513500  0.67879400  0.00001000  1
  N  N5  1  0.51611900  0.81756500  0.47297100  1
  N  N6  1  0.48916800  0.15753300  0.53341900  1
  N  N7  1  0.98388100  0.31756500  0.02702900  1
  N  N8  1  0.01083100  0.65753300  0.96658100  1
  O  O1  1  0.69405900  0.45750400  0.20953000  1
  O  O2  1  0.30302400  0.52952600  0.79252400  1
  O  O3  1  0.80594100  0.95750400  0.29046900  1
  O  O4  1  0.19697600  0.02952600  0.70747600  1
  O  O5  1  0.79429900  0.82382900  0.17899900  1
  O  O6  1  0.20445200  0.16338100  0.81874700  1
  O  O7  1  0.70570100  0.32382900  0.32100100  1
  O  O8  1  0.29554800  0.66338100  0.68125300  1
  O  O9  1  0.69573300  0.82338000  0.18002200  1
  O  O10  1  0.30342300  0.16442600  0.82288300  1
  O  O11  1  0.80426700  0.32338000  0.31997800  1
  O  O12  1  0.19657700  0.66442600  0.67711700  1
  O  O13  1  0.70163600  0.95649400  0.29161000  1
  O  O14  1  0.30159300  0.03039700  0.71148500  1
  O  O15  1  0.79836400  0.45649400  0.20839000  1
  O  O16  1  0.19840700  0.53039700  0.78851500  1
  O  O17  1  0.75261300  0.68065500  0.28622500  1
  O  O18  1  0.24699600  0.30633100  0.71346600  1
  O  O19  1  0.74738700  0.18065500  0.21377500  1
  O  O20  1  0.25300400  0.80633100  0.78653400  1
  O  O21  1  0.17728400  0.32513500  0.67546900  1
  O  O22  1  0.10157500  0.42730400  0.69194000  1
  O  O23  1  0.92075000  0.65432600  0.30056700  1
  O  O24  1  0.83987300  0.66729700  0.30363300  1
  O  O25  1  0.32271500  0.82513500  0.82453000  1
  O  O26  1  0.39842500  0.92730400  0.80806000  1
  O  O27  1  0.57925000  0.15432600  0.19943300  1
  O  O28  1  0.66012700  0.16729700  0.19636600  1
  O  O29  1  0.06815700  0.50621200  0.61403700  1
  O  O30  1  0.01004300  0.37261100  0.55049200  1
  O  O31  1  0.00008000  0.69545500  0.43891500  1
  O  O32  1  0.94976700  0.51674300  0.37457300  1
  O  O33  1  0.43184300  0.00621200  0.88596300  1
  O  O34  1  0.48995700  0.87261100  0.94950800  1
  O  O35  1  0.49992000  0.19545500  0.06108500  1
  O  O36  1  0.55023300  0.01674300  0.12542700  1
