# Generated by REPEAT Assigner based on pymatgen
data_DB0-m2_o6_o32_dme_sqe
_audit_creation_date              2022-05-24
_audit_creation_method            REPEAT_Assigner
_cell_length_a                    29.727502
_cell_length_b                    33.035228
_cell_length_c                    24.581439
_cell_angle_alpha                 104.434133
_cell_angle_beta                  122.787150
_cell_angle_gamma                 69.275381
_cell_volume                      18930.204168
_symmetry_space_group_name_H-M    P1
_symmetry_Int_Tables_number       1
loop_
    _symmetry_equiv_pos_site_id
    _symmetry_equiv_pos_as_xyz
    1  x,y,z
loop_
    _atom_site_type_symbol
    _atom_site_label
    _atom_site_fract_x
    _atom_site_fract_y
    _atom_site_fract_z
    _atom_type_partial_charge
    O   O1    0.543553  0.955218  0.492662  -0.631793
    O   O2    0.532451  0.962490  0.579864  -0.637310
    C   C1    0.551793  0.938727  0.541701  0.857180
    O   O3    0.568736  0.032948  0.527722  -0.625384
    O   O4    0.562101  0.039187  0.617958  -0.593042
    C   C2    0.588460  0.041626  0.590438  0.794044
    Cu  Cu1   0.500773  0.014595  0.468356  1.030625
    Cu  Cu2   0.491581  0.023939  0.571560  1.022529
    O   O5    0.457288  0.075736  0.458514  -0.649466
    O   O6    0.452671  0.084275  0.550575  -0.633115
    O   O7    0.433677  0.994483  0.423013  -0.620837
    O   O8    0.422151  0.007628  0.510993  -0.615994
    C   C3    0.441614  0.100318  0.499603  0.853340
    C   C4    0.405451  0.994583  0.449603  0.694517
    O   O9    0.953342  0.943226  0.490245  -0.628216
    O   O10   0.032383  0.961214  0.572811  -0.627159
    C   C5    0.004295  0.932208  0.538950  0.826419
    O   O11   0.953250  0.987746  0.411553  -0.613730
    O   O12   0.028136  0.010897  0.494484  -0.606371
    C   C6    0.001596  0.994613  0.434619  0.676057
    Cu  Cu3   0.914288  0.001652  0.460100  1.024281
    Cu  Cu4   0.003748  0.022989  0.557912  1.005799
    O   O13   0.886875  0.063346  0.443664  -0.637516
    O   O14   0.963396  0.082039  0.531065  -0.622828
    O   O15   0.888474  0.015329  0.522312  -0.615933
    O   O16   0.967191  0.032128  0.608006  -0.586957
    C   C7    0.913600  0.092846  0.480425  0.810293
    C   C8    0.917464  0.027531  0.583830  0.777509
    C   C9    0.154317  0.885830  0.229356  0.047429
    C   C10   0.128806  0.932069  0.306705  0.000161
    C   C11   0.213663  0.929492  0.313435  -0.000013
    C   C12   0.116716  0.903715  0.251606  -0.150146
    H   H1    0.077359  0.895959  0.225220  0.101617
    C   C13   0.178539  0.942848  0.338636  -0.118199
    H   H2    0.190991  0.960955  0.385159  0.098217
    C   C14   0.201902  0.900086  0.259357  -0.165457
    H   H3    0.230379  0.887722  0.241167  0.115930
    C   C15   0.116715  0.822127  0.167830  -0.165899
    C   C16   0.108664  0.788924  0.119325  -0.134866
    C   C17   0.129651  0.783007  0.078924  0.074609
    C   C18   0.157585  0.811471  0.086548  -0.135979
    C   C19   0.164100  0.845637  0.133657  -0.154266
    C   C20   0.144325  0.851160  0.175580  0.092332
    H   H4    0.087470  0.766548  0.114788  0.104912
    H   H5    0.173361  0.807831  0.054497  0.104581
    H   H6    0.102332  0.823999  0.200611  0.123483
    H   H7    0.184338  0.868070  0.136293  0.114369
    C   C21   0.311301  0.922810  0.344042  -0.159225
    C   C22   0.356914  0.939329  0.375601  -0.131128
    C   C23   0.355760  0.978815  0.411268  0.013488
    C   C24   0.308036  0.002661  0.412791  -0.135843
    C   C25   0.261523  0.987415  0.378562  -0.152181
    C   C26   0.262950  0.946612  0.345458  0.141039
    H   H8    0.394606  0.920132  0.374993  0.125850
    H   H9    0.306499  0.033974  0.439725  0.127647
    H   H10   0.315058  0.890602  0.320194  0.117899
    H   H11   0.224138  0.008346  0.378364  0.117828
    C   C27   0.057293  0.926745  0.326985  -0.174755
    C   C28   0.025581  0.942585  0.356852  -0.113008
    C   C29   0.028479  0.981015  0.395344  0.009583
    C   C30   0.060511  0.004845  0.400553  -0.133735
    C   C31   0.090073  0.990187  0.368320  -0.158819
    C   C32   0.090752  0.950081  0.333335  0.148232
    H   H12   0.001314  0.923235  0.353351  0.122626
    H   H13   0.062456  0.035310  0.429789  0.131619
    H   H14   0.057252  0.895042  0.301328  0.124459
    H   H15   0.113209  0.010589  0.371994  0.117716
    O   O17   0.278702  0.450980  0.565526  -0.632981
    O   O18   0.355677  0.468852  0.653203  -0.645619
    C   C33   0.328262  0.439752  0.616370  0.834877
    O   O19   0.276990  0.499587  0.488701  -0.585666
    O   O20   0.356242  0.515441  0.574638  -0.619757
    C   C34   0.327192  0.503268  0.513123  0.791473
    Cu  Cu5   0.239750  0.510085  0.538409  1.017276
    Cu  Cu6   0.329817  0.530408  0.636428  1.029374
    O   O21   0.212654  0.571733  0.523194  -0.632055
    O   O22   0.292323  0.588760  0.605862  -0.631413
    O   O23   0.214742  0.523485  0.601489  -0.610829
    O   O24   0.290174  0.545972  0.684472  -0.618035
    C   C35   0.241556  0.600232  0.556985  0.828447
    C   C36   0.241297  0.540027  0.661177  0.679807
    O   O25   0.800871  0.442750  0.566967  -0.626943
    O   O26   0.795124  0.452459  0.658491  -0.646743
    C   C37   0.810786  0.427239  0.617732  0.837196
    O   O27   0.834232  0.517995  0.607181  -0.610408
    O   O28   0.821786  0.532359  0.694627  -0.616995
    C   C38   0.850950  0.530996  0.668587  0.689222
    Cu  Cu7   0.763902  0.503192  0.545940  1.012670
    Cu  Cu8   0.753389  0.513958  0.648501  1.030560
    O   O29   0.724863  0.564993  0.537565  -0.636515
    O   O30   0.712614  0.573581  0.624212  -0.629913
    O   O31   0.692376  0.489491  0.498796  -0.590274
    O   O32   0.684502  0.496987  0.588447  -0.626562
    C   C39   0.705578  0.589506  0.575433  0.860927
    C   C40   0.665080  0.488162  0.525795  0.781216
    C   C41   0.041011  0.597266  0.798836  -0.018130
    C   C42   0.118791  0.601218  0.795396  0.018718
    C   C43   0.097790  0.644145  0.877907  0.029589
    C   C44   0.071784  0.587244  0.768469  -0.116648
    H   H16   0.057991  0.569232  0.721837  0.098797
    C   C45   0.130884  0.630641  0.849450  -0.163688
    H   H17   0.165700  0.643564  0.868784  0.118371
    C   C46   0.054712  0.625472  0.854153  -0.139867
    H   H18   0.032198  0.632548  0.879568  0.100777
    C   C47   0.993809  0.538808  0.734559  -0.171618
    C   C48   0.947430  0.523433  0.701580  -0.116559
    C   C49   0.901236  0.546011  0.707169  -0.001756
    C   C50   0.901755  0.584066  0.746354  -0.112309
    C   C51   0.947098  0.600784  0.776791  -0.178199
    C   C52   0.993544  0.578561  0.770557  0.162078
    H   H19   0.947749  0.493201  0.671859  0.123068
    H   H20   0.865284  0.602345  0.750204  0.120074
    H   H21   0.029932  0.519110  0.730908  0.122948
    H   H22   0.944396  0.632202  0.803123  0.126775
    C   C53   0.062414  0.707074  0.937965  -0.162580
    C   C54   0.070084  0.740247  0.986491  -0.144755
    C   C55   0.122043  0.746964  0.028343  0.084530
    C   C56   0.166593  0.719344  0.022087  -0.139854
    C   C57   0.159387  0.685188  0.974924  -0.161648
    C   C58   0.106993  0.678841  0.931624  0.110109
    H   H23   0.034548  0.761983  0.989924  0.109139
    H   H24   0.207789  0.723630  0.055240  0.108347
    H   H25   0.020532  0.704604  0.904075  0.118733
    H   H26   0.195668  0.663410  0.973340  0.113823
    C   C59   0.156626  0.543877  0.732326  -0.134998
    C   C60   0.185022  0.529427  0.698738  -0.155827
    C   C61   0.214330  0.554307  0.700386  0.023784
    C   C62   0.215049  0.593901  0.735922  -0.125782
    C   C63   0.184251  0.609525  0.766951  -0.150789
    C   C64   0.154068  0.584810  0.764944  0.116687
    H   H27   0.184868  0.498078  0.671847  0.137865
    H   H28   0.237182  0.614014  0.736534  0.124879
    H   H29   0.136392  0.522352  0.732140  0.111700
    H   H30   0.182829  0.641851  0.790545  0.113389
    H   H31   0.759472  0.093689  0.554758  0.132402
    C   C65   0.709902  0.070328  0.571576  -0.152350
    H   H32   0.675313  0.099043  0.555926  0.141016
    C   C66   0.706857  0.036705  0.592220  0.189120
    C   C67   0.750970  0.000066  0.612150  -0.160201
    H   H33   0.748572  0.973704  0.628307  0.139666
    C   C68   0.798144  0.997067  0.611496  -0.143778
    H   H34   0.832732  0.968352  0.627144  0.135949
    C   C69   0.801208  0.030704  0.590904  0.193040
    C   C70   0.757075  0.067327  0.570919  -0.139552
    C   C71   0.657789  0.039845  0.592973  0.132886
    C   C72   0.850322  0.027604  0.590285  0.102062
    C   C73   0.894451  0.035953  0.625224  -0.315795
    C   C74   0.639595  0.053908  0.629456  -0.350814
    H   H35   0.306311  0.301126  0.583230  0.148773
    C   C75   0.350444  0.244856  0.549129  -0.194585
    H   H36   0.324810  0.225011  0.540698  0.154307
    C   C76   0.393470  0.227402  0.535996  0.270843
    C   C77   0.426051  0.252917  0.546868  -0.173048
    H   H37   0.459795  0.239402  0.536661  0.143963
    C   C78   0.415655  0.295675  0.570752  -0.199406
    H   H38   0.441288  0.315523  0.579181  0.150867
    C   C79   0.372637  0.313126  0.583898  0.272942
    C   C80   0.340052  0.287612  0.573017  -0.172263
    C   C81   0.404296  0.182806  0.511056  -0.081814
    C   C82   0.361827  0.357713  0.608872  -0.084701
    C   C83   0.353142  0.394867  0.630848  -0.216704
    C   C84   0.412842  0.145530  0.489474  -0.225135
    H   H39   0.560825  0.725072  0.526620  0.156893
    C   C85   0.574459  0.786739  0.538323  -0.166487
    H   H40   0.531595  0.804398  0.522863  0.137257
    C   C86   0.612717  0.808715  0.555933  0.257580
    C   C87   0.667395  0.786124  0.575643  -0.211048
    H   H41   0.697425  0.803299  0.589458  0.157786
    C   C88   0.683791  0.741632  0.577750  -0.163447
    H   H42   0.726655  0.723974  0.593214  0.136950
    C   C89   0.645534  0.719656  0.560148  0.255885
    C   C90   0.590855  0.742247  0.540431  -0.207095
    C   C91   0.595646  0.855053  0.553767  -0.069927
    C   C92   0.662613  0.673320  0.562346  -0.068748
    C   C93   0.676624  0.634382  0.563509  -0.245305
    C   C94   0.582111  0.894042  0.553564  -0.240994
    H   H43   0.087808  0.704046  0.528106  0.147632
    C   C95   0.071186  0.773111  0.538335  -0.162204
    H   H44   0.030044  0.778553  0.530334  0.142362
    C   C96   0.091249  0.807956  0.549790  0.257930
    C   C97   0.143758  0.800949  0.559992  -0.189015
    H   H45   0.159530  0.828226  0.568969  0.147553
    C   C98   0.176152  0.759161  0.558743  -0.167646
    H   H46   0.217292  0.753720  0.566738  0.142965
    C   C99   0.156085  0.724317  0.547278  0.264352
    C   C100  0.103581  0.731323  0.537087  -0.192775
    C   C101  0.057524  0.851473  0.551115  -0.087703
    C   C102  0.189796  0.680801  0.545911  -0.089328
    C   C103  0.217117  0.644623  0.540622  -0.207589
    C   C104  0.029828  0.887769  0.555068  -0.209341
    H   H47   0.794591  0.319980  0.478284  0.158639
    C   C105  0.833044  0.251692  0.480886  -0.180163
    H   H48   0.809547  0.245462  0.428874  0.150897
    C   C106  0.871366  0.217811  0.519406  0.267023
    C   C107  0.901249  0.225950  0.585785  -0.186240
    H   H49   0.931300  0.199505  0.616127  0.155901
    C   C108  0.892851  0.267796  0.613526  -0.192086
    H   H50   0.916349  0.274026  0.665538  0.155012
    C   C109  0.854531  0.301678  0.575006  0.278084
    C   C110  0.824643  0.293537  0.508627  -0.199724
    C   C111  0.880141  0.174180  0.490482  -0.087100
    C   C112  0.845769  0.345313  0.603924  -0.089591
    C   C113  0.838400  0.381940  0.628089  -0.209439
    C   C114  0.887740  0.137683  0.465989  -0.199260
    H   H51   0.504581  0.557262  0.489179  0.138053
    C   C115  0.451581  0.532691  0.498166  -0.145870
    H   H52   0.417980  0.562124  0.484352  0.139061
    C   C116  0.445888  0.497863  0.513058  0.191319
    C   C117  0.488760  0.460324  0.530710  -0.155999
    H   H53   0.484302  0.433030  0.542408  0.140528
    C   C118  0.537301  0.457600  0.533416  -0.135004
    H   H54   0.570901  0.428167  0.547236  0.132507
    C   C119  0.542978  0.492416  0.518472  0.181569
    C   C120  0.500123  0.529967  0.500873  -0.152978
    C   C121  0.395353  0.500682  0.510187  0.120375
    C   C122  0.593471  0.489567  0.521220  0.123199
    C   C123  0.613246  0.476945  0.486272  -0.325183
    C   C124  0.350669  0.493858  0.472009  -0.348268
