# generated using pymatgen
data_Fe2H16C46O17
_symmetry_space_group_name_H-M   'P 1'
_cell_length_a   13.30390600
_cell_length_b   11.85277700
_cell_length_c   15.45424000
_cell_angle_alpha   90.58396000
_cell_angle_beta   99.79800900
_cell_angle_gamma   102.44101700
_symmetry_Int_Tables_number   1
_chemical_formula_structural   Fe2H16C46O17
_chemical_formula_sum   'Fe2 H16 C46 O17'
_cell_volume   2342.23547519
_cell_formula_units_Z   1
loop_
 _symmetry_equiv_pos_site_id
 _symmetry_equiv_pos_as_xyz
  1  'x, y, z'
loop_
 _atom_site_type_symbol
 _atom_site_label
 _atom_site_symmetry_multiplicity
 _atom_site_fract_x
 _atom_site_fract_y
 _atom_site_fract_z
 _atom_site_occupancy
  Fe  Fe1  1  0.49470500  0.98589000  0.17979500  1
  Fe  Fe2  1  0.50491200  0.01922200  0.82384600  1
  H  H1  1  0.11508800  0.99342800  0.78670500  1
  H  H2  1  0.93575600  0.98612700  0.77001900  1
  H  H3  1  0.78194700  0.98644900  0.83029800  1
  H  H4  1  0.21772000  0.01882900  0.17405800  1
  H  H5  1  0.06398600  0.01915400  0.23431300  1
  H  H6  1  0.88490300  0.01164700  0.21771000  1
  H  H7  1  0.49300500  0.77360500  0.41462500  1
  H  H8  1  0.51078600  0.79613500  0.54750300  1
  H  H9  1  0.46496400  0.20422300  0.45612600  1
  H  H10  1  0.50770700  0.23048800  0.58902500  1
  H  H11  1  0.50765400  0.55564400  0.20268000  1
  H  H12  1  0.50676500  0.36049300  0.21910900  1
  H  H13  1  0.49178700  0.43928100  0.80272500  1
  H  H14  1  0.68835000  0.62894300  0.81686400  1
  H  H15  1  0.63263000  0.57514200  0.91143300  1
  H  H16  1  0.67822100  0.72862600  0.90203200  1
  C  C1  1  0.22071200  0.00328600  0.90933400  1
  C  C2  1  0.12389900  0.99700600  0.85749900  1
  C  C3  1  0.03679200  0.99658900  0.89443400  1
  C  C4  1  0.94197300  0.99131200  0.84067100  1
  C  C5  1  0.85401200  0.99233800  0.87597800  1
  C  C6  1  0.22848100  0.00610500  0.00079500  1
  C  C7  1  0.13971300  0.00608900  0.03782700  1
  C  C8  1  0.04407500  0.00202000  0.98419700  1
  C  C9  1  0.95567200  0.00405400  0.02010500  1
  C  C10  1  0.85997000  0.00004100  0.96649800  1
  C  C11  1  0.77115900  0.99992100  0.00366000  1
  C  C12  1  0.14573400  0.01346500  0.12835100  1
  C  C13  1  0.05781600  0.01434700  0.16365800  1
  C  C14  1  0.96305600  0.00919600  0.10989000  1
  C  C15  1  0.87604400  0.00832700  0.14691200  1
  C  C16  1  0.77927200  0.00214300  0.09519900  1
  C  C17  1  0.68957200  0.99833600  0.14094500  1
  C  C18  1  0.49842700  0.77222700  0.24551600  1
  C  C19  1  0.33005300  0.01779100  0.05863800  1
  C  C20  1  0.47913300  0.15862700  0.29618800  1
  C  C21  1  0.52013800  0.84384300  0.71064000  1
  C  C22  1  0.66918000  0.98881900  0.94609200  1
  C  C23  1  0.50166700  0.23004600  0.75788100  1
  C  C24  1  0.31066000  0.00656500  0.86377400  1
  C  C25  1  0.50020600  0.67497600  0.30457100  1
  C  C26  1  0.50489700  0.56842700  0.27147300  1
  C  C27  1  0.50223600  0.47582700  0.32487800  1
  C  C28  1  0.50265300  0.36958900  0.28800700  1
  C  C29  1  0.48887500  0.27327700  0.33685000  1
  C  C30  1  0.49751400  0.68898200  0.39297400  1
  C  C31  1  0.49887900  0.59691300  0.44940300  1
  C  C32  1  0.49791500  0.48856900  0.41349100  1
  C  C33  1  0.49188400  0.39237800  0.46488300  1
  C  C34  1  0.50627800  0.71715900  0.58131700  1
  C  C35  1  0.49995900  0.60987400  0.54016200  1
  C  C36  1  0.49771900  0.51411500  0.59214500  1
  C  C37  1  0.50929900  0.72893300  0.67026400  1
  C  C38  1  0.50843700  0.63472200  0.72140700  1
  C  C39  1  0.48048600  0.28402500  0.42358300  1
  C  C40  1  0.49499500  0.40565700  0.55547600  1
  C  C41  1  0.50027700  0.31381400  0.61116700  1
  C  C42  1  0.50042100  0.52707800  0.68219800  1
  C  C43  1  0.49618900  0.43244300  0.73402200  1
  C  C44  1  0.49903300  0.32690800  0.69949900  1
  C  C45  1  0.53338700  0.65224900  0.81761400  1
  C  C46  1  0.63966300  0.64593700  0.86496800  1
  O  O1  1  0.59534200  0.99677000  0.09800600  1
  O  O2  1  0.50552200  0.75714600  0.16272100  1
  O  O3  1  0.70377700  0.99508600  0.22693800  1
  O  O4  1  0.49008400  0.87426600  0.27435600  1
  O  O5  1  0.35128000  0.93279100  0.10761900  1
  O  O6  1  0.39872200  0.11663500  0.06487100  1
  O  O7  1  0.53739400  0.14513000  0.23809600  1
  O  O8  1  0.41031000  0.07008100  0.31599600  1
  O  O9  1  0.46011000  0.85925200  0.76687300  1
  O  O10  1  0.59033000  0.93125400  0.69115900  1
  O  O11  1  0.64933400  0.07185600  0.89455900  1
  O  O12  1  0.59717900  0.89351600  0.94466000  1
  O  O13  1  0.29579200  0.00616700  0.77761300  1
  O  O14  1  0.50927800  0.12884000  0.72806200  1
  O  O15  1  0.40563900  0.01135800  0.90672300  1
  O  O16  1  0.49606700  0.24405500  0.84113500  1
  O  O17  1  0.46569800  0.66296800  0.85931700  1
