# generated using pymatgen
data_Zn2H24C37O10
_symmetry_space_group_name_H-M   'P 1'
_cell_length_a   21.87190700
_cell_length_b   21.89262900
_cell_length_c   22.22150800
_cell_angle_alpha   119.50261000
_cell_angle_beta   119.47728400
_cell_angle_gamma   90.01048700
_symmetry_Int_Tables_number   1
_chemical_formula_structural   Zn2H24C37O10
_chemical_formula_sum   'Zn6 H72 C111 O30'
_cell_volume   7637.77947085
_cell_formula_units_Z   3
loop_
 _symmetry_equiv_pos_site_id
 _symmetry_equiv_pos_as_xyz
  1  'x, y, z'
loop_
 _atom_site_type_symbol
 _atom_site_label
 _atom_site_symmetry_multiplicity
 _atom_site_fract_x
 _atom_site_fract_y
 _atom_site_fract_z
 _atom_site_occupancy
  Zn  Zn1  1  0.42880300  0.99827100  0.49992700  1
  Zn  Zn2  1  0.56429000  0.99298200  0.49396000  1
  Zn  Zn3  1  0.99990300  0.56765800  0.49469500  1
  Zn  Zn4  1  0.00013500  0.43128400  0.49874200  1
  Zn  Zn5  1  0.54696900  0.54173500  0.59161000  1
  Zn  Zn6  1  0.45285000  0.44865800  0.40206500  1
  H  H1  1  0.72592900  0.35142100  0.06214800  1
  H  H2  1  0.64389500  0.27147000  0.92320900  1
  H  H3  1  0.80994900  0.23609700  0.91982000  1
  H  H4  1  0.75852500  0.30084600  0.93012300  1
  H  H5  1  0.84285100  0.36587200  0.07020600  1
  H  H6  1  0.88463300  0.29324300  0.06031900  1
  H  H7  1  0.69830700  0.10969500  0.92301600  1
  H  H8  1  0.78222000  0.13299600  0.93065200  1
  H  H9  1  0.75693400  0.18502900  0.06377300  1
  H  H10  1  0.62631200  0.19787000  0.93378500  1
  H  H11  1  0.69631800  0.28321900  0.07396000  1
  H  H12  1  0.84294300  0.19569100  0.07149800  1
  H  H13  1  0.52924200  0.27677500  0.82237400  1
  H  H14  1  0.39669300  0.21867400  0.57097300  1
  H  H15  1  0.63176400  0.29331400  0.70836700  1
  H  H16  1  0.64118600  0.30773800  0.82973700  1
  H  H17  1  0.51642700  0.36088000  0.61060400  1
  H  H18  1  0.48849300  0.12582700  0.37981000  1
  H  H19  1  0.37619200  0.14653500  0.26905900  1
  H  H20  1  0.35659300  0.12659600  0.14127000  1
  H  H21  1  0.45209000  0.19652700  0.15003600  1
  H  H22  1  0.56799900  0.28559500  0.28700600  1
  H  H23  1  0.58813500  0.30472100  0.41444100  1
  H  H24  1  0.12921800  0.64798400  0.91942400  1
  H  H25  1  0.20926700  0.70664500  0.05966600  1
  H  H26  1  0.37096700  0.76478600  0.06283400  1
  H  H27  1  0.32768300  0.70105200  0.07050400  1
  H  H28  1  0.24504800  0.62675500  0.92989700  1
  H  H29  1  0.29848000  0.68207700  0.92215500  1
  H  H30  1  0.24217200  0.87548200  0.06358700  1
  H  H31  1  0.32951200  0.87392400  0.07439900  1
  H  H32  1  0.18716500  0.81163700  0.92344100  1
  H  H33  1  0.17975100  0.78649800  0.07086500  1
  H  H34  1  0.11230900  0.73260800  0.93076600  1
  H  H35  1  0.27219100  0.79649900  0.93418400  1
  H  H36  1  0.16994600  0.76966600  0.25409200  1
  H  H37  1  0.19888900  0.78086600  0.38168800  1
  H  H38  1  0.31784800  0.77249600  0.47154600  1
  H  H39  1  0.37912700  0.74177800  0.30606200  1
  H  H40  1  0.26000600  0.74999300  0.21631100  1
  H  H41  1  0.60940100  0.84705900  0.58208300  1
  H  H42  1  0.65012100  0.82805600  0.71537100  1
  H  H43  1  0.77451500  0.82832100  0.80534800  1
  H  H44  1  0.82932000  0.74141700  0.74223700  1
  H  H45  1  0.76012800  0.65512500  0.58935100  1
  H  H46  1  0.63453700  0.65283000  0.49894500  1
  H  H47  1  0.72733000  0.53462000  0.20472300  1
  H  H48  1  0.71066300  0.62896500  0.31143900  1
  H  H49  1  0.72123400  0.61473400  0.41865700  1
  H  H50  1  0.76430200  0.41086300  0.31187800  1
  H  H51  1  0.75360300  0.42581500  0.20504300  1
  H  H52  1  0.63805700  0.50529800  0.39423300  1
  H  H53  1  0.86153700  0.49120200  0.59759300  1
  H  H54  1  0.85253600  0.59572800  0.72195900  1
  H  H55  1  0.86785000  0.59615100  0.83920200  1
  H  H56  1  0.78393500  0.49717100  0.81204100  1
  H  H57  1  0.68518900  0.39692300  0.66697100  1
  H  H58  1  0.67041600  0.39589600  0.54984000  1
  H  H59  1  0.27378900  0.80852000  0.65317200  1
  H  H60  1  0.26818000  0.68606200  0.55525600  1
  H  H61  1  0.23626700  0.60383200  0.67975000  1
  H  H62  1  0.24183000  0.72616700  0.77813500  1
  H  H63  1  0.35664500  0.60806200  0.58720500  1
  H  H64  1  0.14625400  0.38313700  0.41211600  1
  H  H65  1  0.15569600  0.33479800  0.28039400  1
  H  H66  1  0.15233600  0.20977800  0.18822500  1
  H  H67  1  0.24682000  0.15810800  0.24670400  1
  H  H68  1  0.34426700  0.23137900  0.39766200  1
  H  H69  1  0.34895500  0.35703800  0.49017000  1
  H  H70  1  0.27784200  0.19139800  0.62533400  1
  H  H71  1  0.29226300  0.56622600  0.39852700  1
  H  H72  1  0.25556800  0.91461800  0.87868700  1
  C  C1  1  0.50044700  0.11584100  0.49849000  1
  C  C2  1  0.58107400  0.07672000  0.66079800  1
  C  C3  1  0.49250900  0.87517200  0.49519900  1
  C  C4  1  0.41206500  0.91456500  0.33304800  1
  C  C5  1  0.67010400  0.24056900  0.95078900  1
  C  C6  1  0.77961100  0.26257800  0.94831800  1
  C  C7  1  0.83164700  0.30569800  0.04285800  1
  C  C8  1  0.87916100  0.36919700  0.24307900  1
  C  C9  1  0.71524800  0.20378100  0.91780800  1
  C  C10  1  0.72046300  0.29387000  0.04499900  1
  C  C11  1  0.79607000  0.28351200  0.07591900  1
  C  C12  1  0.78755000  0.20284800  0.04452300  1
  C  C13  1  0.74490100  0.15598000  0.94972800  1
  C  C14  1  0.84226200  0.33014700  0.16758100  1
  C  C15  1  0.66792300  0.15804000  0.82615500  1
  C  C16  1  0.62839100  0.12083500  0.75067200  1
  C  C17  1  0.45502500  0.24494900  0.69586700  1
  C  C18  1  0.45003400  0.23753700  0.62801700  1
  C  C19  1  0.51346500  0.25398400  0.63223200  1
  C  C20  1  0.58210700  0.27943600  0.70475400  1
  C  C21  1  0.58733600  0.28751500  0.77277400  1
  C  C22  1  0.52404500  0.27007500  0.76837900  1
  C  C23  1  0.51092500  0.30979700  0.55958700  1
  C  C24  1  0.50321900  0.30608600  0.49218000  1
  C  C25  1  0.49401000  0.23869300  0.42607300  1
  C  C26  1  0.49448100  0.17781900  0.43027600  1
  C  C27  1  0.50073400  0.18179600  0.49693800  1
  C  C28  1  0.50770800  0.24784000  0.56113900  1
  C  C29  1  0.41844700  0.17731400  0.27331700  1
  C  C30  1  0.40732000  0.16613000  0.20147600  1
  C  C31  1  0.46081500  0.20531300  0.20637300  1
  C  C32  1  0.52569300  0.25527700  0.28310900  1
  C  C33  1  0.53684400  0.26640200  0.35492700  1
  C  C34  1  0.48275600  0.22835400  0.35049900  1
  C  C35  1  0.20467500  0.74725800  0.04287800  1
  C  C36  1  0.31739900  0.73436900  0.04380200  1
  C  C37  1  0.26683000  0.68351100  0.94914100  1
  C  C38  1  0.12126400  0.62903500  0.75048400  1
  C  C39  1  0.28100300  0.78911000  0.07590600  1
  C  C40  1  0.15589400  0.70687100  0.94838900  1
  C  C41  1  0.20291400  0.71190700  0.91771200  1
  C  C42  1  0.23321600  0.79194500  0.95107100  1
  C  C43  1  0.27373600  0.83908900  0.04557000  1
  C  C44  1  0.15786900  0.66687400  0.82601400  1
  C  C45  1  0.32666900  0.83382600  0.16760300  1
  C  C46  1  0.36514500  0.87063900  0.24313100  1
  C  C47  1  0.23848800  0.77219800  0.36507200  1
  C  C48  1  0.30518300  0.76738700  0.41539500  1
  C  C49  1  0.35589900  0.75637600  0.39432600  1
  C  C50  1  0.33961600  0.75038800  0.32281300  1
  C  C51  1  0.27279400  0.75497600  0.27242000  1
  C  C52  1  0.22227500  0.76595700  0.29357500  1
  C  C53  1  0.42894800  0.68928400  0.45050000  1
  C  C54  1  0.49629900  0.68418900  0.50104100  1
  C  C55  1  0.56109700  0.74178500  0.54869400  1
  C  C56  1  0.55850000  0.80274700  0.54492800  1
  C  C57  1  0.49210500  0.80817800  0.49518500  1
  C  C58  1  0.42689200  0.75136400  0.44778800  1
  C  C59  1  0.67376500  0.78928200  0.68753700  1
  C  C60  1  0.74359700  0.78952500  0.73806000  1
  C  C61  1  0.77430500  0.74084600  0.70272000  1
  C  C62  1  0.73521100  0.69205000  0.61687700  1
  C  C63  1  0.66480300  0.69084000  0.56629400  1
  C  C64  1  0.63377600  0.73925900  0.60167300  1
  C  C65  1  0.87768900  0.49729000  0.49129900  1
  C  C66  1  0.92206600  0.41596500  0.33293700  1
  C  C67  1  0.12237400  0.50162500  0.50211900  1
  C  C68  1  0.07816400  0.58287100  0.66056400  1
  C  C69  1  0.62129800  0.49870100  0.50016400  1
  C  C70  1  0.50134400  0.37313700  0.49200400  1
  C  C71  1  0.37882100  0.49050900  0.49392500  1
  C  C72  1  0.49891300  0.61713200  0.50132000  1
  C  C73  1  0.72285800  0.58128700  0.31187500  1
  C  C74  1  0.72871600  0.57312700  0.37197700  1
  C  C75  1  0.74500200  0.51268100  0.37332800  1
  C  C76  1  0.75359500  0.45943200  0.31285100  1
  C  C77  1  0.74723300  0.46751100  0.25248600  1
  C  C78  1  0.73223000  0.52849000  0.25214900  1
  C  C79  1  0.68707400  0.50181100  0.43890700  1
  C  C80  1  0.68798300  0.49794900  0.49945300  1
  C  C81  1  0.75219400  0.49612400  0.55860400  1
  C  C82  1  0.81217000  0.49413800  0.55269600  1
  C  C83  1  0.81109700  0.49788100  0.49205500  1
  C  C84  1  0.74860500  0.50399300  0.43610200  1
  C  C85  1  0.81568800  0.55181800  0.70951700  1
  C  C86  1  0.82423800  0.55225300  0.77549300  1
  C  C87  1  0.77721300  0.49681500  0.76030200  1
  C  C88  1  0.72185700  0.44071500  0.67905100  1
  C  C89  1  0.71334000  0.44027800  0.61310300  1
  C  C90  1  0.75959900  0.49630300  0.62801100  1
  C  C91  1  0.26515800  0.76397100  0.65950000  1
  C  C92  1  0.26210300  0.69473000  0.60405700  1
  C  C93  1  0.25015900  0.63649000  0.60981100  1
  C  C94  1  0.24345400  0.64850200  0.67309100  1
  C  C95  1  0.24695500  0.71783300  0.72893300  1
  C  C96  1  0.25736000  0.77580500  0.72210600  1
  C  C97  1  0.31010700  0.55856800  0.54826300  1
  C  C98  1  0.31266200  0.49148200  0.49549600  1
  C  C99  1  0.25311000  0.42794600  0.44584200  1
  C  C100  1  0.19241300  0.43278900  0.45038200  1
  C  C101  1  0.18950600  0.50002500  0.50246800  1
  C  C102  1  0.24887400  0.56367500  0.55166900  1
  C  C103  1  0.19771400  0.31258600  0.30635000  1
  C  C104  1  0.19576700  0.24236500  0.25449800  1
  C  C105  1  0.24875200  0.21343100  0.28724400  1
  C  C106  1  0.30366700  0.25472900  0.37186700  1
  C  C107  1  0.30629500  0.32536800  0.42367200  1
  C  C108  1  0.25350300  0.35470500  0.39089500  1
  C  C109  1  0.38749100  0.22663000  0.69103500  1
  C  C110  1  0.35925500  0.63010300  0.40153100  1
  C  C111  1  0.26052600  0.84947700  0.78123700  1
  O  O1  1  0.44941800  0.09010100  0.50259400  1
  O  O2  1  0.54992900  0.08394100  0.49288900  1
  O  O3  1  0.50911500  0.05786700  0.62444300  1
  O  O4  1  0.61210600  0.05709500  0.61932300  1
  O  O5  1  0.44259700  0.90677300  0.49988900  1
  O  O6  1  0.54424200  0.90169200  0.49244600  1
  O  O7  1  0.38096900  0.93489800  0.37452000  1
  O  O8  1  0.48399800  0.93269200  0.36944300  1
  O  O9  1  0.90581300  0.54827500  0.48872200  1
  O  O10  1  0.90819900  0.44713100  0.49700900  1
  O  O11  1  0.94203400  0.48799300  0.37008300  1
  O  O12  1  0.93881800  0.38433900  0.37357100  1
  O  O13  1  0.09257900  0.55259100  0.49775300  1
  O  O14  1  0.09351400  0.44997000  0.50328900  1
  O  O15  1  0.06040400  0.61461600  0.61990000  1
  O  O16  1  0.05896600  0.51090200  0.62337900  1
  O  O17  1  0.62874700  0.53591900  0.57231900  1
  O  O18  1  0.55648200  0.46197900  0.42774600  1
  O  O19  1  0.53710300  0.43784500  0.56463100  1
  O  O20  1  0.46275400  0.36620500  0.42021500  1
  O  O21  1  0.44348500  0.52910000  0.56606700  1
  O  O22  1  0.37109200  0.45395000  0.42147000  1
  O  O23  1  0.53747200  0.62421800  0.57335900  1
  O  O24  1  0.46210100  0.55243800  0.42894700  1
  O  O25  1  0.39186000  0.23333800  0.75096200  1
  O  O26  1  0.31806300  0.20139300  0.61801700  1
  O  O27  1  0.31583800  0.60188700  0.32656500  1
  O  O28  1  0.34212000  0.60645000  0.44076400  1
  O  O29  1  0.27048200  0.90081900  0.77576500  1
  O  O30  1  0.25196900  0.86115400  0.84373700  1
