# generated using pymatgen
data_ZnH28C43(NO3)2
_symmetry_space_group_name_H-M   'P 1'
_cell_length_a   15.95222500
_cell_length_b   14.84771100
_cell_length_c   27.61080700
_cell_angle_alpha   90.00000000
_cell_angle_beta   89.99532200
_cell_angle_gamma   90.00000000
_symmetry_Int_Tables_number   1
_chemical_formula_structural   ZnH28C43(NO3)2
_chemical_formula_sum   'Zn2 H56 C86 N4 O12'
_cell_volume   6539.73079402
_cell_formula_units_Z   2
loop_
 _symmetry_equiv_pos_site_id
 _symmetry_equiv_pos_as_xyz
  1  'x, y, z'
loop_
 _atom_site_type_symbol
 _atom_site_label
 _atom_site_symmetry_multiplicity
 _atom_site_fract_x
 _atom_site_fract_y
 _atom_site_fract_z
 _atom_site_occupancy
  Zn  Zn1  1  0.50254900  0.60392300  0.50230400  1
  Zn  Zn2  1  0.50091000  0.39886100  0.50102500  1
  H  H1  1  0.47873600  0.36345500  0.34679400  1
  H  H2  1  0.47800000  0.36541000  0.25846700  1
  H  H3  1  0.29557800  0.47252500  0.12172400  1
  H  H4  1  0.46347600  0.63657200  0.65586100  1
  H  H5  1  0.46371800  0.63585800  0.74411600  1
  H  H6  1  0.29533200  0.51495800  0.88069900  1
  H  H7  1  0.29203100  0.51585700  0.96572100  1
  H  H8  1  0.29337400  0.47167200  0.03668300  1
  H  H9  1  0.52304800  0.64760400  0.34804000  1
  H  H10  1  0.52314800  0.64822500  0.25972500  1
  H  H11  1  0.70705500  0.54000100  0.12226000  1
  H  H12  1  0.71282500  0.48960700  0.96687600  1
  H  H13  1  0.54426400  0.36174600  0.65556900  1
  H  H14  1  0.71071400  0.48634900  0.88183100  1
  H  H15  1  0.54433600  0.36218800  0.74402000  1
  H  H16  1  0.71045200  0.53719200  0.03721700  1
  H  H17  1  0.92645000  0.59005000  0.56309200  1
  H  H18  1  0.93526700  0.42290400  0.56716700  1
  H  H19  1  0.06732200  0.57874700  0.56784300  1
  H  H20  1  0.07619400  0.41169200  0.56293400  1
  H  H21  1  0.07004300  0.35766700  0.50441400  1
  H  H22  1  0.07404900  0.64608500  0.51347600  1
  H  H23  1  0.92922500  0.35655000  0.51242700  1
  H  H24  1  0.93333000  0.64512000  0.50488200  1
  H  H25  1  0.06819500  0.57038600  0.43316300  1
  H  H26  1  0.07667200  0.44928900  0.42903900  1
  H  H27  1  0.92760600  0.55486200  0.42901400  1
  H  H28  1  0.93603900  0.43369300  0.43253900  1
  H  H29  1  0.36398400  0.93216000  0.49610300  1
  H  H30  1  0.36355900  0.07219400  0.49280400  1
  H  H31  1  0.55328700  0.07837000  0.56690200  1
  H  H32  1  0.56295600  0.93974100  0.56698900  1
  H  H33  1  0.58368800  0.06995900  0.43809300  1
  H  H34  1  0.58677900  0.91909200  0.44301600  1
  H  H35  1  0.63005300  0.07790800  0.49641700  1
  H  H36  1  0.63258000  0.92784200  0.50044200  1
  H  H37  1  0.31980300  0.01996700  0.56241100  1
  H  H38  1  0.22194800  0.09508600  0.61554200  1
  H  H39  1  0.26914700  0.21646700  0.66946000  1
  H  H40  1  0.41677300  0.26240000  0.66924500  1
  H  H41  1  0.51685200  0.19031600  0.61526600  1
  H  H42  1  0.52416400  0.97011900  0.64827400  1
  H  H43  1  0.45198400  0.90042600  0.71651500  1
  H  H44  1  0.33432400  0.79685300  0.70251500  1
  H  H45  1  0.28964800  0.76305100  0.61939700  1
  H  H46  1  0.35927800  0.83015200  0.55128100  1
  H  H47  1  0.26969600  0.03236800  0.42967300  1
  H  H48  1  0.21931700  0.08572600  0.35147700  1
  H  H49  1  0.31198400  0.17323600  0.29817000  1
  H  H50  1  0.45454800  0.21004500  0.32478200  1
  H  H51  1  0.50470700  0.16352200  0.40278700  1
  H  H52  1  0.30547800  0.81863700  0.45675900  1
  H  H53  1  0.28203000  0.73142300  0.38350600  1
  H  H54  1  0.36845200  0.75712400  0.31115600  1
  H  H55  1  0.47851000  0.87278000  0.31249300  1
  H  H56  1  0.50251800  0.96213000  0.38456200  1
  C  C1  1  0.33786300  0.50326900  0.50217200  1
  C  C2  1  0.50122900  0.50390700  0.40683500  1
  C  C3  1  0.66553200  0.49952100  0.50136000  1
  C  C4  1  0.50268600  0.49913200  0.59643300  1
  C  C5  1  0.42854800  0.49515800  0.17771800  1
  C  C6  1  0.57335800  0.51912100  0.17792200  1
  C  C7  1  0.51341500  0.58566200  0.27894400  1
  C  C8  1  0.51300100  0.58506400  0.32889000  1
  C  C9  1  0.48856400  0.42639000  0.32813200  1
  C  C10  1  0.48782000  0.42737000  0.27823000  1
  C  C11  1  0.50061700  0.50688100  0.25353300  1
  C  C12  1  0.50145000  0.50590300  0.10224700  1
  C  C13  1  0.42787000  0.49506900  0.12761700  1
  C  C14  1  0.35405700  0.48311200  0.10283300  1
  C  C15  1  0.57468000  0.51771200  0.12782300  1
  C  C16  1  0.50092200  0.50520400  0.35375100  1
  C  C17  1  0.50325500  0.49885600  0.64947400  1
  C  C18  1  0.42685000  0.50253200  0.97616600  1
  C  C19  1  0.57786400  0.50334300  0.97650900  1
  C  C20  1  0.50253400  0.50229700  0.95137000  1
  C  C21  1  0.35291500  0.50865600  0.94951400  1
  C  C22  1  0.35422000  0.50993600  0.89982300  1
  C  C23  1  0.42902500  0.50484200  0.87534100  1
  C  C24  1  0.50288600  0.50105200  0.90100400  1
  C  C25  1  0.57709800  0.49609100  0.87572200  1
  C  C26  1  0.57651600  0.49438500  0.82561800  1
  C  C27  1  0.43029400  0.50451100  0.82524700  1
  C  C28  1  0.48122400  0.57556300  0.72463300  1
  C  C29  1  0.48158200  0.57584300  0.67472900  1
  C  C30  1  0.52588800  0.42216000  0.67462300  1
  C  C31  1  0.52662300  0.42243600  0.72456800  1
  C  C32  1  0.50385000  0.49896600  0.74967400  1
  C  C33  1  0.42673700  0.49752700  0.02678300  1
  C  C34  1  0.50181000  0.50478700  0.05188100  1
  C  C35  1  0.57724500  0.51084600  0.02704400  1
  C  C36  1  0.35325000  0.48446900  0.05313700  1
  C  C37  1  0.64883400  0.52867600  0.10323100  1
  C  C38  1  0.65217000  0.49593000  0.95028500  1
  C  C39  1  0.65156000  0.49221100  0.90061600  1
  C  C40  1  0.65034400  0.52516000  0.05356400  1
  C  C41  1  0.04803700  0.58342400  0.52934000  1
  C  C42  1  0.04978900  0.41690800  0.52589000  1
  C  C43  1  0.95503200  0.41892300  0.52872100  1
  C  C44  1  0.95331600  0.58549500  0.52613200  1
  C  C45  1  0.75546500  0.49908300  0.50129900  1
  C  C46  1  0.08075200  0.50241500  0.50183000  1
  C  C47  1  0.92264500  0.50042300  0.50150400  1
  C  C48  1  0.95469200  0.49803600  0.44985000  1
  C  C49  1  0.04932900  0.50573600  0.45006300  1
  C  C50  1  0.83098300  0.49941600  0.50134700  1
  C  C51  1  0.17241400  0.50341000  0.50201400  1
  C  C52  1  0.24793200  0.50372300  0.50212600  1
  C  C53  1  0.41759800  0.05098200  0.47113700  1
  C  C54  1  0.41938100  0.94783600  0.47403400  1
  C  C55  1  0.49265600  0.05562500  0.55174300  1
  C  C56  1  0.49824400  0.95259400  0.55432400  1
  C  C57  1  0.49435200  0.08753500  0.49844900  1
  C  C58  1  0.49675700  0.91488200  0.50251300  1
  C  C59  1  0.57706300  0.94895700  0.47912800  1
  C  C60  1  0.57545700  0.05080600  0.47628800  1
  C  C61  1  0.50045700  0.81638700  0.50251000  1
  C  C62  1  0.49597600  0.18633000  0.49848600  1
  C  C63  1  0.42670900  0.10018400  0.58343900  1
  C  C64  1  0.34285600  0.07437900  0.58448400  1
  C  C65  1  0.28678600  0.11620000  0.61507700  1
  C  C66  1  0.31315600  0.18396900  0.64536100  1
  C  C67  1  0.39592900  0.20968300  0.64515000  1
  C  C68  1  0.45230800  0.16822400  0.61454700  1
  C  C69  1  0.44725000  0.90816800  0.59408700  1
  C  C70  1  0.47224800  0.92515300  0.64129200  1
  C  C71  1  0.43174400  0.88590100  0.67998300  1
  C  C72  1  0.36592400  0.82796800  0.67219300  1
  C  C73  1  0.34093600  0.80919600  0.62560900  1
  C  C74  1  0.38120000  0.84836500  0.58674100  1
  C  C75  1  0.39273100  0.08873500  0.42210300  1
  C  C76  1  0.31137700  0.07134700  0.40699500  1
  C  C77  1  0.28253000  0.10127200  0.36282100  1
  C  C78  1  0.33424700  0.15024000  0.33301500  1
  C  C79  1  0.41410200  0.17093100  0.34805200  1
  C  C80  1  0.44288100  0.14235400  0.39259300  1
  C  C81  1  0.40674800  0.89678600  0.42705900  1
  C  C82  1  0.34411800  0.83204900  0.42542600  1
  C  C83  1  0.33066100  0.78210600  0.38406500  1
  C  C84  1  0.37906000  0.79635800  0.34356100  1
  C  C85  1  0.44086400  0.86092800  0.34441200  1
  C  C86  1  0.45482500  0.91079700  0.38574800  1
  N  N1  1  0.50079900  0.50744800  0.20195900  1
  N  N2  1  0.50356300  0.49899900  0.80127000  1
  N  N3  1  0.50252900  0.73852900  0.50235200  1
  N  N4  1  0.49786000  0.26428800  0.49896200  1
  O  O1  1  0.37731600  0.58077900  0.50217500  1
  O  O2  1  0.37624500  0.42518400  0.50158600  1
  O  O3  1  0.50182600  0.58112300  0.42993700  1
  O  O4  1  0.50039900  0.42563900  0.42902800  1
  O  O5  1  0.62715500  0.57761900  0.50181800  1
  O  O6  1  0.62608000  0.42200900  0.50066700  1
  O  O7  1  0.50232000  0.57719600  0.57423300  1
  O  O8  1  0.50203200  0.42174000  0.57338300  1
  O  O9  1  0.35680100  0.48436600  0.20255000  1
  O  O10  1  0.35817400  0.50803500  0.80017400  1
  O  O11  1  0.64483800  0.53025200  0.20296000  1
  O  O12  1  0.64897800  0.49012900  0.80090400  1
