# generated using pymatgen
data_Fe2H19C48(NO4)5
_symmetry_space_group_name_H-M   'P 1'
_cell_length_a   15.83435400
_cell_length_b   9.39691300
_cell_length_c   24.24249800
_cell_angle_alpha   94.71761400
_cell_angle_beta   101.91276400
_cell_angle_gamma   100.22804700
_symmetry_Int_Tables_number   1
_chemical_formula_structural   Fe2H19C48(NO4)5
_chemical_formula_sum   'Fe2 H19 C48 N5 O20'
_cell_volume   3446.78477180
_cell_formula_units_Z   1
loop_
 _symmetry_equiv_pos_site_id
 _symmetry_equiv_pos_as_xyz
  1  'x, y, z'
loop_
 _atom_site_type_symbol
 _atom_site_label
 _atom_site_symmetry_multiplicity
 _atom_site_fract_x
 _atom_site_fract_y
 _atom_site_fract_z
 _atom_site_occupancy
  Fe  Fe1  1  0.49056000  0.99134700  0.87575200  1
  Fe  Fe2  1  0.51208700  0.01164600  0.12645200  1
  H  H1  1  0.06666000  0.96091300  0.89247200  1
  H  H2  1  0.81292100  0.96088100  0.93392100  1
  H  H3  1  0.79136400  0.03114100  0.13309900  1
  H  H4  1  0.93481500  0.03799700  0.10942500  1
  H  H5  1  0.68460500  0.35728100  0.47245300  1
  H  H6  1  0.67599900  0.34367900  0.57024800  1
  H  H7  1  0.32145600  0.64608300  0.52697400  1
  H  H8  1  0.32979700  0.65900300  0.42907000  1
  H  H9  1  0.49484500  0.70174400  0.71640700  1
  H  H10  1  0.47419000  0.24141500  0.68860500  1
  H  H11  1  0.51457700  0.30444900  0.28330200  1
  H  H12  1  0.52905600  0.76244500  0.31062100  1
  H  H13  1  0.48856800  0.44657700  0.85405200  1
  H  H14  1  0.17217200  0.86608100  0.83553400  1
  H  H15  1  0.18255000  0.04820700  0.83502000  1
  H  H16  1  0.47473300  0.58683500  0.11007200  1
  H  H17  1  0.58697900  0.64605200  0.13231000  1
  H  H18  1  0.15738900  0.12981500  0.08852700  1
  H  H19  1  0.14570900  0.94601500  0.08872200  1
  C  C1  1  0.20637700  0.98324700  0.91248900  1
  C  C2  1  0.12582900  0.97933300  0.92585200  1
  C  C3  1  0.12031000  0.00124500  0.98153400  1
  C  C4  1  0.19539200  0.02509500  0.02459100  1
  C  C5  1  0.27793500  0.02988900  0.01190400  1
  C  C6  1  0.28278600  0.00958800  0.95491200  1
  C  C7  1  0.03562700  0.99878100  0.99459100  1
  C  C8  1  0.96508200  0.99757700  0.00615400  1
  C  C9  1  0.80623300  0.97431500  0.97739700  1
  C  C10  1  0.72464000  0.97308200  0.98993400  1
  C  C11  1  0.71903600  0.99078400  0.04661200  1
  C  C12  1  0.79510700  0.01705800  0.08902300  1
  C  C13  1  0.87585900  0.01963300  0.07589100  1
  C  C14  1  0.88120600  0.99640300  0.02009000  1
  C  C15  1  0.47519800  0.18850700  0.79552000  1
  C  C16  1  0.36704100  0.02428400  0.93753700  1
  C  C17  1  0.64824000  0.96302100  0.94241700  1
  C  C18  1  0.49144800  0.71949300  0.82783000  1
  C  C19  1  0.52317700  0.28601300  0.17373700  1
  C  C20  1  0.35708000  0.04737100  0.05887700  1
  C  C21  1  0.63485000  0.97624100  0.06381600  1
  C  C22  1  0.53124200  0.81672200  0.20529200  1
  C  C23  1  0.45034100  0.56997200  0.38000300  1
  C  C24  1  0.57535800  0.46426600  0.39527600  1
  C  C25  1  0.57103900  0.45510600  0.45133800  1
  C  C26  1  0.50535300  0.50521800  0.47171800  1
  C  C27  1  0.44459100  0.56304800  0.43592100  1
  C  C28  1  0.63229500  0.39727900  0.48726700  1
  C  C29  1  0.62738800  0.38955600  0.54307600  1
  C  C30  1  0.56123900  0.43972000  0.56339100  1
  C  C31  1  0.50049600  0.49766500  0.52762900  1
  C  C32  1  0.43496500  0.54815000  0.54807600  1
  C  C33  1  0.37367400  0.60587400  0.51212200  1
  C  C34  1  0.37842900  0.61318300  0.45624900  1
  C  C35  1  0.55558800  0.43291400  0.61930600  1
  C  C36  1  0.43100200  0.53972200  0.60425600  1
  C  C37  1  0.49014400  0.59754800  0.73260900  1
  C  C38  1  0.49018800  0.58908100  0.78930300  1
  C  C39  1  0.48820100  0.45532200  0.80985000  1
  C  C40  1  0.48161200  0.33018400  0.77367300  1
  C  C41  1  0.47929700  0.33912500  0.71695700  1
  C  C42  1  0.48607200  0.47294800  0.69661000  1
  C  C43  1  0.51971100  0.40872200  0.26716700  1
  C  C44  1  0.52382200  0.41826000  0.21104900  1
  C  C45  1  0.52712000  0.55231300  0.19052400  1
  C  C46  1  0.52794000  0.67535300  0.22651300  1
  C  C47  1  0.52693400  0.66538900  0.28271700  1
  C  C48  1  0.52116300  0.53190300  0.30301400  1
  N  N1  1  0.51538600  0.52129800  0.36059800  1
  N  N2  1  0.49089700  0.48234400  0.63883000  1
  N  N3  1  0.21073300  0.96717000  0.85428000  1
  N  N4  1  0.53321500  0.56443400  0.13308600  1
  N  N5  1  0.18645100  0.04024900  0.08202900  1
  O  O1  1  0.52148800  0.17945700  0.84631600  1
  O  O2  1  0.42938100  0.13959400  0.95788200  1
  O  O3  1  0.42043300  0.07363100  0.76567600  1
  O  O4  1  0.37659400  0.93049400  0.89705500  1
  O  O5  1  0.57538900  0.00079600  0.95053000  1
  O  O6  1  0.65628600  0.93152800  0.89026600  1
  O  O7  1  0.49268500  0.84845400  0.81001800  1
  O  O8  1  0.48939800  0.70691400  0.88107200  1
  O  O9  1  0.51095400  0.15761200  0.19143900  1
  O  O10  1  0.53304900  0.29294700  0.12155200  1
  O  O11  1  0.42802700  0.00161800  0.05121400  1
  O  O12  1  0.35462300  0.09701400  0.11053500  1
  O  O13  1  0.59154700  0.92950700  0.23167400  1
  O  O14  1  0.62690700  0.06722100  0.10563000  1
  O  O15  1  0.47837300  0.82626400  0.15699300  1
  O  O16  1  0.57145800  0.86308100  0.04238500  1
  O  O17  1  0.38974200  0.62254400  0.34440800  1
  O  O18  1  0.64088200  0.41974300  0.37556400  1
  O  O19  1  0.61604800  0.37992500  0.65484300  1
  O  O20  1  0.36606900  0.58556600  0.62422900  1
