# Generated by REPEAT Assigner based on pymatgen
data_DB0-m2_o7_o18_f0_pcu.sym.44
_audit_creation_date              2022-05-24
_audit_creation_method            REPEAT_Assigner
_cell_length_a                    15.771509
_cell_length_b                    16.258086
_cell_length_c                    17.640367
_cell_angle_alpha                 89.975500
_cell_angle_beta                  89.996742
_cell_angle_gamma                 71.622919
_cell_volume                      4292.570715
_symmetry_space_group_name_H-M    P1
_symmetry_Int_Tables_number       1
loop_
    _symmetry_equiv_pos_site_id
    _symmetry_equiv_pos_as_xyz
    1  x,y,z
loop_
    _atom_site_type_symbol
    _atom_site_label
    _atom_site_fract_x
    _atom_site_fract_y
    _atom_site_fract_z
    _atom_type_partial_charge
    O   O1   0.493475  0.421454  0.605934  -0.605662
    O   O2   0.501132  0.574034  0.392123  -0.577258
    O   O3   0.488098  0.564175  0.611807  -0.547081
    O   O4   0.507414  0.430958  0.386329  -0.556934
    C   C1   0.488293  0.491900  0.644343  0.657616
    C   C2   0.506706  0.503371  0.353747  0.636437
    O   O5   0.626794  0.385036  0.504245  -0.588861
    O   O6   0.368386  0.609964  0.494499  -0.600543
    O   O7   0.627637  0.526150  0.504573  -0.548760
    O   O8   0.367500  0.468948  0.493299  -0.577089
    C   C3   0.669113  0.442833  0.506149  0.665987
    C   C4   0.325951  0.552353  0.492931  0.688723
    Cu  Cu1  0.496999  0.415542  0.495270  0.891106
    Cu  Cu2  0.498194  0.579614  0.502813  0.840987
    C   C5   0.766639  0.415045  0.513494  -0.101693
    C   C6   0.227910  0.581325  0.493174  -0.079608
    C   C7   0.904422  0.308637  0.544000  -0.270153
    C   C8   0.088400  0.692896  0.483703  -0.264715
    C   C9   0.813712  0.331158  0.532978  -0.055258
    C   C10  0.180145  0.667607  0.484339  -0.065353
    C   C11  0.811040  0.475497  0.504042  -0.095043
    C   C12  0.183146  0.521277  0.503497  -0.184132
    C   C13  0.902576  0.454301  0.516942  -0.042241
    C   C14  0.090129  0.546404  0.505744  0.070327
    C   C15  0.948313  0.369533  0.536391  0.293789
    C   C16  0.043879  0.632864  0.493496  0.261121
    C   C17  0.949480  0.514886  0.510418  0.097533
    C   C18  0.042387  0.487502  0.518187  -0.040365
    C   C19  0.085116  0.402321  0.540410  -0.056706
    C   C20  0.905649  0.602729  0.498234  -0.156732
    C   C21  0.038452  0.344756  0.549483  -0.293087
    C   C22  0.952413  0.660494  0.491111  -0.270583
    H   H1   0.073844  0.279029  0.566583  0.128929
    H   H2   0.916209  0.728303  0.482371  0.133157
    H   H3   0.223142  0.454669  0.508060  0.131713
    H   H4   0.772057  0.538454  0.484537  0.087715
    H   H5   0.213609  0.715638  0.476372  0.103443
    H   H6   0.780278  0.283095  0.540906  0.103229
    H   H7   0.941114  0.242731  0.559665  0.135229
    H   H8   0.051250  0.760508  0.475143  0.136346
    H   H9   0.154894  0.377732  0.554246  0.100910
    H   H10  0.834301  0.630886  0.496295  0.139359
    C   C23  0.533428  0.425214  0.153987  -0.235372
    C   C24  0.459371  0.569745  0.844053  -0.197239
    H   H11  0.552100  0.364085  0.124096  0.142663
    H   H12  0.438336  0.630892  0.873923  0.134583
    C   C25  0.535648  0.426314  0.231908  -0.046281
    C   C26  0.456571  0.568472  0.766158  -0.082114
    H   H13  0.557461  0.365272  0.261788  0.096305
    H   H14  0.431659  0.629106  0.736135  0.113688
    C   C27  0.510421  0.504181  0.270751  -0.069363
    C   C28  0.484784  0.490778  0.727305  -0.060663
    C   C29  0.485517  0.581144  0.230567  -0.070221
    C   C30  0.513028  0.413848  0.767405  -0.087058
    H   H15  0.465278  0.642684  0.259810  0.109457
    H   H16  0.535620  0.352416  0.738079  0.111456
    C   C31  0.483163  0.579766  0.152264  -0.227706
    C   C32  0.515878  0.415312  0.845691  -0.209395
    H   H17  0.461869  0.639925  0.120881  0.141775
    H   H18  0.539782  0.355263  0.877029  0.136306
    C   C33  0.506202  0.501719  0.114104  0.318664
    C   C34  0.490034  0.493385  0.883883  0.291299
    C   C35  0.500645  0.499205  0.033004  -0.181235
    C   C36  0.495834  0.496058  0.964960  -0.164409
    C   C37  0.465636  0.172420  0.431172  -0.420991
    C   C38  0.564394  0.811906  0.541218  -0.403025
    H   H19  0.438531  0.143656  0.385879  0.174754
    H   H20  0.613275  0.833050  0.571651  0.166266
    C   C39  0.456439  0.260012  0.432141  0.435425
    C   C40  0.561014  0.728529  0.549492  0.415295
    N   N1   0.494773  0.293148  0.489014  -0.242127
    N   N2   0.500257  0.702023  0.509343  -0.223581
    C   C41  0.542074  0.239391  0.543407  0.029333
    C   C42  0.443761  0.758490  0.461616  0.033876
    H   H21  0.575537  0.263857  0.587155  0.159609
    H   H22  0.397402  0.737785  0.427485  0.153903
    C   C43  0.547389  0.153033  0.545454  -0.304608
    C   C44  0.443887  0.843151  0.455152  -0.295552
    H   H23  0.582749  0.111863  0.590985  0.144598
    H   H24  0.396972  0.887758  0.417823  0.143051
    C   C45  0.508203  0.119553  0.489034  0.395084
    C   C46  0.504966  0.869923  0.495328  0.362821
    C   C47  0.508629  0.031127  0.490485  -0.176409
    C   C48  0.506793  0.957569  0.491659  -0.142990
    C   C49  0.405050  0.314645  0.368336  -0.471425
    C   C50  0.327144  0.287206  0.344579  0.295706
    C   C51  0.320921  0.261056  0.270800  -0.232432
    C   C52  0.248819  0.236104  0.248743  -0.076612
    C   C53  0.182701  0.237273  0.300165  -0.134712
    C   C54  0.188562  0.263609  0.373661  -0.125035
    C   C55  0.260452  0.288888  0.395808  -0.181187
    H   H25  0.450569  0.308569  0.319465  0.163935
    H   H26  0.377883  0.383074  0.384546  0.156945
    H   H27  0.372319  0.259750  0.229860  0.107749
    H   H28  0.244199  0.215519  0.191063  0.102084
    H   H29  0.126285  0.217510  0.282872  0.102580
    H   H30  0.136809  0.264168  0.413923  0.121313
    H   H31  0.264997  0.308951  0.453580  0.120522
    C   C56  0.625826  0.671933  0.604696  -0.414507
    C   C57  0.620695  0.717054  0.679054  0.260568
    C   C58  0.696819  0.726977  0.711118  -0.211568
    C   C59  0.692064  0.767910  0.780159  -0.084378
    C   C60  0.611421  0.798955  0.817396  -0.151599
    C   C61  0.535385  0.789288  0.785481  -0.112338
    C   C62  0.539969  0.748511  0.716413  -0.135754
    H   H32  0.694171  0.657103  0.581282  0.139279
    H   H33  0.613044  0.610733  0.615840  0.145151
    H   H34  0.760546  0.702670  0.682639  0.099213
    H   H35  0.751701  0.775534  0.805172  0.104857
    H   H36  0.607793  0.830979  0.871543  0.111446
    H   H37  0.472064  0.813822  0.814548  0.106304
    H   H38  0.479873  0.742086  0.691447  0.098224
