# generated using pymatgen
data_CuH29C27NO4
_symmetry_space_group_name_H-M   'P 1'
_cell_length_a   15.93013000
_cell_length_b   13.10414400
_cell_length_c   11.51937300
_cell_angle_alpha   99.81743300
_cell_angle_beta   94.25063200
_cell_angle_gamma   89.99627000
_symmetry_Int_Tables_number   1
_chemical_formula_structural   CuH29C27NO4
_chemical_formula_sum   'Cu2 H58 C54 N2 O8'
_cell_volume   2362.75248518
_cell_formula_units_Z   2
loop_
 _symmetry_equiv_pos_site_id
 _symmetry_equiv_pos_as_xyz
  1  'x, y, z'
loop_
 _atom_site_type_symbol
 _atom_site_label
 _atom_site_symmetry_multiplicity
 _atom_site_fract_x
 _atom_site_fract_y
 _atom_site_fract_z
 _atom_site_occupancy
  Cu  Cu1  1  0.50802300  0.51251000  0.62215200  1
  Cu  Cu2  1  0.49810100  0.49260800  0.38661300  1
  H  H1  1  0.95884000  0.35953100  0.59886000  1
  H  H2  1  0.04786800  0.64382400  0.41000000  1
  H  H3  1  0.34817900  0.99786400  0.38251000  1
  H  H4  1  0.65323900  0.00798600  0.63542500  1
  H  H5  1  0.41830800  0.42113900  0.79188600  1
  H  H6  1  0.58800400  0.58369900  0.21635800  1
  H  H7  1  0.61959900  0.62818700  0.81898100  1
  H  H8  1  0.38760600  0.37845300  0.19341000  1
  H  H9  1  0.95556000  0.22006900  0.41674800  1
  H  H10  1  0.94824100  0.25784200  0.27225500  1
  H  H11  1  0.01946300  0.15758700  0.30310500  1
  H  H12  1  0.09512900  0.32522400  0.30550600  1
  H  H13  1  0.10615300  0.28049300  0.44505000  1
  H  H14  1  0.05351400  0.74400000  0.75260600  1
  H  H15  1  0.06471300  0.77176800  0.60564800  1
  H  H16  1  0.99407700  0.84631500  0.70137200  1
  H  H17  1  0.90887400  0.72798200  0.55970300  1
  H  H18  1  0.90932600  0.68118500  0.69837600  1
  H  H19  1  0.02720500  0.54608000  0.19952900  1
  H  H20  1  0.01668000  0.40621900  0.16747500  1
  H  H21  1  0.94552300  0.48511900  0.09362600  1
  H  H22  1  0.87985400  0.41442800  0.25563900  1
  H  H23  1  0.88247200  0.55358800  0.27539800  1
  H  H24  1  0.98593100  0.59414000  0.83669300  1
  H  H25  1  0.98125600  0.45397600  0.81061900  1
  H  H26  1  0.05982200  0.52243900  0.91618800  1
  H  H27  1  0.12413000  0.44974300  0.73437200  1
  H  H28  1  0.12649200  0.58879100  0.75414400  1
  H  H29  1  0.37185400  0.85661800  0.24599400  1
  H  H30  1  0.43236600  0.74378800  0.26356100  1
  H  H31  1  0.31883900  0.73661100  0.25253700  1
  H  H32  1  0.36391000  0.74153600  0.45606900  1
  H  H33  1  0.31729700  0.85944800  0.44655900  1
  H  H34  1  0.71145400  0.06498200  0.47521100  1
  H  H35  1  0.68163400  0.16962200  0.39797100  1
  H  H36  1  0.76263500  0.18969600  0.51803400  1
  H  H37  1  0.63515600  0.27090000  0.57971700  1
  H  H38  1  0.65649200  0.17320200  0.66215900  1
  H  H39  1  0.68242200  0.72068600  0.47999800  1
  H  H40  1  0.74983700  0.83367400  0.52418500  1
  H  H41  1  0.76410000  0.72287600  0.59784500  1
  H  H42  1  0.69354800  0.87192700  0.71511600  1
  H  H43  1  0.63556000  0.75493800  0.69393100  1
  H  H44  1  0.27993800  0.08352900  0.24717800  1
  H  H45  1  0.23637800  0.11265000  0.39180900  1
  H  H46  1  0.22262200  0.20021400  0.28772400  1
  H  H47  1  0.32920900  0.26814600  0.44194800  1
  H  H48  1  0.37253500  0.23566200  0.29983100  1
  H  H49  1  0.32433400  0.23868800  0.06643800  1
  H  H50  1  0.25780300  0.35334900  0.08612100  1
  H  H51  1  0.23927600  0.25322000  0.95947300  1
  H  H52  1  0.30699700  0.40056700  0.90361500  1
  H  H53  1  0.37485900  0.28913000  0.88712700  1
  H  H54  1  0.71882100  0.54031400  0.13360800  1
  H  H55  1  0.75631800  0.55426000  0.99285700  1
  H  H56  1  0.78483900  0.64970000  0.12251300  1
  H  H57  1  0.67679700  0.71480600  0.99249500  1
  H  H58  1  0.63627400  0.70749700  0.13011900  1
  C  C1  1  0.49569200  0.30405600  0.48690100  1
  C  C2  1  0.51026700  0.70122900  0.52192300  1
  C  C3  1  0.34188100  0.50852800  0.50182500  1
  C  C4  1  0.66438800  0.49611100  0.50689100  1
  C  C5  1  0.98016200  0.42357700  0.55601000  1
  C  C6  1  0.02682100  0.57963900  0.45285300  1
  C  C7  1  0.02691900  0.41320800  0.44421700  1
  C  C8  1  0.98019500  0.59009600  0.56469500  1
  C  C9  1  0.25171400  0.50701800  0.50024500  1
  C  C10  1  0.75478800  0.49689000  0.50843400  1
  C  C11  1  0.03827600  0.51326800  0.61297900  1
  C  C12  1  0.96873500  0.49000000  0.39591200  1
  C  C13  1  0.08433500  0.50210200  0.50175800  1
  C  C14  1  0.92255000  0.50128900  0.50716000  1
  C  C15  1  0.17609700  0.50461600  0.50015400  1
  C  C16  1  0.83057000  0.49893900  0.50858300  1
  C  C17  1  0.51618000  0.81524000  0.53087000  1
  C  C18  1  0.48831700  0.19045000  0.47854400  1
  C  C19  1  0.40466700  0.03508600  0.42464100  1
  C  C20  1  0.59658900  0.97251300  0.58978700  1
  C  C21  1  0.41472700  0.14051800  0.42607900  1
  C  C22  1  0.58659400  0.86830800  0.58977200  1
  C  C23  1  0.55164400  0.13408400  0.52864300  1
  C  C24  1  0.45389400  0.87032500  0.47617800  1
  C  C25  1  0.53811600  0.02829900  0.53168500  1
  C  C26  1  0.46522300  0.97764400  0.47742100  1
  C  C27  1  0.41712700  0.41446700  0.02487600  1
  C  C28  1  0.58792500  0.59088300  0.98355900  1
  C  C29  1  0.42811600  0.41987500  0.14653300  1
  C  C30  1  0.57741000  0.58567700  0.86279800  1
  C  C31  1  0.54146600  0.53586500  0.15972400  1
  C  C32  1  0.46460800  0.46915200  0.84901200  1
  C  C33  1  0.53426100  0.53310300  0.03856800  1
  C  C34  1  0.47181900  0.47160000  0.97047000  1
  C  C35  1  0.06117100  0.31165200  0.38209900  1
  C  C36  1  0.99130000  0.23209200  0.34111400  1
  C  C37  1  0.94819700  0.69323900  0.62583900  1
  C  C38  1  0.02008500  0.76811600  0.67425300  1
  C  C39  1  0.92178200  0.48366700  0.27478700  1
  C  C40  1  0.98205500  0.48002000  0.17816200  1
  C  C41  1  0.08467400  0.51949000  0.73447300  1
  C  C42  1  0.02367500  0.52277600  0.83019000  1
  C  C43  1  0.37374000  0.81393800  0.42153800  1
  C  C44  1  0.37441800  0.78644700  0.28764300  1
  C  C45  1  0.63600400  0.18597200  0.57184300  1
  C  C46  1  0.70197300  0.14963900  0.48541600  1
  C  C47  1  0.65757800  0.81529000  0.64706700  1
  C  C48  1  0.71720100  0.77010300  0.55593200  1
  C  C49  1  0.34717800  0.20364800  0.37314000  1
  C  C50  1  0.26671500  0.14513100  0.32219800  1
  C  C51  1  0.34702700  0.34981800  0.95185400  1
  C  C52  1  0.28895200  0.29572300  0.02167800  1
  C  C53  1  0.65741700  0.65972700  0.04891300  1
  C  C54  1  0.73405900  0.59665200  0.07646900  1
  N  N1  1  0.51561500  0.52740400  0.79835900  1
  N  N2  1  0.49048100  0.47771100  0.21036800  1
  O  O1  1  0.49923400  0.36148200  0.59222300  1
  O  O2  1  0.50690000  0.64367200  0.41666600  1
  O  O3  1  0.49673300  0.34399700  0.38992100  1
  O  O4  1  0.50919300  0.66110700  0.61876200  1
  O  O5  1  0.38541100  0.51973500  0.60414300  1
  O  O6  1  0.62072700  0.48519400  0.40460500  1
  O  O7  1  0.37669100  0.49541800  0.40100300  1
  O  O8  1  0.62945500  0.50973600  0.60772000  1
