data_DB0-m3_o12_o29_f0_pcu.sym.7_repeat
_audit_creation_date              2024-02-23
_audit_creation_method            'Materials Studio'
_symmetry_space_group_name_H-M    'P1'
_symmetry_Int_Tables_number       1
_symmetry_cell_setting            triclinic
loop_
_symmetry_equiv_pos_as_xyz
  x,y,z
_cell_length_a                    10.0253
_cell_length_b                    11.4704
_cell_length_c                    27.6535
_cell_angle_alpha                 89.9655
_cell_angle_beta                  80.7630
_cell_angle_gamma                 92.4040
loop_
_atom_site_label
_atom_site_type_symbol
_atom_site_fract_x
_atom_site_fract_y
_atom_site_fract_z
_atom_site_U_iso_or_equiv
_atom_site_adp_type
_atom_site_occupancy
O1     O     0.41763   0.68515   0.51046   0.00000  Uiso   1.00
O2     O     0.57988   0.31632   0.49806   0.00000  Uiso   1.00
O3     O     0.64741   0.66124   0.49536   0.00000  Uiso   1.00
O4     O     0.35018   0.34018   0.51339   0.00000  Uiso   1.00
C1     C     0.54272   0.72787   0.50230   0.00000  Uiso   1.00
C2     C     0.45486   0.27352   0.50628   0.00000  Uiso   1.00
O5     O     0.38958   0.51083   0.58358   0.00000  Uiso   1.00
O6     O     0.60802   0.49090   0.42503   0.00000  Uiso   1.00
O7     O     0.61945   0.48641   0.56843   0.00000  Uiso   1.00
O8     O     0.37805   0.51475   0.44018   0.00000  Uiso   1.00
C3     C     0.50569   0.49809   0.59861   0.00000  Uiso   1.00
C4     C     0.49186   0.50340   0.41001   0.00000  Uiso   1.00
Zn1    Zn    0.34719   0.51671   0.51441   0.00000  Uiso   1.00
Zn2    Zn    0.65036   0.48473   0.49420   0.00000  Uiso   1.00
C5     C     0.47708   0.59635   0.82910   0.00000  Uiso   1.00
C6     C     0.53496   0.40893   0.17875   0.00000  Uiso   1.00
O9     O     0.44798   0.69257   0.80576   0.00000  Uiso   1.00
O10    O     0.57825   0.31738   0.20135   0.00000  Uiso   1.00
N1     N     0.51139   0.49968   0.80320   0.00000  Uiso   1.00
N2     N     0.48627   0.50067   0.20536   0.00000  Uiso   1.00
C7     C     0.54379   0.40334   0.82587   0.00000  Uiso   1.00
C8     C     0.43924   0.59171   0.18336   0.00000  Uiso   1.00
C9     C     0.39188   0.51542   0.73377   0.00000  Uiso   1.00
C10    C     0.60756   0.49565   0.27474   0.00000  Uiso   1.00
C11    C     0.39031   0.51468   0.68404   0.00000  Uiso   1.00
C12    C     0.60901   0.49631   0.32448   0.00000  Uiso   1.00
C13    C     0.62681   0.48088   0.66947   0.00000  Uiso   1.00
C14    C     0.36902   0.51111   0.33926   0.00000  Uiso   1.00
C15    C     0.62792   0.48108   0.71931   0.00000  Uiso   1.00
C16    C     0.36784   0.51023   0.28942   0.00000  Uiso   1.00
C17    C     0.51054   0.49871   0.75164   0.00000  Uiso   1.00
C18    C     0.48708   0.50225   0.25695   0.00000  Uiso   1.00
C19    C     0.50610   0.50002   0.90326   0.00000  Uiso   1.00
C20    C     0.49122   0.49979   0.10528   0.00000  Uiso   1.00
C21    C     0.47378   0.59756   0.87932   0.00000  Uiso   1.00
C22    C     0.53812   0.40751   0.12854   0.00000  Uiso   1.00
C23    C     0.43966   0.69650   0.90556   0.00000  Uiso   1.00
C24    C     0.58945   0.31455   0.10147   0.00000  Uiso   1.00
C25    C     0.54180   0.40249   0.87604   0.00000  Uiso   1.00
C26    C     0.44106   0.59223   0.13319   0.00000  Uiso   1.00
C27    C     0.50785   0.49768   0.65154   0.00000  Uiso   1.00
C28    C     0.48971   0.50387   0.35708   0.00000  Uiso   1.00
H1     H     0.72009   0.46748   0.64491   0.00000  Uiso   1.00
H2     H     0.27430   0.51671   0.36390   0.00000  Uiso   1.00
H3     H     0.72167   0.46876   0.73290   0.00000  Uiso   1.00
H4     H     0.27265   0.51435   0.27598   0.00000  Uiso   1.00
H5     H     0.41670   0.77530   0.88770   0.00000  Uiso   1.00
H6     H     0.62951   0.24182   0.11850   0.00000  Uiso   1.00
C29    C     0.45129   0.59571   0.03186   0.00000  Uiso   1.00
C30    C     0.53923   0.40159   0.97701   0.00000  Uiso   1.00
C31    C     0.54189   0.40379   0.02753   0.00000  Uiso   1.00
C32    C     0.46185   0.59818   0.98071   0.00000  Uiso   1.00
C33    C     0.49474   0.49973   0.05473   0.00000  Uiso   1.00
C34    C     0.50244   0.49994   0.95382   0.00000  Uiso   1.00
C35    C     0.39699   0.68671   0.06103   0.00000  Uiso   1.00
C36    C     0.57139   0.30277   0.94889   0.00000  Uiso   1.00
C37    C     0.39255   0.68490   0.11088   0.00000  Uiso   1.00
C38    C     0.57287   0.30363   0.89918   0.00000  Uiso   1.00
O11    O     0.39397   0.68385   0.21018   0.00000  Uiso   1.00
O12    O     0.57485   0.30680   0.79965   0.00000  Uiso   1.00
C39    C     0.43406   0.69723   0.95546   0.00000  Uiso   1.00
C40    C     0.59186   0.31258   0.05173   0.00000  Uiso   1.00
H7     H     0.70491   0.49107   0.33728   0.00000  Uiso   1.00
H8     H     0.29583   0.52790   0.67116   0.00000  Uiso   1.00
H9     H     0.70179   0.49085   0.24972   0.00000  Uiso   1.00
H10    H     0.29911   0.52812   0.75876   0.00000  Uiso   1.00
H11    H     0.34987   0.75765   0.13187   0.00000  Uiso   1.00
H12    H     0.59853   0.22488   0.87901   0.00000  Uiso   1.00
H13    H     0.35279   0.76077   0.04706   0.00000  Uiso   1.00
H14    H     0.59279   0.22057   0.96393   0.00000  Uiso   1.00
H15    H     0.41068   0.77943   0.97265   0.00000  Uiso   1.00
H16    H     0.63796   0.23829   0.03347   0.00000  Uiso   1.00
C41    C     0.57142   0.85520   0.50196   0.00000  Uiso   1.00
C42    C     0.42629   0.14607   0.50724   0.00000  Uiso   1.00
C43    C     0.47844   0.93745   0.50306   0.00000  Uiso   1.00
C44    C     0.52007   0.06387   0.50289   0.00000  Uiso   1.00
H17    H     0.31992   0.12087   0.51175   0.00000  Uiso   1.00
H18    H     0.67701   0.88013   0.50091   0.00000  Uiso   1.00
H19    H     0.11644   0.44076   0.46901   0.00000  Uiso   1.00
H20    H     0.88109   0.56059   0.53962   0.00000  Uiso   1.00
N3     N     0.84971   0.46271   0.48031   0.00000  Uiso   1.00
N4     N     0.14783   0.53870   0.52831   0.00000  Uiso   1.00
C45    C     0.92554   0.50903   0.50883   0.00000  Uiso   1.00
C46    C     0.07200   0.49236   0.49979   0.00000  Uiso   1.00
H21    H     0.09939   0.58662   0.55678   0.00000  Uiso   1.00
H22    H     0.89816   0.41489   0.45180   0.00000  Uiso   1.00
C47    C     0.66459   0.09708   0.49782   0.00000  Uiso   1.00
C48    C     0.72215   0.12336   0.53883   0.00000  Uiso   1.00
C49    C     0.85848   0.15263   0.53407   0.00000  Uiso   1.00
C50    C     0.93747   0.15519   0.48837   0.00000  Uiso   1.00
C51    C     0.88019   0.12842   0.44741   0.00000  Uiso   1.00
C52    C     0.74387   0.09919   0.45212   0.00000  Uiso   1.00
H23    H     0.66042   0.12089   0.57469   0.00000  Uiso   1.00
H24    H     0.90350   0.17335   0.56618   0.00000  Uiso   1.00
H25    H     0.04436   0.17803   0.48466   0.00000  Uiso   1.00
H26    H     0.94220   0.13020   0.41160   0.00000  Uiso   1.00
H27    H     0.69912   0.07787   0.42001   0.00000  Uiso   1.00
C53    C     0.33569   0.90402   0.50287   0.00000  Uiso   1.00
C54    C     0.24668   0.89419   0.54643   0.00000  Uiso   1.00
C55    C     0.11228   0.86379   0.54611   0.00000  Uiso   1.00
C56    C     0.06673   0.84322   0.50229   0.00000  Uiso   1.00
C57    C     0.15553   0.85317   0.45876   0.00000  Uiso   1.00
C58    C     0.28993   0.88368   0.45903   0.00000  Uiso   1.00
H28    H     0.28230   0.91045   0.58078   0.00000  Uiso   1.00
H29    H     0.04261   0.85609   0.58022   0.00000  Uiso   1.00
H30    H     0.96138   0.81936   0.50205   0.00000  Uiso   1.00
H31    H     0.11975   0.83717   0.42441   0.00000  Uiso   1.00
H32    H     0.35941   0.89172   0.42489   0.00000  Uiso   1.00
