# Generated by REPEAT Assigner based on pymatgen
data_DB0-m29_o83_o147_f0_pts.sym.87
_audit_creation_date              2022-05-24
_audit_creation_method            REPEAT_Assigner
_cell_length_a                    15.746984
_cell_length_b                    9.410710
_cell_length_c                    15.939292
_cell_angle_alpha                 87.611335
_cell_angle_beta                  86.712393
_cell_angle_gamma                 104.874759
_cell_volume                      2275.240698
_symmetry_space_group_name_H-M    P1
_symmetry_Int_Tables_number       1
loop_
    _symmetry_equiv_pos_site_id
    _symmetry_equiv_pos_as_xyz
    1  x,y,z
loop_
    _atom_site_type_symbol
    _atom_site_label
    _atom_site_fract_x
    _atom_site_fract_y
    _atom_site_fract_z
    _atom_type_partial_charge
    C   C1   0.251399  0.964110  0.051268  0.023842
    C   C2   0.241348  0.983428  0.966065  0.024744
    C   C3   0.159763  0.988147  0.939527  -0.155325
    C   C4   0.178703  0.939296  0.107219  -0.239738
    C   C5   0.097748  0.944090  0.080462  0.213168
    C   C6   0.086835  0.972743  0.996625  0.022013
    C   C7   0.003621  0.983324  0.972641  0.090832
    C   C8   0.989381  0.015597  0.889382  -0.180025
    C   C9   0.907684  0.021389  0.866671  -0.218490
    C   C10  0.028015  0.920981  0.139260  -0.203947
    C   C11  0.946667  0.927897  0.116480  -0.183117
    C   C12  0.932976  0.962574  0.033429  0.082248
    C   C13  0.849901  0.973891  0.009654  0.011316
    C   C14  0.838258  0.000033  0.925790  0.246059
    C   C15  0.756791  0.003366  0.899546  -0.239481
    C   C16  0.777854  0.961599  0.067257  -0.155434
    C   C17  0.695476  0.962895  0.041384  0.027321
    C   C18  0.684478  0.979033  0.956041  -0.031145
    H   H1   0.155574  0.000259  0.872881  0.119516
    H   H2   0.186009  0.923248  0.173677  0.164892
    H   H3   0.039694  0.037368  0.838732  0.163743
    H   H4   0.898683  0.044023  0.801202  0.142273
    H   H5   0.036459  0.895890  0.204562  0.144545
    H   H6   0.895968  0.903223  0.166822  0.165619
    H   H7   0.748428  0.017163  0.833131  0.157200
    H   H8   0.783667  0.953926  0.133760  0.121817
    O   O1   0.549070  0.981585  0.086868  -0.450653
    C   C19  0.623390  0.954454  0.106358  0.545482
    O   O2   0.478884  0.684319  0.180239  -0.458876
    O   O3   0.635649  0.930608  0.185910  -0.539988
    O   O4   0.465271  0.831169  0.285876  -0.500374
    C   C20  0.474998  0.704254  0.261226  0.551859
    Fe  Fe1  0.469525  0.971801  0.188819  1.413846
    O   O5   0.345867  0.905777  0.153675  -0.600323
    O   O6   0.404833  0.088733  0.053744  -0.450850
    C   C21  0.337854  0.982131  0.085045  0.598126
    O   O7   0.514240  0.175219  0.228861  -0.637709
    O   O8   0.419631  0.076803  0.341603  -0.560986
    C   C22  0.478631  0.188922  0.303618  0.622058
    O   O9   0.437036  0.763404  0.772939  -0.616221
    O   O10  0.564820  0.878284  0.698102  -0.568311
    C   C23  0.498108  0.761723  0.713567  0.609007
    O   O11  0.585202  0.046707  0.861479  -0.560230
    O   O12  0.535723  0.837311  0.945163  -0.463363
    C   C24  0.597690  0.957637  0.922494  0.656775
    O   O13  0.311293  0.053680  0.826752  -0.477206
    O   O14  0.467463  0.106947  0.723651  -0.544317
    C   C25  0.483380  0.242149  0.747818  0.663271
    O   O15  0.378947  0.933573  0.916925  -0.462651
    C   C26  0.314262  0.993803  0.901956  0.504158
    O   O16  0.491751  0.264345  0.828014  -0.487476
    Fe  Fe2  0.466002  0.964210  0.818856  1.408293
    C   C27  0.483593  0.498946  0.721218  -0.122118
    C   C28  0.496724  0.626114  0.671392  -0.022586
    C   C29  0.511010  0.623275  0.584791  -0.023394
    C   C30  0.535918  0.761564  0.530058  -0.082504
    C   C31  0.497980  0.745034  0.445196  0.087809
    C   C32  0.489755  0.369072  0.687598  -0.127543
    C   C33  0.503751  0.365415  0.600208  0.116514
    C   C34  0.510732  0.492162  0.549091  -0.032717
    C   C35  0.509432  0.485147  0.457297  0.217467
    C   C36  0.497790  0.602504  0.407077  -0.107079
    C   C37  0.484951  0.585258  0.321333  -0.006219
    C   C38  0.510050  0.225957  0.561637  -0.369170
    C   C39  0.549090  0.247449  0.471798  0.621586
    C   C40  0.514439  0.355928  0.421879  -0.348075
    C   C41  0.494109  0.334285  0.339021  0.114628
    C   C42  0.481459  0.449399  0.289439  -0.198980
    H   H9   0.512879  0.851510  0.558236  0.083336
    H   H10  0.429996  0.758668  0.450210  0.054769
    H   H11  0.443616  0.148260  0.564249  0.134144
    H   H12  0.529030  0.137442  0.446601  -0.051315
    H   H13  0.608741  0.795686  0.520032  0.054675
    H   H14  0.542264  0.836903  0.405796  0.036053
    H   H15  0.555404  0.176799  0.596416  0.128391
    H   H16  0.472741  0.504602  0.788368  0.185106
    H   H17  0.466457  0.430007  0.224973  0.168996
    N   N1   0.644718  0.288421  0.471690  -0.348254
    C   C43  0.691679  0.420453  0.422437  -0.045831
    C   C44  0.789821  0.446804  0.431035  0.190129
    O   O17  0.819307  0.327418  0.403698  -0.394556
    C   C45  0.778528  0.207691  0.459445  0.174148
    C   C46  0.680189  0.166638  0.451165  0.050526
    H   H18  0.674417  0.518746  0.446368  0.046600
    H   H19  0.679330  0.409289  0.354894  0.094029
    H   H20  0.805274  0.468097  0.497082  0.017054
    H   H21  0.824548  0.546590  0.391250  0.040826
    H   H22  0.793264  0.232379  0.525279  0.027431
    H   H23  0.804225  0.112340  0.443171  0.034341
    H   H24  0.649711  0.070285  0.495097  0.025105
    H   H25  0.667360  0.137697  0.385460  0.068892
