# Generated by REPEAT Assigner based on pymatgen
data_DB0-m3_o6_o14_f0_pcu.sym.113_sqe
_audit_creation_date              2022-05-24
_audit_creation_method            REPEAT_Assigner
_cell_length_a                    16.127505
_cell_length_b                    14.976182
_cell_length_c                    10.997734
_cell_angle_alpha                 90.000000
_cell_angle_beta                  89.990065
_cell_angle_gamma                 90.000000
_cell_volume                      2656.265595
_symmetry_space_group_name_H-M    P1
_symmetry_Int_Tables_number       1
loop_
    _symmetry_equiv_pos_site_id
    _symmetry_equiv_pos_as_xyz
    1  x,y,z
loop_
    _atom_site_type_symbol
    _atom_site_label
    _atom_site_fract_x
    _atom_site_fract_y
    _atom_site_fract_z
    _atom_type_partial_charge
    O   O1   0.372810  0.576312  0.487335  -0.705125
    O   O2   0.619698  0.576566  0.502645  -0.674670
    O   O3   0.373091  0.422449  0.486651  -0.696689
    O   O4   0.619842  0.422675  0.506440  -0.687951
    C   C1   0.334405  0.499311  0.484470  0.909306
    C   C2   0.658309  0.499691  0.506987  0.879167
    O   O5   0.501407  0.575596  0.314442  -0.595606
    O   O6   0.490957  0.576521  0.675584  -0.557220
    O   O7   0.503585  0.422230  0.315277  -0.651056
    O   O8   0.489429  0.423513  0.677806  -0.641855
    C   C3   0.506324  0.499264  0.257068  0.721531
    C   C4   0.486863  0.501050  0.734789  0.678398
    Zn  Zn1  0.496230  0.600811  0.494911  1.038596
    Zn  Zn2  0.496482  0.398212  0.496694  1.100545
    H   H1   0.491145  0.359730  0.105334  0.105705
    H   H2   0.482704  0.360936  0.886107  0.111705
    C   C5   0.549753  0.658438  0.106487  -0.265111
    C   C6   0.470652  0.666944  0.888470  -0.175327
    H   H3   0.585659  0.656278  0.188965  0.189539
    H   H4   0.434015  0.673329  0.807354  0.116679
    C   C7   0.539072  0.740606  0.052021  -0.089856
    C   C8   0.494903  0.745186  0.944191  -0.071183
    C   C9   0.490553  0.583670  0.936713  0.136673
    C   C10  0.516797  0.580833  0.056369  0.235135
    C   C11  0.510043  0.500950  0.122026  -0.216099
    C   C12  0.484841  0.503764  0.870155  -0.143916
    C   C13  0.495442  0.422936  0.058388  -0.044701
    C   C14  0.488305  0.423909  0.933318  -0.088619
    H   H5   0.072742  0.641584  0.490721  0.143238
    H   H6   0.920358  0.641835  0.500214  0.147350
    C   C15  0.953754  0.579265  0.498366  -0.182958
    C   C16  0.039177  0.579123  0.492787  -0.188011
    C   C17  0.910936  0.499592  0.501409  0.267462
    C   C18  0.081784  0.499311  0.490021  0.263119
    C   C19  0.953543  0.419779  0.498644  -0.184129
    C   C20  0.038967  0.419638  0.493065  -0.187286
    H   H7   0.919978  0.357318  0.500710  0.141075
    H   H8   0.072363  0.357068  0.491217  0.141574
    C   C21  0.821997  0.499722  0.505545  -0.103095
    C   C22  0.170721  0.499187  0.485884  -0.095615
    C   C23  0.245429  0.499175  0.484002  -0.267923
    C   C24  0.747288  0.499762  0.507433  -0.248100
    H   H9   0.365206  0.081867  0.474433  0.159973
    H   H10  0.627550  0.081412  0.520224  0.178113
    C   C25  0.422717  0.953603  0.483704  -0.171755
    C   C26  0.569778  0.953345  0.509387  -0.262192
    H   H11  0.365048  0.917618  0.473305  0.140153
    H   H12  0.627394  0.917158  0.519109  0.201441
    C   C27  0.496208  0.907431  0.496169  0.411532
    C   C28  0.569866  0.045425  0.510015  -0.142973
    C   C29  0.422806  0.045679  0.484344  -0.140615
    C   C30  0.496382  0.091592  0.497445  0.200322
    C   C31  0.496149  0.811611  0.495068  0.053800
    C   C32  0.496490  0.187412  0.497601  0.099033
    N   N1   0.496546  0.264669  0.497574  -0.141318
    N   N2   0.496118  0.734356  0.494316  -0.122996
    C   C33  0.567805  0.820246  0.118684  0.854277
    O   O9   0.630472  0.815883  0.180415  -0.587149
    N   N3   0.518252  0.899153  0.123758  -0.957137
    H   H13  0.500344  0.908198  0.214113  0.293937
    H   H14  0.556122  0.952887  0.099734  0.371938
    C   C34  0.480207  0.829506  0.878862  0.675094
    O   O10  0.534608  0.885850  0.872364  -0.530504
    N   N4   0.404764  0.842432  0.813431  -0.713635
    H   H15  0.407460  0.905584  0.773438  0.280761
    H   H16  0.356472  0.842769  0.876676  0.285206
