# generated using pymatgen
data_CuH4C19Br7N3O4
_symmetry_space_group_name_H-M   'P 1'
_cell_length_a   15.63020300
_cell_length_b   15.89194300
_cell_length_c   17.07378000
_cell_angle_alpha   89.99961500
_cell_angle_beta   96.36561000
_cell_angle_gamma   92.77801500
_symmetry_Int_Tables_number   1
_chemical_formula_structural   CuH4C19Br7N3O4
_chemical_formula_sum   'Cu2 H8 C38 Br14 N6 O8'
_cell_volume   4209.86727427
_cell_formula_units_Z   2
loop_
 _symmetry_equiv_pos_site_id
 _symmetry_equiv_pos_as_xyz
  1  'x, y, z'
loop_
 _atom_site_type_symbol
 _atom_site_label
 _atom_site_symmetry_multiplicity
 _atom_site_fract_x
 _atom_site_fract_y
 _atom_site_fract_z
 _atom_site_occupancy
  Cu  Cu1  1  0.58587200  0.50036400  0.50216400  1
  Cu  Cu2  1  0.41411400  0.49959600  0.49782900  1
  H  H1  1  0.57225000  0.05727800  0.62363600  1
  H  H2  1  0.42773700  0.94268300  0.37635700  1
  H  H3  1  0.34928300  0.03582100  0.48932300  1
  H  H4  1  0.65070400  0.96413900  0.51067100  1
  H  H5  1  0.11556500  0.38470800  0.41078300  1
  H  H6  1  0.88442300  0.61525300  0.58920700  1
  H  H7  1  0.27147800  0.40181900  0.41087600  1
  H  H8  1  0.72851100  0.59814400  0.58911500  1
  C  C1  1  0.51458800  0.50170300  0.65141200  1
  C  C2  1  0.48539800  0.49825800  0.34858400  1
  C  C3  1  0.50759300  0.66162100  0.49858800  1
  C  C4  1  0.49239300  0.33833900  0.50140600  1
  C  C5  1  0.54021400  0.03047300  0.56731700  1
  C  C6  1  0.45977300  0.96948700  0.43267700  1
  C  C7  1  0.46367700  0.96751400  0.55871100  1
  C  C8  1  0.53631000  0.03244600  0.44128300  1
  C  C9  1  0.51023200  0.75196300  0.49847200  1
  C  C10  1  0.48975500  0.24799700  0.50152200  1
  C  C11  1  0.58241200  0.98122700  0.50647100  1
  C  C12  1  0.41757500  0.01873400  0.49352200  1
  C  C13  1  0.50534600  0.91946800  0.49863100  1
  C  C14  1  0.49464100  0.08049200  0.50136300  1
  C  C15  1  0.50928800  0.82771600  0.49848400  1
  C  C16  1  0.49069900  0.17224400  0.50151000  1
  C  C17  1  0.51973700  0.50433300  0.73755300  1
  C  C18  1  0.48025100  0.49565500  0.26244500  1
  C  C19  1  0.47418200  0.44426000  0.77674700  1
  C  C20  1  0.52569100  0.55582600  0.22326500  1
  C  C21  1  0.46658100  0.45204300  0.85611900  1
  C  C22  1  0.53331000  0.54810100  0.14389200  1
  C  C23  1  0.50748400  0.52055100  0.89887500  1
  C  C24  1  0.49256600  0.47951900  0.10112700  1
  C  C25  1  0.55113000  0.58152500  0.85824000  1
  C  C26  1  0.44904500  0.41844500  0.14175500  1
  C  C27  1  0.55781800  0.57335000  0.77881000  1
  C  C28  1  0.44231400  0.42658400  0.22118100  1
  C  C29  1  0.24540600  0.54686500  0.54492500  1
  C  C30  1  0.75458000  0.45309500  0.45506800  1
  C  C31  1  0.15743100  0.53815500  0.54685300  1
  C  C32  1  0.84255500  0.46180400  0.45313900  1
  C  C33  1  0.10910400  0.48030400  0.49705300  1
  C  C34  1  0.89088300  0.51965500  0.50293800  1
  C  C35  1  0.15156900  0.43138300  0.44887800  1
  C  C36  1  0.84841800  0.56857700  0.55111300  1
  C  C37  1  0.23958600  0.44153500  0.44871000  1
  C  C38  1  0.76040100  0.55842600  0.55128200  1
  Br  Br1  1  0.41077100  0.91577900  0.64501700  1
  Br  Br2  1  0.58921600  0.08418300  0.35497700  1
  Br  Br3  1  0.58179800  0.65167200  0.27795600  1
  Br  Br4  1  0.41789500  0.34847400  0.72209200  1
  Br  Br5  1  0.61381000  0.62784000  0.10536800  1
  Br  Br6  1  0.38587700  0.37253500  0.89467200  1
  Br  Br7  1  0.59872100  0.68249800  0.90899700  1
  Br  Br8  1  0.40170400  0.31739000  0.09098000  1
  Br  Br9  1  0.61196500  0.66382100  0.72613600  1
  Br  Br10  1  0.38831800  0.33602000  0.27385300  1
  Br  Br11  1  0.69456400  0.37174100  0.38398900  1
  Br  Br12  1  0.30542100  0.62822100  0.61600200  1
  Br  Br13  1  0.88773600  0.39860700  0.37260900  1
  Br  Br14  1  0.11225000  0.60135300  0.62738200  1
  N  N1  1  0.50266300  0.53331000  0.98087800  1
  N  N2  1  0.49741000  0.46678300  0.01912400  1
  N  N3  1  0.28577700  0.49947300  0.49550100  1
  N  N4  1  0.71421000  0.50048800  0.50449300  1
  N  N5  1  0.01874600  0.46698000  0.49556700  1
  N  N6  1  0.98124100  0.53297900  0.50442400  1
  O  O1  1  0.58539100  0.50491600  0.61651300  1
  O  O2  1  0.41459400  0.49503900  0.38348000  1
  O  O3  1  0.43767200  0.49819000  0.61245900  1
  O  O4  1  0.56231600  0.50177600  0.38753500  1
  O  O5  1  0.58006600  0.62287000  0.50371000  1
  O  O6  1  0.41992100  0.37709000  0.49628800  1
  O  O7  1  0.43199100  0.62190300  0.49417100  1
  O  O8  1  0.56799600  0.37805700  0.50581800  1
