# Generated by REPEAT Assigner based on pymatgen
data_DB0-m2_o1_o29_f0_nbo.sym.22
_audit_creation_date              2022-05-24
_audit_creation_method            REPEAT_Assigner
_cell_length_a                    21.581228
_cell_length_b                    21.581228
_cell_length_c                    54.985198
_cell_angle_alpha                 90.000000
_cell_angle_beta                  90.000000
_cell_angle_gamma                 90.000000
_cell_volume                      25609.321998
_symmetry_space_group_name_H-M    P1
_symmetry_Int_Tables_number       1
loop_
    _symmetry_equiv_pos_site_id
    _symmetry_equiv_pos_as_xyz
    1  x,y,z
loop_
    _atom_site_type_symbol
    _atom_site_label
    _atom_site_fract_x
    _atom_site_fract_y
    _atom_site_fract_z
    _atom_type_partial_charge
    O   O1    0.482401  0.411772  0.019981  -0.642240
    O   O2    0.588228  0.482401  0.019981  -0.642340
    O   O3    0.517599  0.588228  0.019981  -0.642266
    O   O4    0.411772  0.517598  0.019981  -0.642263
    O   O5    0.482401  0.588228  0.980019  -0.642267
    O   O6    0.588228  0.517598  0.980019  -0.642283
    O   O7    0.517599  0.411772  0.980019  -0.642254
    O   O8    0.411772  0.482401  0.980019  -0.642335
    O   O9    0.982401  0.911772  0.519981  -0.642241
    O   O10   0.088228  0.982402  0.519981  -0.642270
    O   O11   0.017599  0.088228  0.519981  -0.642262
    O   O12   0.911772  0.017599  0.519981  -0.642339
    O   O13   0.982401  0.088228  0.480019  -0.642222
    O   O14   0.088228  0.017599  0.480019  -0.642361
    O   O15   0.017599  0.911772  0.480019  -0.642242
    O   O16   0.911772  0.982402  0.480019  -0.642228
    C   C1    0.000000  0.500000  0.123382  0.269608
    C   C2    0.500000  0.000000  0.123382  0.269674
    C   C3    0.000000  0.500000  0.876618  0.269690
    C   C4    0.500000  0.000000  0.876618  0.269765
    C   C5    0.500000  0.000000  0.623382  0.269673
    C   C6    0.000000  0.500000  0.623382  0.269703
    C   C7    0.500000  0.000000  0.376618  0.269873
    C   C8    0.000000  0.500000  0.376618  0.269807
    C   C9    0.500000  0.382566  0.000000  1.000355
    C   C10   0.617434  0.500000  0.000000  1.000500
    C   C11   0.500000  0.617434  0.000000  1.000095
    C   C12   0.382566  0.500000  0.000000  1.000471
    C   C13   0.000000  0.882566  0.500000  0.999996
    C   C14   0.117434  0.000000  0.500000  1.000531
    C   C15   0.000000  0.117434  0.500000  1.000379
    C   C16   0.882566  0.000000  0.500000  1.000383
    Cu  Cu1   0.500000  0.500000  0.023715  0.949674
    Cu  Cu2   0.500000  0.500000  0.976285  0.949684
    Cu  Cu3   0.000000  0.000000  0.523715  0.949696
    Cu  Cu4   0.000000  0.000000  0.476285  0.949671
    C   C17   0.282029  0.460713  0.984723  0.273865
    C   C18   0.539287  0.282028  0.984723  0.273835
    C   C19   0.717971  0.539287  0.984723  0.273820
    C   C20   0.460713  0.717971  0.984723  0.273874
    C   C21   0.282029  0.539287  0.015277  0.273795
    C   C22   0.539287  0.717971  0.015277  0.273851
    C   C23   0.717971  0.460713  0.015277  0.273855
    C   C24   0.460713  0.282028  0.015277  0.273817
    C   C25   0.782029  0.960714  0.484723  0.273841
    C   C26   0.039287  0.782029  0.484723  0.273837
    C   C27   0.217971  0.039287  0.484723  0.273810
    C   C28   0.960713  0.217972  0.484723  0.273772
    C   C29   0.782029  0.039287  0.515277  0.273907
    C   C30   0.039287  0.217972  0.515277  0.273785
    C   C31   0.217971  0.960713  0.515277  0.273813
    C   C32   0.960713  0.782029  0.515277  0.273845
    C   C33   0.218158  0.460364  0.984860  0.233386
    C   C34   0.539636  0.218158  0.984860  0.233460
    C   C35   0.781842  0.539636  0.984860  0.233534
    C   C36   0.460364  0.781841  0.984860  0.233289
    C   C37   0.218158  0.539636  0.015140  0.233604
    C   C38   0.539636  0.781841  0.015140  0.233317
    C   C39   0.781842  0.460364  0.015140  0.233350
    C   C40   0.460364  0.218158  0.015140  0.233485
    C   C41   0.718159  0.960364  0.484860  0.233583
    C   C42   0.039636  0.718159  0.484860  0.233353
    C   C43   0.281842  0.039637  0.484860  0.233432
    C   C44   0.960364  0.281842  0.484860  0.233628
    C   C45   0.718159  0.039636  0.515140  0.233376
    C   C46   0.039636  0.281842  0.515140  0.233465
    C   C47   0.281842  0.960364  0.515140  0.233579
    C   C48   0.960364  0.718159  0.515140  0.233363
    C   C49   0.185672  0.500000  0.000000  -0.301585
    C   C50   0.500000  0.185671  0.000000  -0.301491
    C   C51   0.814328  0.500000  0.000000  -0.301480
    C   C52   0.500000  0.814328  0.000000  -0.301283
    C   C53   0.685672  0.000000  0.500000  -0.301555
    C   C54   0.000000  0.685672  0.500000  -0.301395
    C   C55   0.314328  0.000000  0.500000  -0.301554
    C   C56   0.000000  0.314329  0.500000  -0.301544
    C   C57   0.314503  0.500000  0.000000  -0.435390
    C   C58   0.500000  0.314503  0.000000  -0.435456
    C   C59   0.685497  0.500000  0.000000  -0.435396
    C   C60   0.500000  0.685497  0.000000  -0.435176
    C   C61   0.814503  0.000000  0.500000  -0.435327
    C   C62   0.000000  0.814503  0.500000  -0.435115
    C   C63   0.185497  0.000000  0.500000  -0.435418
    C   C64   0.000000  0.185497  0.500000  -0.435432
    O   O17   0.017289  0.449029  0.034728  -0.606301
    O   O18   0.550970  0.017289  0.034728  -0.606335
    O   O19   0.982711  0.550970  0.034728  -0.606371
    O   O20   0.449029  0.982711  0.034728  -0.606219
    O   O21   0.017289  0.550970  0.965272  -0.606384
    O   O22   0.550970  0.982711  0.965272  -0.606231
    O   O23   0.982711  0.449029  0.965272  -0.606191
    O   O24   0.449029  0.017289  0.965272  -0.606260
    O   O25   0.517289  0.949030  0.534728  -0.606385
    O   O26   0.050971  0.517289  0.534728  -0.606270
    O   O27   0.482711  0.050971  0.534728  -0.606185
    O   O28   0.949030  0.482711  0.534728  -0.606311
    O   O29   0.517289  0.050971  0.465272  -0.606241
    O   O30   0.050971  0.482711  0.465272  -0.606215
    O   O31   0.482711  0.949030  0.465272  -0.606405
    O   O32   0.949030  0.517289  0.465272  -0.606350
    C   C65   0.000000  0.500000  0.046196  0.776813
    C   C66   0.500000  0.000000  0.046196  0.776771
    C   C67   0.000000  0.500000  0.953804  0.776785
    C   C68   0.500000  0.000000  0.953804  0.776793
    C   C69   0.500000  0.000000  0.546196  0.776926
    C   C70   0.000000  0.500000  0.546196  0.776762
    C   C71   0.500000  0.000000  0.453804  0.776897
    C   C72   0.000000  0.500000  0.453804  0.776912
    O   O33   0.088364  0.449025  0.993256  -0.524943
    O   O34   0.550975  0.088364  0.993256  -0.524837
    O   O35   0.911636  0.550975  0.993256  -0.525058
    O   O36   0.449025  0.911635  0.993256  -0.524893
    O   O37   0.088364  0.550975  0.006744  -0.525047
    O   O38   0.550975  0.911635  0.006744  -0.524941
    O   O39   0.911636  0.449025  0.006744  -0.525034
    O   O40   0.449025  0.088364  0.006744  -0.524859
    O   O41   0.588364  0.949025  0.493256  -0.525017
    O   O42   0.050975  0.588365  0.493256  -0.524890
    O   O43   0.411636  0.050975  0.493256  -0.524960
    O   O44   0.949025  0.411636  0.493256  -0.524959
    O   O45   0.588364  0.050975  0.506744  -0.524919
    O   O46   0.050975  0.411636  0.506744  -0.524963
    O   O47   0.411636  0.949025  0.506744  -0.525008
    O   O48   0.949025  0.588365  0.506744  -0.524901
    C   C73   0.117595  0.500000  0.000000  0.723481
    C   C74   0.500000  0.117595  0.000000  0.723226
    C   C75   0.882405  0.500000  0.000000  0.723448
    C   C76   0.500000  0.882405  0.000000  0.723171
    C   C77   0.617595  0.000000  0.500000  0.723344
    C   C78   0.000000  0.617595  0.500000  0.723236
    C   C79   0.382405  0.000000  0.500000  0.723361
    C   C80   0.000000  0.382405  0.500000  0.723402
    Cu  Cu5   0.000000  0.439578  0.000000  0.978781
    Cu  Cu6   0.560422  0.000000  0.000000  0.978597
    Cu  Cu7   0.000000  0.560422  0.000000  0.978806
    Cu  Cu8   0.439578  0.000000  0.000000  0.978693
    Cu  Cu9   0.500000  0.939578  0.500000  0.978797
    Cu  Cu10  0.060422  0.500000  0.500000  0.978690
    Cu  Cu11  0.500000  0.060422  0.500000  0.978706
    Cu  Cu12  0.939578  0.500000  0.500000  0.978650
    C   C81   0.959076  0.537909  0.237307  0.060019
    C   C82   0.462091  0.959076  0.237307  0.059953
    C   C83   0.040924  0.462091  0.237307  0.060121
    C   C84   0.537909  0.040924  0.237307  0.060105
    C   C85   0.959076  0.462091  0.762693  0.060091
    C   C86   0.462091  0.040924  0.762693  0.060096
    C   C87   0.040924  0.537909  0.762693  0.060059
    C   C88   0.537909  0.959076  0.762693  0.060111
    C   C89   0.459076  0.037909  0.737307  0.060020
    C   C90   0.962091  0.459076  0.737307  0.060079
    C   C91   0.540924  0.962091  0.737307  0.060045
    C   C92   0.037909  0.540924  0.737307  0.060045
    C   C93   0.459075  0.962091  0.262693  0.060188
    C   C94   0.962091  0.540924  0.262693  0.060113
    C   C95   0.540924  0.037909  0.262693  0.060031
    C   C96   0.037909  0.459076  0.262693  0.060017
    C   C97   0.000000  0.500000  0.224772  0.023960
    C   C98   0.500000  0.000000  0.224772  0.023991
    C   C99   0.000000  0.500000  0.775228  0.023962
    C   C100  0.500000  0.000000  0.775228  0.023956
    C   C101  0.500000  0.000000  0.724772  0.024002
    C   C102  0.000000  0.500000  0.724772  0.023978
    C   C103  0.500000  0.000000  0.275228  0.023902
    C   C104  0.000000  0.500000  0.275228  0.023991
    C   C105  0.915564  0.571496  0.224039  -0.197367
    C   C106  0.428504  0.915564  0.224039  -0.197345
    C   C107  0.084436  0.428504  0.224039  -0.197451
    C   C108  0.571496  0.084436  0.224039  -0.197419
    C   C109  0.915564  0.428504  0.775961  -0.197447
    C   C110  0.428504  0.084436  0.775961  -0.197450
    C   C111  0.084436  0.571496  0.775961  -0.197416
    C   C112  0.571496  0.915564  0.775961  -0.197473
    C   C113  0.415564  0.071496  0.724039  -0.197366
    C   C114  0.928504  0.415564  0.724039  -0.197436
    C   C115  0.584436  0.928504  0.724039  -0.197401
    C   C116  0.071496  0.584436  0.724039  -0.197404
    C   C117  0.415564  0.928504  0.275961  -0.197469
    C   C118  0.928504  0.584436  0.275961  -0.197460
    C   C119  0.584436  0.071496  0.275961  -0.197368
    C   C120  0.071496  0.415564  0.275961  -0.197379
    C   C121  0.915007  0.569836  0.199098  -0.003201
    C   C122  0.430164  0.915007  0.199098  -0.003205
    C   C123  0.084993  0.430164  0.199098  -0.003255
    C   C124  0.569836  0.084993  0.199098  -0.003276
    C   C125  0.915007  0.430164  0.800902  -0.003223
    C   C126  0.430164  0.084993  0.800902  -0.003255
    C   C127  0.084993  0.569836  0.800902  -0.003232
    C   C128  0.569836  0.915007  0.800902  -0.003158
    C   C129  0.415007  0.069836  0.699098  -0.003221
    C   C130  0.930164  0.415007  0.699098  -0.003228
    C   C131  0.584993  0.930164  0.699098  -0.003238
    C   C132  0.069836  0.584993  0.699098  -0.003239
    C   C133  0.415007  0.930164  0.300902  -0.003232
    C   C134  0.930164  0.584993  0.300902  -0.003212
    C   C135  0.584993  0.069836  0.300902  -0.003209
    C   C136  0.069836  0.415007  0.300902  -0.003244
    C   C137  0.957830  0.534928  0.186701  -0.131874
    C   C138  0.465072  0.957830  0.186701  -0.131870
    C   C139  0.042170  0.465073  0.186701  -0.131870
    C   C140  0.534927  0.042170  0.186701  -0.131857
    C   C141  0.957830  0.465072  0.813299  -0.131857
    C   C142  0.465073  0.042170  0.813299  -0.131790
    C   C143  0.042170  0.534927  0.813299  -0.131859
    C   C144  0.534928  0.957830  0.813299  -0.131926
    C   C145  0.457830  0.034928  0.686701  -0.131866
    C   C146  0.965072  0.457830  0.686701  -0.131854
    C   C147  0.542170  0.965072  0.686701  -0.131835
    C   C148  0.034927  0.542170  0.686701  -0.131849
    C   C149  0.457830  0.965073  0.313299  -0.131854
    C   C150  0.965073  0.542170  0.313299  -0.131903
    C   C151  0.542170  0.034928  0.313299  -0.131863
    C   C152  0.034928  0.457830  0.313299  -0.131786
    C   C153  0.000000  0.500000  0.199489  0.107094
    C   C154  0.500000  0.000000  0.199489  0.107084
    C   C155  0.000000  0.500000  0.800511  0.107082
    C   C156  0.500000  0.000000  0.800511  0.107061
    C   C157  0.500000  0.000000  0.699489  0.107026
    C   C158  0.000000  0.500000  0.699489  0.107076
    C   C159  0.500000  0.000000  0.300511  0.107081
    C   C160  0.000000  0.500000  0.300511  0.107034
    C   C161  0.957871  0.534030  0.161550  0.399291
    C   C162  0.465970  0.957871  0.161550  0.399301
    C   C163  0.042129  0.465970  0.161550  0.399283
    C   C164  0.534030  0.042129  0.161550  0.399272
    C   C165  0.957871  0.465970  0.838450  0.399284
    C   C166  0.465970  0.042129  0.838450  0.399240
    C   C167  0.042129  0.534030  0.838450  0.399263
    C   C168  0.534030  0.957870  0.838450  0.399348
    C   C169  0.457871  0.034030  0.661550  0.399315
    C   C170  0.965970  0.457871  0.661550  0.399290
    C   C171  0.542129  0.965970  0.661550  0.399284
    C   C172  0.034030  0.542129  0.661550  0.399256
    C   C173  0.457870  0.965970  0.338450  0.399343
    C   C174  0.965970  0.542130  0.338450  0.399343
    C   C175  0.542129  0.034030  0.338450  0.399263
    C   C176  0.034030  0.457871  0.338450  0.399235
    N   N1    0.000000  0.500000  0.149348  -0.055813
    N   N2    0.500000  0.000000  0.149348  -0.055840
    N   N3    0.000000  0.500000  0.850652  -0.055823
    N   N4    0.500000  0.000000  0.850652  -0.055875
    N   N5    0.500000  0.000000  0.649348  -0.055862
    N   N6    0.000000  0.500000  0.649348  -0.055833
    N   N7    0.500000  0.000000  0.350652  -0.055932
    N   N8    0.000000  0.500000  0.350652  -0.055879
    H   H1    0.879271  0.598372  0.232269  0.136803
    H   H2    0.401628  0.879271  0.232269  0.136776
    H   H3    0.120730  0.401628  0.232269  0.136910
    H   H4    0.598372  0.120730  0.232269  0.136909
    H   H5    0.879270  0.401628  0.767731  0.136876
    H   H6    0.401628  0.120730  0.767731  0.136892
    H   H7    0.120730  0.598372  0.767731  0.136866
    H   H8    0.598372  0.879270  0.767731  0.136877
    H   H9    0.379271  0.098372  0.732269  0.136821
    H   H10   0.901628  0.379270  0.732269  0.136870
    H   H11   0.620730  0.901628  0.732269  0.136858
    H   H12   0.098372  0.620730  0.732269  0.136861
    H   H13   0.379270  0.901628  0.267731  0.136945
    H   H14   0.901628  0.620730  0.267731  0.136908
    H   H15   0.620729  0.098372  0.267731  0.136798
    H   H16   0.098372  0.379271  0.267731  0.136813
    H   H17   0.880370  0.596650  0.189595  0.126598
    H   H18   0.403350  0.880370  0.189595  0.126611
    H   H19   0.119630  0.403350  0.189595  0.126587
    H   H20   0.596650  0.119630  0.189595  0.126584
    H   H21   0.880370  0.403350  0.810405  0.126597
    H   H22   0.403350  0.119630  0.810405  0.126608
    H   H23   0.119630  0.596650  0.810405  0.126589
    H   H24   0.596650  0.880370  0.810405  0.126579
    H   H25   0.380370  0.096650  0.689595  0.126595
    H   H26   0.903350  0.380370  0.689595  0.126599
    H   H27   0.619630  0.903350  0.689595  0.126600
    H   H28   0.096650  0.619630  0.689595  0.126590
    H   H29   0.380370  0.903351  0.310405  0.126570
    H   H30   0.903350  0.619630  0.310405  0.126572
    H   H31   0.619630  0.096650  0.310405  0.126596
    H   H32   0.096650  0.380370  0.310405  0.126626
    O   O49   0.914881  0.566226  0.149181  -0.489583
    O   O50   0.433774  0.914881  0.149181  -0.489593
    O   O51   0.085119  0.433774  0.149181  -0.489546
    O   O52   0.566226  0.085119  0.149181  -0.489545
    O   O53   0.914881  0.433774  0.850819  -0.489571
    O   O54   0.433774  0.085119  0.850819  -0.489609
    O   O55   0.085119  0.566226  0.850819  -0.489558
    O   O56   0.566226  0.914881  0.850819  -0.489550
    O   O57   0.414881  0.066226  0.649181  -0.489569
    O   O58   0.933774  0.414881  0.649181  -0.489574
    O   O59   0.585119  0.933774  0.649181  -0.489568
    O   O60   0.066226  0.585119  0.649181  -0.489553
    O   O61   0.414881  0.933774  0.350819  -0.489559
    O   O62   0.933774  0.585119  0.350819  -0.489536
    O   O63   0.585119  0.066226  0.350819  -0.489558
    O   O64   0.066226  0.414881  0.350819  -0.489618
    C   C177  0.993028  0.445241  0.110731  -0.428376
    C   C178  0.554759  0.993028  0.110731  -0.428416
    C   C179  0.006972  0.554759  0.110731  -0.428276
    C   C180  0.445241  0.006972  0.110731  -0.428357
    C   C181  0.993028  0.554759  0.889269  -0.428458
    C   C182  0.554759  0.006972  0.889269  -0.428442
    C   C183  0.006972  0.445241  0.889269  -0.428342
    C   C184  0.445241  0.993027  0.889269  -0.428405
    C   C185  0.493028  0.945241  0.610731  -0.428480
    C   C186  0.054759  0.493028  0.610731  -0.428434
    C   C187  0.506972  0.054759  0.610731  -0.428290
    C   C188  0.945241  0.506972  0.610731  -0.428391
    C   C189  0.493028  0.054759  0.389269  -0.428366
    C   C190  0.054759  0.506973  0.389269  -0.428326
    C   C191  0.506972  0.945242  0.389269  -0.428572
    C   C192  0.945241  0.493028  0.389269  -0.428587
    H   H33   0.986536  0.402160  0.120431  0.209587
    H   H34   0.597840  0.986536  0.120431  0.209591
    H   H35   0.013464  0.597840  0.120431  0.209579
    H   H36   0.402160  0.013464  0.120431  0.209624
    H   H37   0.986536  0.597840  0.879569  0.209600
    H   H38   0.597840  0.013464  0.879569  0.209609
    H   H39   0.013464  0.402160  0.879569  0.209614
    H   H40   0.402160  0.986536  0.879569  0.209611
    H   H41   0.486536  0.902160  0.620431  0.209629
    H   H42   0.097840  0.486536  0.620431  0.209596
    H   H43   0.513464  0.097840  0.620431  0.209576
    H   H44   0.902160  0.513464  0.620431  0.209623
    H   H45   0.486536  0.097840  0.379569  0.209617
    H   H46   0.097840  0.513464  0.379569  0.209622
    H   H47   0.513464  0.902160  0.379569  0.209560
    H   H48   0.902160  0.486536  0.379569  0.209603
    C   C193  0.993391  0.445014  0.085666  0.569342
    C   C194  0.554986  0.993391  0.085666  0.569436
    C   C195  0.006609  0.554986  0.085666  0.569320
    C   C196  0.445014  0.006609  0.085666  0.569356
    C   C197  0.993391  0.554986  0.914334  0.569491
    C   C198  0.554986  0.006609  0.914334  0.569444
    C   C199  0.006609  0.445014  0.914334  0.569327
    C   C200  0.445014  0.993391  0.914334  0.569453
    C   C201  0.493391  0.945014  0.585666  0.569577
    C   C202  0.054986  0.493391  0.585666  0.569419
    C   C203  0.506609  0.054986  0.585666  0.569365
    C   C204  0.945014  0.506609  0.585666  0.569403
    C   C205  0.493391  0.054986  0.414334  0.569321
    C   C206  0.054986  0.506609  0.414334  0.569359
    C   C207  0.506609  0.945014  0.414334  0.569592
    C   C208  0.945014  0.493391  0.414334  0.569635
    C   C209  0.000000  0.500000  0.072913  -0.492388
    C   C210  0.500000  0.000000  0.072913  -0.492471
    C   C211  0.000000  0.500000  0.927087  -0.492486
    C   C212  0.500000  0.000000  0.927087  -0.492592
    C   C213  0.500000  0.000000  0.572913  -0.492655
    C   C214  0.000000  0.500000  0.572913  -0.492474
    C   C215  0.500000  0.000000  0.427087  -0.492561
    C   C216  0.000000  0.500000  0.427087  -0.492678
    F   F1    0.312169  0.420673  0.969869  -0.155413
    F   F2    0.579327  0.312169  0.969869  -0.155410
    F   F3    0.687831  0.579327  0.969869  -0.155458
    F   F4    0.420673  0.687831  0.969869  -0.155413
    F   F5    0.312169  0.579327  0.030131  -0.155460
    F   F6    0.579327  0.687831  0.030131  -0.155411
    F   F7    0.687831  0.420673  0.030131  -0.155416
    F   F8    0.420673  0.312169  0.030131  -0.155417
    F   F9    0.812169  0.920673  0.469869  -0.155486
    F   F10   0.079327  0.812169  0.469869  -0.155410
    F   F11   0.187831  0.079327  0.469869  -0.155390
    F   F12   0.920673  0.187831  0.469869  -0.155421
    F   F13   0.812169  0.079327  0.530131  -0.155417
    F   F14   0.079327  0.187831  0.530131  -0.155400
    F   F15   0.187831  0.920673  0.530131  -0.155463
    F   F16   0.920673  0.812169  0.530131  -0.155420
    F   F17   0.188045  0.421761  0.969422  -0.151337
    F   F18   0.578239  0.188045  0.969422  -0.151349
    F   F19   0.811955  0.578238  0.969422  -0.151400
    F   F20   0.421761  0.811955  0.969422  -0.151295
    F   F21   0.188045  0.578238  0.030578  -0.151415
    F   F22   0.578239  0.811955  0.030578  -0.151298
    F   F23   0.811955  0.421761  0.030578  -0.151301
    F   F24   0.421761  0.188045  0.030578  -0.151342
    F   F25   0.688045  0.921762  0.469422  -0.151430
    F   F26   0.078239  0.688045  0.469422  -0.151313
    F   F27   0.311955  0.078239  0.469422  -0.151310
    F   F28   0.921762  0.311955  0.469422  -0.151439
    F   F29   0.688045  0.078239  0.530578  -0.151347
    F   F30   0.078239  0.311955  0.530578  -0.151321
    F   F31   0.311955  0.921762  0.530578  -0.151413
    F   F32   0.921761  0.688045  0.530578  -0.151320
    F   F33   0.985010  0.390517  0.073868  -0.213109
    F   F34   0.609483  0.985010  0.073868  -0.213144
    F   F35   0.014990  0.609483  0.073868  -0.213132
    F   F36   0.390517  0.014990  0.073868  -0.213149
    F   F37   0.985010  0.609483  0.926132  -0.213151
    F   F38   0.609483  0.014990  0.926132  -0.213173
    F   F39   0.014990  0.390517  0.926132  -0.213149
    F   F40   0.390517  0.985010  0.926132  -0.213155
    F   F41   0.485010  0.890517  0.573868  -0.213197
    F   F42   0.109483  0.485010  0.573868  -0.213120
    F   F43   0.514990  0.109483  0.573868  -0.213155
    F   F44   0.890517  0.514990  0.573868  -0.213172
    F   F45   0.485010  0.109483  0.426132  -0.213131
    F   F46   0.109483  0.514990  0.426132  -0.213159
    F   F47   0.514990  0.890517  0.426132  -0.213183
    F   F48   0.890517  0.485010  0.426132  -0.213192
