# generated using pymatgen
data_Zn2H15C31N3O10
_symmetry_space_group_name_H-M   'P 1'
_cell_length_a   8.52950400
_cell_length_b   10.67531300
_cell_length_c   13.44350500
_cell_angle_alpha   97.60293000
_cell_angle_beta   90.09560200
_cell_angle_gamma   90.00842400
_symmetry_Int_Tables_number   1
_chemical_formula_structural   Zn2H15C31N3O10
_chemical_formula_sum   'Zn2 H15 C31 N3 O10'
_cell_volume   1213.33691675
_cell_formula_units_Z   1
loop_
 _symmetry_equiv_pos_site_id
 _symmetry_equiv_pos_as_xyz
  1  'x, y, z'
loop_
 _atom_site_type_symbol
 _atom_site_label
 _atom_site_symmetry_multiplicity
 _atom_site_fract_x
 _atom_site_fract_y
 _atom_site_fract_z
 _atom_site_occupancy
  Zn  Zn1  1  0.50981300  0.49030800  0.10541400  1
  Zn  Zn2  1  0.51045200  0.50640000  0.88497000  1
  H  H1  1  0.00661000  0.59235700  0.06114000  1
  H  H2  1  0.00611300  0.40917700  0.94001700  1
  H  H3  1  0.26515200  0.89830700  0.98325300  1
  H  H4  1  0.26776500  0.08892700  0.98193300  1
  H  H5  1  0.62203500  0.10149700  0.97581500  1
  H  H6  1  0.51175900  0.71192100  0.76584900  1
  H  H7  1  0.51545300  0.18451700  0.38907100  1
  H  H8  1  0.51438400  0.19857400  0.56742000  1
  H  H9  1  0.51127500  0.71492000  0.58772800  1
  H  H10  1  0.53108500  0.70364600  0.43349600  1
  H  H11  1  0.51032400  0.31570900  0.72701500  1
  H  H12  1  0.53070500  0.68149100  0.25606200  1
  H  H13  1  0.20708800  0.02825400  0.26552600  1
  H  H14  1  0.41380400  0.01078800  0.23713100  1
  H  H15  1  0.27844800  0.05422200  0.14383300  1
  C  C1  1  0.00847000  0.68962500  0.04710000  1
  C  C2  1  0.14883800  0.74559800  0.02973700  1
  C  C3  1  0.15201000  0.86488400  0.00263500  1
  C  C4  1  0.86994500  0.74982200  0.03147700  1
  C  C5  1  0.87224800  0.87330900  0.00972200  1
  C  C6  1  0.01420700  0.93353400  0.99834400  1
  C  C7  1  0.01441900  0.05922200  0.97993300  1
  C  C8  1  0.15288600  0.12674400  0.97321100  1
  C  C9  1  0.14879200  0.25095300  0.95791500  1
  C  C10  1  0.73378000  0.05594900  0.98298400  1
  C  C11  1  0.87216100  0.12107200  0.97400000  1
  C  C12  1  0.86982500  0.24746900  0.95883100  1
  C  C13  1  0.00815600  0.30976600  0.94761800  1
  C  C14  1  0.28972000  0.66834600  0.01963100  1
  C  C15  1  0.29051400  0.32739500  0.96965400  1
  C  C16  1  0.72851900  0.32555200  0.97018300  1
  C  C17  1  0.72785700  0.67215100  0.02066900  1
  C  C18  1  0.51078800  0.40321100  0.69480100  1
  C  C19  1  0.51189500  0.62336500  0.71645600  1
  C  C20  1  0.51252200  0.62391400  0.61362300  1
  C  C21  1  0.51197600  0.51057100  0.54909000  1
  C  C22  1  0.51048800  0.40004700  0.59211300  1
  C  C23  1  0.52107800  0.60924500  0.39485400  1
  C  C24  1  0.51167800  0.50350500  0.44403500  1
  C  C25  1  0.50196900  0.38670700  0.38544000  1
  C  C26  1  0.50675600  0.27759400  0.43097200  1
  C  C27  1  0.51074100  0.28474900  0.53335000  1
  C  C28  1  0.52300900  0.59676400  0.29157300  1
  C  C29  1  0.49187000  0.37837200  0.28131500  1
  C  C30  1  0.44668200  0.25657400  0.22458500  1
  C  C31  1  0.30627000  0.06505000  0.22468800  1
  N  N1  1  0.73625400  0.93452700  0.00018100  1
  N  N2  1  0.51089700  0.51370500  0.75543400  1
  N  N3  1  0.51021700  0.48298700  0.23524900  1
  O  O1  1  0.34114100  0.63331800  0.92826000  1
  O  O2  1  0.34512800  0.62448800  0.09945700  1
  O  O3  1  0.34102800  0.36278800  0.06142500  1
  O  O4  1  0.34612400  0.37192000  0.89048600  1
  O  O5  1  0.67932100  0.36350500  0.06163300  1
  O  O6  1  0.67463600  0.37184600  0.89117500  1
  O  O7  1  0.67862700  0.63442700  0.92910600  1
  O  O8  1  0.67362500  0.62543500  0.09951700  1
  O  O9  1  0.52143700  0.21067200  0.15172200  1
  O  O10  1  0.32929500  0.19012700  0.25979800  1
