# Generated by REPEAT Assigner based on pymatgen
data_DB0-m3_o11_o28_f0_pcu.sym.54_sqe
_audit_creation_date              2022-05-24
_audit_creation_method            REPEAT_Assigner
_cell_length_a                    23.409960
_cell_length_b                    11.134456
_cell_length_c                    9.990967
_cell_angle_alpha                 89.997393
_cell_angle_beta                  89.981569
_cell_angle_gamma                 90.011313
_cell_volume                      2604.216922
_symmetry_space_group_name_H-M    P1
_symmetry_Int_Tables_number       1
loop_
    _symmetry_equiv_pos_site_id
    _symmetry_equiv_pos_as_xyz
    1  x,y,z
loop_
    _atom_site_type_symbol
    _atom_site_label
    _atom_site_fract_x
    _atom_site_fract_y
    _atom_site_fract_z
    _atom_type_partial_charge
    O   O1   0.492797  0.339307  0.606366  -0.662575
    O   O2   0.492564  0.340820  0.375304  -0.693311
    C   C1   0.492463  0.284095  0.490923  0.787983
    O   O3   0.409087  0.520472  0.617550  -0.641620
    O   O4   0.407598  0.519644  0.386931  -0.668070
    C   C2   0.381596  0.520209  0.503111  0.733962
    Zn  Zn1  0.494501  0.516667  0.650196  0.995141
    Zn  Zn2  0.492291  0.521050  0.345483  1.094339
    O   O5   0.494567  0.696638  0.620176  -0.645067
    O   O6   0.493311  0.698704  0.389057  -0.688569
    O   O7   0.579270  0.516675  0.609118  -0.505073
    O   O8   0.577739  0.518574  0.377638  -0.592347
    C   C3   0.494146  0.753701  0.505054  0.805393
    C   C4   0.605136  0.516853  0.492347  0.543298
    C   C5   0.874754  0.619951  0.500004  0.438539
    N   N1   0.846714  0.514655  0.489194  -0.137086
    C   C6   0.875482  0.410052  0.481258  0.445992
    C   C7   0.934567  0.409282  0.483168  -0.096000
    C   C8   0.963803  0.516044  0.495438  0.090561
    C   C9   0.933817  0.622129  0.504291  -0.113541
    C   C10  0.964599  0.302770  0.472956  -0.069069
    C   C11  0.023471  0.303580  0.474728  -0.077091
    C   C12  0.052732  0.410805  0.487895  -0.088642
    C   C13  0.022736  0.516703  0.498943  0.090429
    C   C14  0.051963  0.623264  0.513357  -0.094237
    C   C15  0.021927  0.729820  0.523066  -0.078780
    C   C16  0.963080  0.729300  0.518033  -0.049098
    C   C17  0.111802  0.413141  0.490040  0.443194
    N   N2   0.139835  0.518050  0.504922  -0.173780
    C   C18  0.111044  0.622304  0.517160  0.451471
    O   O9   0.844919  0.722679  0.509542  -0.483281
    O   O10  0.846388  0.306554  0.469454  -0.497318
    H   H1   0.942745  0.217754  0.463028  0.140384
    H   H2   0.045937  0.219173  0.466083  0.137226
    O   O11  0.141620  0.310483  0.479288  -0.480489
    O   O12  0.140135  0.725698  0.530067  -0.484360
    H   H3   0.043771  0.814730  0.534177  0.138739
    H   H4   0.940623  0.813809  0.525471  0.126992
    C   C19  0.230227  0.491064  0.389736  -0.189232
    H   H5   0.207242  0.469165  0.299126  0.131910
    C   C20  0.289084  0.492712  0.388887  -0.045441
    H   H6   0.311241  0.470771  0.297200  0.098272
    C   C21  0.318964  0.519966  0.504372  -0.076618
    C   C22  0.289273  0.546876  0.620253  -0.090612
    H   H7   0.311667  0.569293  0.711425  0.118902
    C   C23  0.230324  0.547468  0.620092  -0.166781
    H   H8   0.207393  0.569017  0.710910  0.125102
    C   C24  0.200697  0.518888  0.505042  0.246851
    C   C25  0.756410  0.466559  0.596062  -0.146679
    H   H9   0.779451  0.429708  0.680349  0.123557
    C   C26  0.697544  0.468032  0.597392  -0.053332
    H   H10  0.675198  0.429896  0.681874  0.083401
    C   C27  0.667676  0.514810  0.490159  0.009575
    C   C28  0.697216  0.559596  0.381229  -0.103218
    H   H11  0.674594  0.596829  0.296567  0.106320
    C   C29  0.756155  0.560413  0.381334  -0.158580
    H   H12  0.779025  0.596924  0.296563  0.128286
    C   C30  0.785858  0.513753  0.488687  0.182771
    C   C31  0.493376  0.949921  0.393750  0.019500
    C   C32  0.494621  0.885392  0.507363  -0.385523
    H   H13  0.492402  0.903559  0.298465  0.079405
    H   H14  0.496332  0.926696  0.604946  0.205344
    C   C33  0.493763  0.082989  0.388168  -0.022927
    C   C34  0.491722  0.152698  0.496858  -0.311794
    H   H15  0.495528  0.124592  0.290207  0.095736
    H   H16  0.489418  0.115125  0.596176  0.147528
    C   C35  0.534699  0.556210  0.929456  0.178800
    N   N3   0.496601  0.510700  0.850496  -0.259465
    C   C36  0.536299  0.527515  0.074133  -0.002605
    N   N4   0.490654  0.528916  0.145444  -0.253362
    H   H17  0.577395  0.517727  0.122490  0.123109
    H   H18  0.454576  0.558910  0.097281  0.217368
    C   C37  0.577690  0.640579  0.879615  0.163824
    C   C38  0.562637  0.757353  0.850107  -0.138395
    C   C39  0.603694  0.838913  0.810776  -0.206858
    C   C40  0.660282  0.804468  0.803744  0.228625
    C   C41  0.705111  0.891559  0.761770  -0.358376
    C   C42  0.675600  0.688901  0.838012  -0.088376
    C   C43  0.634466  0.607577  0.877366  -0.286229
    H   H19  0.518630  0.785564  0.859308  0.102722
    H   H20  0.591201  0.929881  0.786916  0.133200
    H   H21  0.685742  0.979963  0.738472  0.093942
    H   H22  0.727214  0.856999  0.671443  0.133785
    H   H23  0.736562  0.902619  0.843845  0.090123
    H   H24  0.719967  0.662127  0.834913  0.091098
    H   H25  0.646762  0.517613  0.906011  0.155231
    C   C44  0.469496  0.405471  0.898248  0.352981
    C   C45  0.410690  0.401301  0.907141  -0.115489
    C   C46  0.383634  0.297549  0.947968  -0.306572
    C   C47  0.415307  0.196493  0.977983  0.297456
    C   C48  0.386645  0.083709  0.021647  -0.365160
    C   C49  0.473987  0.199558  0.966260  -0.173173
    C   C50  0.501052  0.303379  0.925666  -0.236257
    H   H26  0.385707  0.480152  0.883819  0.110558
    H   H27  0.337581  0.296215  0.955770  0.166618
    H   H28  0.339700  0.096354  0.025354  0.099956
    H   H29  0.402215  0.058453  0.122615  0.112691
    H   H30  0.396851  0.010722  0.949997  0.092989
    H   H31  0.498880  0.120179  0.988105  0.125565
    H   H32  0.546988  0.303871  0.914328  0.123708
