# generated using pymatgen
data_ZnH12C19N7O16
_symmetry_space_group_name_H-M   'P 1'
_cell_length_a   22.59475200
_cell_length_b   22.58021700
_cell_length_c   14.82258400
_cell_angle_alpha   90.00000000
_cell_angle_beta   90.00000000
_cell_angle_gamma   90.00000000
_symmetry_Int_Tables_number   1
_chemical_formula_structural   ZnH12C19N7O16
_chemical_formula_sum   'Zn4 H48 C76 N28 O64'
_cell_volume   7562.39939808
_cell_formula_units_Z   4
loop_
 _symmetry_equiv_pos_site_id
 _symmetry_equiv_pos_as_xyz
  1  'x, y, z'
loop_
 _atom_site_type_symbol
 _atom_site_label
 _atom_site_symmetry_multiplicity
 _atom_site_fract_x
 _atom_site_fract_y
 _atom_site_fract_z
 _atom_site_occupancy
  Zn  Zn1  1  0.00015500  0.49978600  0.60498400  1
  Zn  Zn2  1  0.00066000  0.50024700  0.39946800  1
  Zn  Zn3  1  0.50018400  0.99974400  0.60497000  1
  Zn  Zn4  1  0.50068600  0.00021600  0.39946700  1
  H  H1  1  0.27041500  0.65824600  0.58700000  1
  H  H2  1  0.28021200  0.65893100  0.44005900  1
  H  H3  1  0.27013700  0.34209800  0.58662600  1
  H  H4  1  0.28035900  0.34077700  0.43967000  1
  H  H5  1  0.77043500  0.15825200  0.58711900  1
  H  H6  1  0.78013800  0.15900700  0.44010700  1
  H  H7  1  0.77008600  0.84207400  0.58651900  1
  H  H8  1  0.78035300  0.84085900  0.43951100  1
  H  H9  1  0.77189000  0.28182700  0.35803900  1
  H  H10  1  0.79314000  0.27998700  0.64277600  1
  H  H11  1  0.77212400  0.71775900  0.35837400  1
  H  H12  1  0.79282000  0.72056400  0.64316000  1
  H  H13  1  0.27186700  0.78170500  0.35782200  1
  H  H14  1  0.29309200  0.77999700  0.64256400  1
  H  H15  1  0.27210400  0.21764500  0.35860800  1
  H  H16  1  0.29290700  0.22060500  0.64339500  1
  H  H17  1  0.72690600  0.34098900  0.57054900  1
  H  H18  1  0.72633000  0.35056400  0.45034100  1
  H  H19  1  0.72678000  0.65918600  0.57083000  1
  H  H20  1  0.72658400  0.64934400  0.45067000  1
  H  H21  1  0.22691900  0.84103800  0.57013900  1
  H  H22  1  0.22641300  0.85049200  0.44991100  1
  H  H23  1  0.22681300  0.15926300  0.57129200  1
  H  H24  1  0.22654900  0.14926200  0.45116800  1
  H  H25  1  0.15046100  0.77643600  0.54983200  1
  H  H26  1  0.16062600  0.77636500  0.43175700  1
  H  H27  1  0.15037600  0.22375100  0.54993800  1
  H  H28  1  0.16077600  0.22330400  0.43189900  1
  H  H29  1  0.65045400  0.27641000  0.55022400  1
  H  H30  1  0.66054500  0.27642000  0.43213800  1
  H  H31  1  0.65035800  0.72372600  0.54957300  1
  H  H32  1  0.66077500  0.72335300  0.43156800  1
  H  H33  1  0.06938700  0.43828100  0.92212000  1
  H  H34  1  0.07964400  0.45921600  0.06867500  1
  H  H35  1  0.07933000  0.54079300  0.93492500  1
  H  H36  1  0.06975000  0.56173700  0.08158800  1
  H  H37  1  0.56976400  0.93842600  0.92208000  1
  H  H38  1  0.57993500  0.95909700  0.06872300  1
  H  H39  1  0.57964200  0.04086500  0.93484600  1
  H  H40  1  0.57017100  0.06154900  0.08160000  1
  H  H41  1  0.00061000  0.59812500  0.06612600  1
  H  H42  1  0.02127700  0.59156000  0.91395600  1
  H  H43  1  0.02168600  0.40844800  0.09026300  1
  H  H44  1  0.00033100  0.40188000  0.93831900  1
  H  H45  1  0.50113700  0.09811100  0.06637400  1
  H  H46  1  0.52155000  0.09163500  0.91408400  1
  H  H47  1  0.52190700  0.90835700  0.09011300  1
  H  H48  1  0.50078700  0.90189100  0.93805200  1
  C  C1  1  0.08223600  0.41830700  0.50210100  1
  C  C2  1  0.08224000  0.58171400  0.50314900  1
  C  C3  1  0.58226700  0.91828900  0.50212000  1
  C  C4  1  0.58225100  0.08169700  0.50311400  1
  C  C5  1  0.91862900  0.41826000  0.50128000  1
  C  C6  1  0.91864600  0.58179400  0.50232600  1
  C  C7  1  0.41867200  0.91820300  0.50129600  1
  C  C8  1  0.41864800  0.08173400  0.50230100  1
  C  C9  1  0.79846000  0.25010100  0.58415900  1
  C  C10  1  0.79200400  0.25298300  0.41006800  1
  C  C11  1  0.79824100  0.75025200  0.58433400  1
  C  C12  1  0.79220900  0.74676500  0.41021300  1
  C  C13  1  0.29844100  0.75008900  0.58397500  1
  C  C14  1  0.29202700  0.75290500  0.40987200  1
  C  C15  1  0.29829700  0.25026700  0.58452000  1
  C  C16  1  0.29219600  0.24668700  0.41040900  1
  C  C17  1  0.25327100  0.69806400  0.42232000  1
  C  C18  1  0.25011200  0.70285900  0.58671700  1
  C  C19  1  0.25344400  0.30158300  0.42215500  1
  C  C20  1  0.24989000  0.29745800  0.58659900  1
  C  C21  1  0.75321700  0.19816600  0.42246000  1
  C  C22  1  0.75012900  0.20286200  0.58689500  1
  C  C23  1  0.75345500  0.80165600  0.42196400  1
  C  C24  1  0.74984800  0.79743200  0.58642200  1
  C  C25  1  0.12742700  0.62633400  0.50343300  1
  C  C26  1  0.12741700  0.37367100  0.50216600  1
  C  C27  1  0.62743400  0.12633000  0.50345000  1
  C  C28  1  0.62743900  0.87366400  0.50213600  1
  C  C29  1  0.79180500  0.28818700  0.49913900  1
  C  C30  1  0.79184200  0.71187800  0.49956600  1
  C  C31  1  0.29183500  0.78814500  0.49891500  1
  C  C32  1  0.29186100  0.21184100  0.49980300  1
  C  C33  1  0.21196500  0.70879600  0.50206900  1
  C  C34  1  0.21195400  0.29118600  0.50177400  1
  C  C35  1  0.71195000  0.20882900  0.50227000  1
  C  C36  1  0.71195600  0.79119700  0.50156100  1
  C  C37  1  0.18413700  0.77043000  0.49644200  1
  C  C38  1  0.18415300  0.22952600  0.49663900  1
  C  C39  1  0.68409900  0.27045000  0.49677600  1
  C  C40  1  0.68414900  0.72953900  0.49631600  1
  C  C41  1  0.73161100  0.31759200  0.50520600  1
  C  C42  1  0.73166000  0.68244300  0.50540000  1
  C  C43  1  0.23165200  0.81757300  0.50486000  1
  C  C44  1  0.23166800  0.18243400  0.50578600  1
  C  C45  1  0.16552600  0.66366100  0.50305800  1
  C  C46  1  0.16551000  0.33633100  0.50208300  1
  C  C47  1  0.66552700  0.16367000  0.50317500  1
  C  C48  1  0.66552600  0.83633000  0.50195900  1
  C  C49  1  0.83695500  0.33466900  0.49979700  1
  C  C50  1  0.83702500  0.66543600  0.50082400  1
  C  C51  1  0.33701500  0.83460200  0.49963100  1
  C  C52  1  0.33703100  0.16537500  0.50100700  1
  C  C53  1  0.87410300  0.37296900  0.50069300  1
  C  C54  1  0.87416200  0.62712700  0.50197300  1
  C  C55  1  0.37416600  0.87289700  0.50064400  1
  C  C56  1  0.37415900  0.12705700  0.50202700  1
  C  C57  1  0.03236500  0.45000400  0.05424900  1
  C  C58  1  0.02500600  0.44289000  0.95327200  1
  C  C59  1  0.02522900  0.55712200  0.05090900  1
  C  C60  1  0.03211800  0.55000400  0.94985700  1
  C  C61  1  0.53266400  0.94993700  0.05420600  1
  C  C62  1  0.52536700  0.94293800  0.95318600  1
  C  C63  1  0.52562900  0.05705600  0.05097300  1
  C  C64  1  0.53244600  0.05005000  0.94987400  1
  C  C65  1  0.99519400  0.50196000  0.08788600  1
  C  C66  1  0.99479200  0.49804900  0.91661300  1
  C  C67  1  0.49551700  0.00189700  0.08787600  1
  C  C68  1  0.49511000  0.99811200  0.91660100  1
  C  C69  1  0.92955100  0.50213000  0.94999300  1
  C  C70  1  0.92979700  0.49788200  0.05520800  1
  C  C71  1  0.42988700  0.00224200  0.95001900  1
  C  C72  1  0.43013600  0.99780400  0.05516400  1
  C  C73  1  0.99774400  0.49876200  0.81783100  1
  C  C74  1  0.99856600  0.50125600  0.18663200  1
  C  C75  1  0.49794400  0.99880800  0.81781500  1
  C  C76  1  0.49876600  0.00117900  0.18663000  1
  N  N1  1  0.99965600  0.49935900  0.73983900  1
  N  N2  1  0.00068300  0.50067300  0.26461100  1
  N  N3  1  0.49970400  0.99935400  0.73981900  1
  N  N4  1  0.50072700  0.00060600  0.26461500  1
  N  N5  1  0.85740200  0.22437000  0.59189200  1
  N  N6  1  0.85146300  0.23805700  0.37813100  1
  N  N7  1  0.85712500  0.77610200  0.59217100  1
  N  N8  1  0.85171500  0.76145100  0.37827100  1
  N  N9  1  0.35737500  0.72434400  0.59177400  1
  N  N10  1  0.35148600  0.73803700  0.37789700  1
  N  N11  1  0.35718300  0.27612800  0.59226700  1
  N  N12  1  0.35169700  0.26141100  0.37845400  1
  N  N13  1  0.22108700  0.68333700  0.34002600  1
  N  N14  1  0.21501000  0.70691300  0.66910500  1
  N  N15  1  0.22145800  0.31597300  0.33956000  1
  N  N16  1  0.21457300  0.29365700  0.66881900  1
  N  N17  1  0.72098500  0.18353300  0.34017800  1
  N  N18  1  0.71505400  0.20688700  0.66932200  1
  N  N19  1  0.72147000  0.81603900  0.33935100  1
  N  N20  1  0.71449100  0.79357100  0.66858900  1
  N  N21  1  0.90425500  0.44190400  0.08759700  1
  N  N22  1  0.89218800  0.45466000  0.91297900  1
  N  N23  1  0.89260200  0.54535100  0.09262300  1
  N  N24  1  0.90386000  0.55810900  0.91788400  1
  N  N25  1  0.40464800  0.94173600  0.08731100  1
  N  N26  1  0.39243700  0.95490600  0.91283000  1
  N  N27  1  0.39288600  0.04516000  0.09275900  1
  N  N28  1  0.40427900  0.05832700  0.91816800  1
  O  O1  1  0.06257400  0.43754100  0.58007900  1
  O  O2  1  0.06297700  0.43784900  0.42406600  1
  O  O3  1  0.06257800  0.56218500  0.58096700  1
  O  O4  1  0.06298400  0.56248000  0.42495100  1
  O  O5  1  0.56262000  0.93751400  0.58009900  1
  O  O6  1  0.56301800  0.93784300  0.42410200  1
  O  O7  1  0.56259900  0.06214200  0.58091200  1
  O  O8  1  0.56300500  0.06245800  0.42491600  1
  O  O9  1  0.93784200  0.43754800  0.57945000  1
  O  O10  1  0.93826000  0.43785500  0.42354300  1
  O  O11  1  0.93785600  0.56220100  0.58033500  1
  O  O12  1  0.93827100  0.56249600  0.42442600  1
  O  O13  1  0.43789100  0.93747300  0.57947800  1
  O  O14  1  0.43831000  0.93780400  0.42357000  1
  O  O15  1  0.43787300  0.06214200  0.58029400  1
  O  O16  1  0.43828300  0.06246000  0.42438600  1
  O  O17  1  0.87292600  0.17851300  0.54447000  1
  O  O18  1  0.89212200  0.24274600  0.65598000  1
  O  O19  1  0.88489300  0.28004000  0.34632700  1
  O  O20  1  0.86402000  0.18376500  0.35591400  1
  O  O21  1  0.87267700  0.82183200  0.54448400  1
  O  O22  1  0.89174600  0.75797400  0.65654700  1
  O  O23  1  0.86446000  0.81568300  0.35597000  1
  O  O24  1  0.88488100  0.71931800  0.34628400  1
  O  O25  1  0.37292300  0.67849900  0.54434100  1
  O  O26  1  0.39206700  0.74270500  0.65590700  1
  O  O27  1  0.38476900  0.78003200  0.34577700  1
  O  O28  1  0.36414900  0.68372600  0.35593100  1
  O  O29  1  0.37272400  0.32182100  0.54448500  1
  O  O30  1  0.39182400  0.25805400  0.65665300  1
  O  O31  1  0.36433000  0.31560900  0.35581300  1
  O  O32  1  0.38501500  0.21927300  0.34685200  1
  O  O33  1  0.22821800  0.63119200  0.30446800  1
  O  O34  1  0.18908500  0.72238700  0.29785100  1
  O  O35  1  0.21046500  0.66039500  0.72031100  1
  O  O36  1  0.19420200  0.75723100  0.69775900  1
  O  O37  1  0.22875600  0.36794200  0.30348500  1
  O  O38  1  0.18957000  0.27673900  0.29757900  1
  O  O39  1  0.20967900  0.34040000  0.71947400  1
  O  O40  1  0.19391100  0.24339200  0.69793000  1
  O  O41  1  0.72803000  0.13139600  0.30454700  1
  O  O42  1  0.68901000  0.22265200  0.29810300  1
  O  O43  1  0.71051700  0.16035100  0.72049300  1
  O  O44  1  0.69430200  0.25720200  0.69807900  1
  O  O45  1  0.72879900  0.86798400  0.30321200  1
  O  O46  1  0.68956200  0.77681100  0.29739400  1
  O  O47  1  0.70962000  0.84026200  0.71936000  1
  O  O48  1  0.69377300  0.74328900  0.69754300  1
  O  O49  1  0.91985400  0.39048600  0.05588400  1
  O  O50  1  0.86739600  0.44341500  0.15494800  1
  O  O51  1  0.91143700  0.41768900  0.85241700  1
  O  O52  1  0.83614700  0.45357500  0.93334600  1
  O  O53  1  0.83647100  0.54643500  0.07284200  1
  O  O54  1  0.91211500  0.58230900  0.15301000  1
  O  O55  1  0.86666000  0.55659800  0.85097100  1
  O  O56  1  0.91961000  0.60952600  0.94942600  1
  O  O57  1  0.42010300  0.89039800  0.05512900  1
  O  O58  1  0.36810000  0.94306200  0.15506000  1
  O  O59  1  0.41173400  0.91770400  0.85263800  1
  O  O60  1  0.33636000  0.95399200  0.93296800  1
  O  O61  1  0.33671500  0.04609200  0.07324300  1
  O  O62  1  0.41247900  0.08234800  0.15275000  1
  O  O63  1  0.36733000  0.05702200  0.85092600  1
  O  O64  1  0.41993600  0.10965500  0.95016000  1
