# generated using pymatgen
data_Zn2H25C41N3O10
_symmetry_space_group_name_H-M   'P 1'
_cell_length_a   12.37165500
_cell_length_b   14.25018400
_cell_length_c   6.55341600
_cell_angle_alpha   90.00000000
_cell_angle_beta   80.11782900
_cell_angle_gamma   90.00000000
_symmetry_Int_Tables_number   1
_chemical_formula_structural   Zn2H25C41N3O10
_chemical_formula_sum   'Zn2 H25 C41 N3 O10'
_cell_volume   1138.21421381
_cell_formula_units_Z   1
loop_
 _symmetry_equiv_pos_site_id
 _symmetry_equiv_pos_as_xyz
  1  'x, y, z'
loop_
 _atom_site_type_symbol
 _atom_site_label
 _atom_site_symmetry_multiplicity
 _atom_site_fract_x
 _atom_site_fract_y
 _atom_site_fract_z
 _atom_site_occupancy
  Zn  Zn1  1  0.49777700  0.10392000  0.51875400  1
  Zn  Zn2  1  0.49212400  0.89380900  0.49045600  1
  H  H1  1  0.14582000  0.05174900  0.48021900  1
  H  H2  1  0.85166000  0.95483000  0.52986400  1
  H  H3  1  0.97295900  0.04568800  0.35872600  1
  H  H4  1  0.83996400  0.02361900  0.26572500  1
  H  H5  1  0.04656400  0.94125200  0.48082600  1
  H  H6  1  0.62255500  0.57907700  0.22396600  1
  H  H7  1  0.64149900  0.42368100  0.27864200  1
  H  H8  1  0.50877900  0.43567000  0.83036200  1
  H  H9  1  0.53385400  0.59263700  0.79591900  1
  H  H10  1  0.63908800  0.42241600  0.65836600  1
  H  H11  1  0.64892700  0.57757200  0.58782600  1
  H  H12  1  0.33830700  0.41934300  0.41990500  1
  H  H13  1  0.32505500  0.57565600  0.43962700  1
  H  H14  1  0.51555100  0.40630600  0.17781300  1
  H  H15  1  0.48554900  0.56269100  0.16691700  1
  H  H16  1  0.19312500  0.35255000  0.09618100  1
  H  H17  1  0.04184400  0.23875900  0.13286200  1
  H  H18  1  0.99450200  0.16140200  0.82446200  1
  H  H19  1  0.09929700  0.19742600  0.47971700  1
  H  H20  1  0.25025700  0.30941000  0.44152700  1
  H  H21  1  0.22132000  0.63318500  0.13572500  1
  H  H22  1  0.03532900  0.58471200  0.29670000  1
  H  H23  1  0.92852400  0.47961100  0.10944600  1
  H  H24  1  0.00771700  0.42296900  0.76122900  1
  H  H25  1  0.19370600  0.47144300  0.60024700  1
  C  C1  1  0.24136200  0.01473700  0.18975000  1
  C  C2  1  0.14462500  0.03411100  0.32035400  1
  C  C3  1  0.04620600  0.02958800  0.25048700  1
  C  C4  1  0.24012800  0.99384800  0.98444800  1
  C  C5  1  0.14091300  0.98723900  0.91489800  1
  C  C6  1  0.04342600  0.00411000  0.04791000  1
  C  C7  1  0.94507700  0.99746300  0.97436400  1
  C  C8  1  0.84547900  0.01098600  0.10250000  1
  C  C9  1  0.74867300  0.00386900  0.02698200  1
  C  C10  1  0.04526900  0.95940100  0.64125400  1
  C  C11  1  0.94647000  0.97517100  0.76959200  1
  C  C12  1  0.84948700  0.96939200  0.69237100  1
  C  C13  1  0.74996000  0.98418500  0.82033700  1
  C  C14  1  0.34084000  0.00913700  0.27993500  1
  C  C15  1  0.34088900  0.99395000  0.83097500  1
  C  C16  1  0.65010500  0.98881800  0.72870000  1
  C  C17  1  0.64801400  0.00370500  0.17830000  1
  C  C18  1  0.55318800  0.44201000  0.29869500  1
  C  C19  1  0.54095800  0.54723400  0.27892000  1
  C  C20  1  0.55523800  0.45219900  0.67436200  1
  C  C21  1  0.56247500  0.55749700  0.64549700  1
  C  C22  1  0.49656900  0.41058300  0.51133200  1
  C  C23  1  0.49237800  0.58729200  0.48835000  1
  C  C24  1  0.37662300  0.55029900  0.55097500  1
  C  C25  1  0.37861700  0.44403900  0.54797900  1
  C  C26  1  0.49025600  0.68981100  0.47752800  1
  C  C27  1  0.49892800  0.30808600  0.52296500  1
  C  C28  1  0.32083500  0.40806500  0.75172300  1
  C  C29  1  0.23090900  0.33988700  0.76707300  1
  C  C30  1  0.17246000  0.31868700  0.96036100  1
  C  C31  1  0.08754200  0.25486000  0.98108500  1
  C  C32  1  0.06098500  0.21155100  0.80835300  1
  C  C33  1  0.11964800  0.23189300  0.61510600  1
  C  C34  1  0.20457200  0.29581100  0.59403300  1
  C  C35  1  0.32921800  0.58407400  0.76257000  1
  C  C36  1  0.21878600  0.55524000  0.85824700  1
  C  C37  1  0.17439400  0.58698900  0.05345000  1
  C  C38  1  0.07013000  0.55982100  0.14368400  1
  C  C39  1  0.01025800  0.50090500  0.03871500  1
  C  C40  1  0.05465100  0.46915300  0.84351500  1
  C  C41  1  0.15891300  0.49632200  0.75327900  1
  N  N1  1  0.14006700  0.96569500  0.71516000  1
  N  N2  1  0.48926800  0.77097000  0.47302300  1
  N  N3  1  0.50013500  0.22695400  0.52914800  1
  O  O1  1  0.37583600  0.92545000  0.32114600  1
  O  O2  1  0.37910600  0.08691700  0.34687200  1
  O  O3  1  0.38106000  0.07600800  0.76568300  1
  O  O4  1  0.37502900  0.91448600  0.74095900  1
  O  O5  1  0.61409600  0.07219400  0.68861700  1
  O  O6  1  0.61093000  0.91099500  0.66301300  1
  O  O7  1  0.60869800  0.92154600  0.24408400  1
  O  O8  1  0.61473500  0.08331600  0.26882100  1
  O  O9  1  0.34809800  0.43723900  0.91023000  1
  O  O10  1  0.38180600  0.63660600  0.85495900  1
