# generated using pymatgen
data_ZnH12C19N4O11
_symmetry_space_group_name_H-M   'P 1'
_cell_length_a   24.25552100
_cell_length_b   24.20417900
_cell_length_c   15.99294400
_cell_angle_alpha   90.00000000
_cell_angle_beta   91.27070500
_cell_angle_gamma   90.00000000
_symmetry_Int_Tables_number   1
_chemical_formula_structural   ZnH12C19N4O11
_chemical_formula_sum   'Zn4 H48 C76 N16 O44'
_cell_volume   9386.90807089
_cell_formula_units_Z   4
loop_
 _symmetry_equiv_pos_site_id
 _symmetry_equiv_pos_as_xyz
  1  'x, y, z'
loop_
 _atom_site_type_symbol
 _atom_site_label
 _atom_site_symmetry_multiplicity
 _atom_site_fract_x
 _atom_site_fract_y
 _atom_site_fract_z
 _atom_site_occupancy
  Zn  Zn1  1  0.49498500  0.99940900  0.59445900  1
  Zn  Zn2  1  0.50501500  0.99940900  0.40554000  1
  Zn  Zn3  1  0.99498500  0.49940900  0.59445900  1
  Zn  Zn4  1  0.00501500  0.49940900  0.40554000  1
  H  H1  1  0.36466700  0.11846200  0.61381500  1
  H  H2  1  0.63922500  0.88447400  0.38781900  1
  H  H3  1  0.63533300  0.11846300  0.38618500  1
  H  H4  1  0.36077500  0.88447400  0.61218000  1
  H  H5  1  0.86466700  0.61846300  0.61381500  1
  H  H6  1  0.13922500  0.38447400  0.38781900  1
  H  H7  1  0.13533300  0.61846300  0.38618500  1
  H  H8  1  0.86077500  0.38447400  0.61218000  1
  H  H9  1  0.29569600  0.18887700  0.60745100  1
  H  H10  1  0.70832100  0.81408200  0.39412000  1
  H  H11  1  0.70430400  0.18887700  0.39254800  1
  H  H12  1  0.29167900  0.81408200  0.60588000  1
  H  H13  1  0.79569600  0.68887700  0.60745100  1
  H  H14  1  0.20832100  0.31408200  0.39412000  1
  H  H15  1  0.20430400  0.68887700  0.39254800  1
  H  H16  1  0.79167900  0.31408200  0.60588000  1
  H  H17  1  0.60243800  0.99370900  0.12934800  1
  H  H18  1  0.39756200  0.99370900  0.87065100  1
  H  H19  1  0.10243800  0.49370900  0.12934800  1
  H  H20  1  0.89756200  0.49370900  0.87065200  1
  H  H21  1  0.65492400  0.75249200  0.66923400  1
  H  H22  1  0.34062400  0.24172800  0.32449400  1
  H  H23  1  0.34507700  0.75249200  0.33076600  1
  H  H24  1  0.65937600  0.24172800  0.67550600  1
  H  H25  1  0.15492300  0.25249200  0.66923300  1
  H  H26  1  0.84062400  0.74172800  0.32449300  1
  H  H27  1  0.84507700  0.25249200  0.33076600  1
  H  H28  1  0.15937600  0.74172800  0.67550600  1
  H  H29  1  0.57038800  0.83623600  0.66233200  1
  H  H30  1  0.42421300  0.15741200  0.32992900  1
  H  H31  1  0.42961200  0.83623600  0.33766800  1
  H  H32  1  0.57578700  0.15741200  0.67007000  1
  H  H33  1  0.07038800  0.33623600  0.66233200  1
  H  H34  1  0.92421300  0.65741200  0.32993000  1
  H  H35  1  0.92961200  0.33623600  0.33766800  1
  H  H36  1  0.07578700  0.65741200  0.67007000  1
  H  H37  1  0.60186100  0.96851900  0.73297800  1
  H  H38  1  0.39813900  0.96851900  0.26702200  1
  H  H39  1  0.10186100  0.46851900  0.73297800  1
  H  H40  1  0.89813900  0.46851900  0.26702200  1
  H  H41  1  0.59126500  0.04910000  0.89694000  1
  H  H42  1  0.40873500  0.04910000  0.10306000  1
  H  H43  1  0.09126500  0.54910000  0.89694000  1
  H  H44  1  0.90873500  0.54910000  0.10306000  1
  H  H45  1  0.62188000  0.03100700  0.29161000  1
  H  H46  1  0.37812000  0.03100700  0.70839000  1
  H  H47  1  0.12188000  0.53100700  0.29161000  1
  H  H48  1  0.87812000  0.53100700  0.70839000  1
  C  C1  1  0.57592400  0.07645100  0.51070500  1
  C  C2  1  0.42414900  0.92232100  0.48930500  1
  C  C3  1  0.42407600  0.07645100  0.48929400  1
  C  C4  1  0.57585100  0.92232100  0.51069400  1
  C  C5  1  0.07592400  0.57645100  0.51070500  1
  C  C6  1  0.92414900  0.42232100  0.48930500  1
  C  C7  1  0.92407600  0.57645100  0.48929400  1
  C  C8  1  0.07585100  0.42232100  0.51069400  1
  C  C9  1  0.61809600  0.87869700  0.51722600  1
  C  C10  1  0.38175400  0.12003200  0.48262900  1
  C  C11  1  0.38190400  0.87869700  0.48277400  1
  C  C12  1  0.61824600  0.12003200  0.51737100  1
  C  C13  1  0.11809600  0.37869700  0.51722600  1
  C  C14  1  0.88175400  0.62003200  0.48262900  1
  C  C15  1  0.88190400  0.37869700  0.48277400  1
  C  C16  1  0.11824600  0.62003200  0.51737100  1
  C  C17  1  0.64704900  0.86408500  0.44699000  1
  C  C18  1  0.35499500  0.13690400  0.55377200  1
  C  C19  1  0.35295100  0.86408500  0.55300900  1
  C  C20  1  0.64500500  0.13690400  0.44622700  1
  C  C21  1  0.14704900  0.36408500  0.44699000  1
  C  C22  1  0.85499500  0.63690400  0.55377200  1
  C  C23  1  0.85295100  0.36408500  0.55300900  1
  C  C24  1  0.14500500  0.63690400  0.44622700  1
  C  C25  1  0.68693600  0.82348300  0.45096800  1
  C  C26  1  0.31513700  0.17752700  0.54976200  1
  C  C27  1  0.31306400  0.82348300  0.54903100  1
  C  C28  1  0.68486300  0.17752700  0.45023700  1
  C  C29  1  0.18693600  0.32348300  0.45096800  1
  C  C30  1  0.81513700  0.67752700  0.54976200  1
  C  C31  1  0.81306400  0.32348300  0.54903100  1
  C  C32  1  0.18486300  0.67752700  0.45023700  1
  C  C33  1  0.69838300  0.79671000  0.52602600  1
  C  C34  1  0.30154700  0.20213500  0.47376700  1
  C  C35  1  0.30161700  0.79671000  0.47397400  1
  C  C36  1  0.69845300  0.20213500  0.52623200  1
  C  C37  1  0.19838300  0.29671000  0.52602600  1
  C  C38  1  0.80154700  0.70213500  0.47376700  1
  C  C39  1  0.80161700  0.29671000  0.47397400  1
  C  C40  1  0.19845300  0.70213500  0.52623200  1
  C  C41  1  0.66949600  0.81102100  0.59591500  1
  C  C42  1  0.32825600  0.18562100  0.40294700  1
  C  C43  1  0.33050400  0.81102100  0.40408400  1
  C  C44  1  0.67174400  0.18562100  0.59705300  1
  C  C45  1  0.16949600  0.31102100  0.59591500  1
  C  C46  1  0.82825600  0.68562100  0.40294700  1
  C  C47  1  0.83050400  0.31102100  0.40408400  1
  C  C48  1  0.17174400  0.68562100  0.59705300  1
  C  C49  1  0.62953400  0.85147500  0.59210700  1
  C  C50  1  0.36804200  0.14498500  0.40669300  1
  C  C51  1  0.37046600  0.85147500  0.40789200  1
  C  C52  1  0.63195800  0.14498500  0.59330600  1
  C  C53  1  0.12953400  0.35147500  0.59210700  1
  C  C54  1  0.86804200  0.64498500  0.40669400  1
  C  C55  1  0.87046600  0.35147500  0.40789200  1
  C  C56  1  0.13195800  0.64498500  0.59330600  1
  C  C57  1  0.46347100  0.00300300  0.23394900  1
  C  C58  1  0.53652900  0.00300300  0.76605000  1
  C  C59  1  0.96347100  0.50300300  0.23394900  1
  C  C60  1  0.03652900  0.50300300  0.76605000  1
  C  C61  1  0.46497700  0.00375200  0.14773000  1
  C  C62  1  0.53502300  0.00375200  0.85226900  1
  C  C63  1  0.96497700  0.50375200  0.14773000  1
  C  C64  1  0.03502300  0.50375200  0.85226900  1
  C  C65  1  0.51562800  0.99999500  0.10855100  1
  C  C66  1  0.48437200  0.99999500  0.89144800  1
  C  C67  1  0.01562800  0.49999500  0.10855100  1
  C  C68  1  0.98437200  0.49999500  0.89144800  1
  C  C69  1  0.56264400  0.99640800  0.15818600  1
  C  C70  1  0.43735600  0.99640800  0.84181400  1
  C  C71  1  0.06264400  0.49640800  0.15818600  1
  C  C72  1  0.93735600  0.49640800  0.84181400  1
  C  C73  1  0.55950600  0.99629800  0.24409400  1
  C  C74  1  0.44049400  0.99629800  0.75590500  1
  C  C75  1  0.05950600  0.49629800  0.24409400  1
  C  C76  1  0.94049400  0.49629800  0.75590500  1
  N  N1  1  0.73885000  0.75480100  0.53357000  1
  N  N2  1  0.26105200  0.24401700  0.46618500  1
  N  N3  1  0.26115000  0.75480100  0.46643000  1
  N  N4  1  0.73894800  0.24401700  0.53381400  1
  N  N5  1  0.23885000  0.25480100  0.53357000  1
  N  N6  1  0.76105200  0.74401700  0.46618500  1
  N  N7  1  0.76115000  0.25480100  0.46643000  1
  N  N8  1  0.23894800  0.74401700  0.53381400  1
  N  N9  1  0.51021800  0.99944100  0.28087200  1
  N  N10  1  0.48978300  0.99944100  0.71912700  1
  N  N11  1  0.01021800  0.49944100  0.28087200  1
  N  N12  1  0.98978300  0.49944100  0.71912700  1
  N  N13  1  0.52205500  0.99990000  0.02051600  1
  N  N14  1  0.47794500  0.99990000  0.97948400  1
  N  N15  1  0.02205500  0.49990000  0.02051600  1
  N  N16  1  0.97794500  0.49990000  0.97948400  1
  O  O1  1  0.55366800  0.05784300  0.57910300  1
  O  O2  1  0.44627600  0.94101400  0.42081500  1
  O  O3  1  0.44633200  0.05784300  0.42089600  1
  O  O4  1  0.55372400  0.94101400  0.57918500  1
  O  O5  1  0.05366800  0.55784300  0.57910300  1
  O  O6  1  0.94627600  0.44101400  0.42081500  1
  O  O7  1  0.94633200  0.55784300  0.42089600  1
  O  O8  1  0.05372400  0.44101400  0.57918500  1
  O  O9  1  0.56184500  0.05779400  0.43616500  1
  O  O10  1  0.43821700  0.94096200  0.56386000  1
  O  O11  1  0.43815500  0.05779400  0.56383500  1
  O  O12  1  0.56178300  0.94096200  0.43614000  1
  O  O13  1  0.06184500  0.55779400  0.43616500  1
  O  O14  1  0.93821700  0.44096200  0.56386000  1
  O  O15  1  0.93815500  0.55779400  0.56383500  1
  O  O16  1  0.06178300  0.44096200  0.43614000  1
  O  O17  1  0.68035100  0.78449600  0.66985600  1
  O  O18  1  0.31515400  0.20988600  0.32799000  1
  O  O19  1  0.31964900  0.78449600  0.33014400  1
  O  O20  1  0.68484600  0.20988600  0.67201000  1
  O  O21  1  0.18035100  0.28449600  0.66985600  1
  O  O22  1  0.81515400  0.70988600  0.32799000  1
  O  O23  1  0.81964900  0.28449600  0.33014400  1
  O  O24  1  0.18484600  0.70988600  0.67201000  1
  O  O25  1  0.60115100  0.86313400  0.66281600  1
  O  O26  1  0.39363000  0.13056800  0.33461600  1
  O  O27  1  0.39884900  0.86313400  0.33718400  1
  O  O28  1  0.60637000  0.13056900  0.66538300  1
  O  O29  1  0.10115100  0.36313400  0.66281600  1
  O  O30  1  0.89363000  0.63056800  0.33461600  1
  O  O31  1  0.89884900  0.36313400  0.33718400  1
  O  O32  1  0.10637000  0.63056900  0.66538300  1
  O  O33  1  0.58637800  0.00624800  0.72830700  1
  O  O34  1  0.41362200  0.00624800  0.27169300  1
  O  O35  1  0.08637800  0.50624800  0.72830700  1
  O  O36  1  0.91362200  0.50624800  0.27169300  1
  O  O37  1  0.58398500  0.00884700  0.89572200  1
  O  O38  1  0.41601500  0.00884700  0.10427800  1
  O  O39  1  0.08398500  0.50884700  0.89572200  1
  O  O40  1  0.91601500  0.50884700  0.10427800  1
  O  O41  1  0.60681300  0.99300600  0.29174000  1
  O  O42  1  0.39318700  0.99300600  0.70825900  1
  O  O43  1  0.10681300  0.49300600  0.29174000  1
  O  O44  1  0.89318700  0.49300600  0.70825900  1
