# generated using pymatgen
data_CuH17C22N6O7
_symmetry_space_group_name_H-M   'P 1'
_cell_length_a   14.41630900
_cell_length_b   15.59257300
_cell_length_c   16.98091000
_cell_angle_alpha   96.38710200
_cell_angle_beta   89.99593300
_cell_angle_gamma   92.59837900
_symmetry_Int_Tables_number   1
_chemical_formula_structural   CuH17C22N6O7
_chemical_formula_sum   'Cu2 H34 C44 N12 O14'
_cell_volume   3789.45331222
_cell_formula_units_Z   2
loop_
 _symmetry_equiv_pos_site_id
 _symmetry_equiv_pos_as_xyz
  1  'x, y, z'
loop_
 _atom_site_type_symbol
 _atom_site_label
 _atom_site_symmetry_multiplicity
 _atom_site_fract_x
 _atom_site_fract_y
 _atom_site_fract_z
 _atom_site_occupancy
  Cu  Cu1  1  0.50099200  0.41705600  0.50621500  1
  Cu  Cu2  1  0.49870800  0.58879600  0.50838000  1
  H  H1  1  0.51609800  0.38860400  0.74914800  1
  H  H2  1  0.48832900  0.61703600  0.26500500  1
  H  H3  1  0.51273200  0.39327900  0.88948800  1
  H  H4  1  0.48765100  0.61120400  0.12466800  1
  H  H5  1  0.50752300  0.34287300  0.25042900  1
  H  H6  1  0.47977800  0.66052400  0.76488700  1
  H  H7  1  0.60267800  0.30960400  0.59707800  1
  H  H8  1  0.38822200  0.69667400  0.42445400  1
  H  H9  1  0.60272800  0.90618100  0.57299800  1
  H  H10  1  0.42671400  0.09774700  0.41525700  1
  H  H11  1  0.54697800  0.27233700  0.11886200  1
  H  H12  1  0.48091000  0.15629400  0.04129500  1
  H  H13  1  0.39346800  0.18075000  0.97209700  1
  H  H14  1  0.36025500  0.15773800  0.07053400  1
  H  H15  1  0.50571800  0.73880800  0.89741700  1
  H  H16  1  0.42065200  0.83509400  0.97561400  1
  H  H17  1  0.34097100  0.78862900  0.04290300  1
  H  H18  1  0.30247800  0.80499500  0.94454500  1
  H  H19  1  0.61758700  0.09536000  0.64560300  1
  H  H20  1  0.76285200  0.08183400  0.69482000  1
  H  H21  1  0.84496600  0.17049300  0.68349800  1
  H  H22  1  0.83758300  0.07801500  0.60905900  1
  H  H23  1  0.33134900  0.91294500  0.41141700  1
  H  H24  1  0.27627400  0.92258900  0.28661700  1
  H  H25  1  0.29380100  0.83008600  0.21514400  1
  H  H26  1  0.37897000  0.91938700  0.22533800  1
  H  H27  1  0.69018400  0.75165400  0.58303500  1
  H  H28  1  0.74880100  0.75073700  0.70814100  1
  H  H29  1  0.66365000  0.73774000  0.78437500  1
  H  H30  1  0.70131800  0.84484800  0.76290400  1
  H  H31  1  0.41116000  0.23577200  0.33850400  1
  H  H32  1  0.26448100  0.25612200  0.29493200  1
  H  H33  1  0.18552400  0.29991400  0.36989700  1
  H  H34  1  0.19300700  0.18417300  0.34865000  1
  C  C1  1  0.49905100  0.48703200  0.35493400  1
  C  C2  1  0.50010300  0.51871000  0.65968400  1
  C  C3  1  0.32167700  0.49339300  0.50718100  1
  C  C4  1  0.67803300  0.51242600  0.50762000  1
  C  C5  1  0.22209400  0.49031400  0.50718700  1
  C  C6  1  0.77762500  0.51541000  0.50754600  1
  C  C7  1  0.13868500  0.49282000  0.50719600  1
  C  C8  1  0.86102900  0.51279400  0.50746400  1
  C  C9  1  0.04133300  0.49945500  0.50725500  1
  C  C10  1  0.95837600  0.50608100  0.50734400  1
  C  C11  1  0.49808200  0.48033700  0.26809700  1
  C  C12  1  0.49876300  0.52458200  0.74654600  1
  C  C13  1  0.49211100  0.55450700  0.23108600  1
  C  C14  1  0.50717600  0.45039800  0.78322500  1
  C  C15  1  0.49155400  0.55072700  0.14978300  1
  C  C16  1  0.50495200  0.45336100  0.86449000  1
  C  C17  1  0.49640500  0.47179000  0.10391200  1
  C  C18  1  0.49381000  0.53125000  0.91061100  1
  C  C19  1  0.50059000  0.39712500  0.14086100  1
  C  C20  1  0.48416000  0.60548000  0.87397900  1
  C  C21  1  0.50288900  0.40159000  0.22261300  1
  C  C22  1  0.48766100  0.60217600  0.79237800  1
  C  C23  1  0.43475400  0.74332800  0.45791100  1
  C  C24  1  0.56388200  0.26250600  0.55706600  1
  C  C25  1  0.42954500  0.82925900  0.44728000  1
  C  C26  1  0.57572700  0.17611800  0.56193400  1
  C  C27  1  0.48812200  0.88984400  0.48927800  1
  C  C28  1  0.52498600  0.11504500  0.51299600  1
  C  C29  1  0.55319700  0.86201900  0.53991900  1
  C  C30  1  0.46639000  0.14252700  0.45691600  1
  C  C31  1  0.55596600  0.77500700  0.54940500  1
  C  C32  1  0.45676100  0.23002900  0.45353800  1
  C  C33  1  0.42538300  0.28234200  0.06408100  1
  C  C34  1  0.41462600  0.18844700  0.03536700  1
  C  C35  1  0.38943400  0.69865700  0.94992000  1
  C  C36  1  0.36194200  0.78743200  0.97996500  1
  C  C37  1  0.72709000  0.16420200  0.60692300  1
  C  C38  1  0.79718400  0.12078400  0.65141800  1
  C  C39  1  0.38018000  0.83735200  0.31779700  1
  C  C40  1  0.32902400  0.88019100  0.25774300  1
  C  C41  1  0.60857900  0.77606500  0.67786200  1
  C  C42  1  0.68555900  0.77739300  0.73673600  1
  C  C43  1  0.30627900  0.24829500  0.41539200  1
  C  C44  1  0.23302900  0.24697500  0.35317400  1
  N  N1  1  0.49825800  0.46573700  0.02010900  1
  N  N2  1  0.49291500  0.53704100  0.99440400  1
  N  N3  1  0.49591400  0.71707800  0.50925800  1
  N  N4  1  0.50378400  0.28873000  0.50487400  1
  N  N5  1  0.48030400  0.97800700  0.47876900  1
  N  N6  1  0.53462000  0.02667000  0.52162900  1
  N  N7  1  0.50697300  0.31624100  0.09527700  1
  N  N8  1  0.47511100  0.68585900  0.91986900  1
  N  N9  1  0.63546600  0.15069800  0.62028300  1
  N  N10  1  0.36174800  0.85511500  0.39575500  1
  N  N11  1  0.62213800  0.74728900  0.60100300  1
  N  N12  1  0.39685800  0.25716300  0.39655500  1
  O  O1  1  0.50362000  0.41718800  0.39112400  1
  O  O2  1  0.49599300  0.58882300  0.62352300  1
  O  O3  1  0.49504000  0.56414900  0.39321500  1
  O  O4  1  0.50441400  0.44161200  0.62137600  1
  O  O5  1  0.36581300  0.42196300  0.50903300  1
  O  O6  1  0.63390500  0.58386700  0.50558500  1
  O  O7  1  0.36406100  0.56891800  0.50536700  1
  O  O8  1  0.63563600  0.43689500  0.50939100  1
  O  O9  1  0.35947700  0.32800300  0.06002000  1
  O  O10  1  0.33354100  0.63789200  0.95203300  1
  O  O11  1  0.75331600  0.21100100  0.55764000  1
  O  O12  1  0.43970100  0.78705600  0.29588600  1
  O  O13  1  0.53261600  0.80025700  0.69982900  1
  O  O14  1  0.28376800  0.24219500  0.48383300  1
