data_DB0-m3_o160_o96_f0_fsc.sym.13_repeat
_audit_creation_date              2024-02-23
_audit_creation_method            'Materials Studio'
_symmetry_space_group_name_H-M    'P1'
_symmetry_Int_Tables_number       1
_symmetry_cell_setting            triclinic
loop_
_symmetry_equiv_pos_as_xyz
  x,y,z
_cell_length_a                    13.2863
_cell_length_b                    13.2984
_cell_length_c                    16.2714
_cell_angle_alpha                 94.7122
_cell_angle_beta                  90.0460
_cell_angle_gamma                 90.6139
loop_
_atom_site_label
_atom_site_type_symbol
_atom_site_fract_x
_atom_site_fract_y
_atom_site_fract_z
_atom_site_U_iso_or_equiv
_atom_site_adp_type
_atom_site_occupancy
C1     C     0.81866   0.03006   0.21489   0.00000  Uiso   1.00
C2     C     0.75640   0.07185   0.16065   0.00000  Uiso   1.00
C3     C     0.80717   0.07104   0.08648   0.00000  Uiso   1.00
N1     N     0.90084   0.03445   0.09543   0.00000  Uiso   1.00
C4     C     0.90858   0.01100   0.17471   0.00000  Uiso   1.00
C5     C     0.76620   0.09414   0.01509   0.00000  Uiso   1.00
C6     C     0.80876   0.06938   0.93273   0.00000  Uiso   1.00
C7     C     0.75252   0.05375   0.86137   0.00000  Uiso   1.00
C8     C     0.81700   0.03024   0.79792   0.00000  Uiso   1.00
C9     C     0.91303   0.03303   0.83239   0.00000  Uiso   1.00
N2     N     0.90685   0.05831   0.91451   0.00000  Uiso   1.00
C10    C     0.00817   0.01720   0.78758   0.00000  Uiso   1.00
C11    C     0.09206   0.98660   0.82327   0.00000  Uiso   1.00
C12    C     0.18197   0.96734   0.78329   0.00000  Uiso   1.00
C13    C     0.24401   0.92750   0.83828   0.00000  Uiso   1.00
C14    C     0.19364   0.92857   0.91205   0.00000  Uiso   1.00
N3     N     0.09973   0.96421   0.90289   0.00000  Uiso   1.00
C15    C     0.23603   0.90579   0.98283   0.00000  Uiso   1.00
C16    C     0.19331   0.92884   0.06554   0.00000  Uiso   1.00
C17    C     0.24920   0.94341   0.13715   0.00000  Uiso   1.00
C18    C     0.18446   0.96638   0.20062   0.00000  Uiso   1.00
C19    C     0.08845   0.96448   0.16581   0.00000  Uiso   1.00
N4     N     0.09511   0.94021   0.08358   0.00000  Uiso   1.00
C20    C     0.99273   0.98005   0.21023   0.00000  Uiso   1.00
H1     H     0.69029   0.12061   0.01503   0.00000  Uiso   1.00
H2     H     0.00797   0.02545   0.72196   0.00000  Uiso   1.00
H3     H     0.31283   0.88028   0.98095   0.00000  Uiso   1.00
H4     H     0.99282   0.97123   0.27575   0.00000  Uiso   1.00
H5     H     0.96599   0.07447   0.95556   0.00000  Uiso   1.00
H6     H     0.03595   0.92517   0.04236   0.00000  Uiso   1.00
C21    C     0.35091   0.93632   0.14940   0.00000  Uiso   1.00
C22    C     0.38682   0.95187   0.22898   0.00000  Uiso   1.00
C23    C     0.32335   0.97816   0.29492   0.00000  Uiso   1.00
C24    C     0.21968   0.98564   0.28119   0.00000  Uiso   1.00
C25    C     0.78655   0.00802   0.29214   0.00000  Uiso   1.00
C26    C     0.68942   0.03483   0.31399   0.00000  Uiso   1.00
C27    C     0.62993   0.08601   0.26169   0.00000  Uiso   1.00
C28    C     0.66125   0.10302   0.18388   0.00000  Uiso   1.00
C29    C     0.65078   0.06069   0.84921   0.00000  Uiso   1.00
C30    C     0.61483   0.04439   0.76972   0.00000  Uiso   1.00
C31    C     0.67819   0.01716   0.70393   0.00000  Uiso   1.00
C32    C     0.78178   0.00993   0.71754   0.00000  Uiso   1.00
C33    C     0.21473   0.98747   0.70591   0.00000  Uiso   1.00
C34    C     0.31231   0.96066   0.68544   0.00000  Uiso   1.00
C35    C     0.37204   0.91204   0.73961   0.00000  Uiso   1.00
C36    C     0.33958   0.89743   0.81776   0.00000  Uiso   1.00
H7     H     0.40226   0.91701   0.09933   0.00000  Uiso   1.00
H8     H     0.16867   0.00327   0.33191   0.00000  Uiso   1.00
H9     H     0.83372   0.97029   0.33383   0.00000  Uiso   1.00
H10    H     0.55509   0.10920   0.28035   0.00000  Uiso   1.00
H11    H     0.59943   0.08063   0.89914   0.00000  Uiso   1.00
H12    H     0.83271   0.99196   0.66683   0.00000  Uiso   1.00
H13    H     0.16780   0.02373   0.66312   0.00000  Uiso   1.00
H14    H     0.44745   0.88954   0.72208   0.00000  Uiso   1.00
H15    H     0.38913   0.86361   0.86002   0.00000  Uiso   1.00
H16    H     0.46622   0.94302   0.24012   0.00000  Uiso   1.00
H17    H     0.53550   0.05360   0.75853   0.00000  Uiso   1.00
O1     O     0.39079   0.07720   0.41418   0.00000  Uiso   1.00
O2     O     0.41412   0.90595   0.40012   0.00000  Uiso   1.00
C37    C     0.37113   0.98729   0.37721   0.00000  Uiso   1.00
O3     O     0.62181   0.92248   0.40746   0.00000  Uiso   1.00
O4     O     0.59907   0.09439   0.42831   0.00000  Uiso   1.00
C38    C     0.64366   0.01594   0.39203   0.00000  Uiso   1.00
O5     O     0.61102   0.91753   0.58493   0.00000  Uiso   1.00
O6     O     0.58787   0.08946   0.59888   0.00000  Uiso   1.00
C39    C     0.63056   0.00777   0.62175   0.00000  Uiso   1.00
O7     O     0.38015   0.07231   0.59181   0.00000  Uiso   1.00
O8     O     0.40275   0.90074   0.57095   0.00000  Uiso   1.00
C40    C     0.35839   0.97905   0.60740   0.00000  Uiso   1.00
Zn1    Zn    0.51595   0.88624   0.48910   0.00000  Uiso   1.00
Zn2    Zn    0.48576   0.10869   0.51005   0.00000  Uiso   1.00
C41    C     0.56563   0.29147   0.53139   0.00000  Uiso   1.00
N5     N     0.47760   0.24069   0.52063   0.00000  Uiso   1.00
C42    C     0.39351   0.29014   0.50345   0.00000  Uiso   1.00
C43    C     0.39676   0.39277   0.49562   0.00000  Uiso   1.00
C44    C     0.48762   0.44616   0.50402   0.00000  Uiso   1.00
C45    C     0.57198   0.39367   0.52373   0.00000  Uiso   1.00
C46    C     0.41855   0.60772   0.47169   0.00000  Uiso   1.00
C47    C     0.49799   0.54903   0.49297   0.00000  Uiso   1.00
C48    C     0.59126   0.59561   0.50437   0.00000  Uiso   1.00
C49    C     0.67280   0.53972   0.52497   0.00000  Uiso   1.00
N6     N     0.66200   0.44054   0.53357   0.00000  Uiso   1.00
C50    C     0.43252   0.70912   0.46573   0.00000  Uiso   1.00
N7     N     0.52330   0.75411   0.47843   0.00000  Uiso   1.00
C51    C     0.60287   0.69853   0.49741   0.00000  Uiso   1.00
H18    H     0.32339   0.24916   0.49291   0.00000  Uiso   1.00
H19    H     0.67490   0.73493   0.51046   0.00000  Uiso   1.00
H20    H     0.74596   0.57526   0.53403   0.00000  Uiso   1.00
H21    H     0.32665   0.42693   0.48112   0.00000  Uiso   1.00
H22    H     0.34324   0.57912   0.46141   0.00000  Uiso   1.00
H23    H     0.63414   0.25167   0.54215   0.00000  Uiso   1.00
H24    H     0.36666   0.75275   0.45500   0.00000  Uiso   1.00
O9     O     0.59830   0.15121   0.13402   0.00000  Uiso   1.00
H25    H     0.54812   0.09900   0.11452   0.00000  Uiso   1.00
