# Generated by REPEAT Assigner based on pymatgen
data_DB0-m3_o146_o19_f0_fsc.sym.104_sqe
_audit_creation_date              2022-05-24
_audit_creation_method            REPEAT_Assigner
_cell_length_a                    15.629288
_cell_length_b                    11.359534
_cell_length_c                    10.201042
_cell_angle_alpha                 90.157994
_cell_angle_beta                  90.005339
_cell_angle_gamma                 90.000000
_cell_volume                      1811.100682
_symmetry_space_group_name_H-M    P1
_symmetry_Int_Tables_number       1
loop_
    _symmetry_equiv_pos_site_id
    _symmetry_equiv_pos_as_xyz
    1  x,y,z
loop_
    _atom_site_type_symbol
    _atom_site_label
    _atom_site_fract_x
    _atom_site_fract_y
    _atom_site_fract_z
    _atom_type_partial_charge
    C   C1   0.312704  0.753339  0.998893  -0.111997
    C   C2   0.687297  0.246660  0.001107  -0.111995
    C   C3   0.077584  0.940742  0.992101  0.076765
    C   C4   0.922416  0.059258  0.007898  0.076805
    C   C5   0.184193  0.818704  0.105915  -0.152418
    C   C6   0.815808  0.181296  0.894085  -0.152402
    H   H1   0.142561  0.817139  0.190525  0.083922
    H   H2   0.857439  0.182860  0.809474  0.083919
    C   C7   0.291583  0.822439  0.890427  0.054224
    C   C8   0.708417  0.177561  0.109573  0.054228
    C   C9   0.259167  0.755099  0.107154  -0.046202
    C   C10  0.740834  0.244901  0.892846  -0.046205
    H   H3   0.273377  0.702880  0.192779  0.107016
    H   H4   0.726624  0.297119  0.807221  0.107017
    C   C11  0.160506  0.880122  0.995598  0.221466
    C   C12  0.839494  0.119879  0.004402  0.221456
    C   C13  0.214300  0.881598  0.888455  -0.241079
    C   C14  0.785700  0.118402  0.111545  -0.241087
    H   H5   0.196181  0.930646  0.802226  0.109840
    H   H6   0.803820  0.069354  0.197774  0.109844
    C   C15  0.301789  0.266275  0.998044  -0.077335
    C   C16  0.698212  0.733725  0.001956  -0.077356
    C   C17  0.075615  0.062595  0.994068  -0.127759
    C   C18  0.924385  0.937406  0.005934  -0.127804
    C   C19  0.188911  0.171465  0.879738  -0.131559
    C   C20  0.811090  0.828534  0.120262  -0.131591
    H   H7   0.156697  0.153413  0.788081  0.079428
    H   H8   0.843304  0.846587  0.211918  0.079436
    C   C21  0.269198  0.221791  0.113904  -0.052218
    C   C22  0.730802  0.778210  0.886096  -0.052192
    H   H9   0.299123  0.241644  0.206876  0.107308
    H   H10  0.700877  0.758356  0.793124  0.107307
    C   C23  0.261826  0.239423  0.880736  -0.078449
    C   C24  0.738174  0.760578  0.119265  -0.078425
    H   H11  0.285539  0.273347  0.788805  0.106963
    H   H12  0.714462  0.726653  0.211196  0.106961
    C   C25  0.155912  0.128503  0.995376  0.278427
    C   C26  0.844089  0.871495  0.004623  0.278467
    C   C27  0.196534  0.152841  0.112332  -0.258531
    C   C28  0.803466  0.847158  0.887667  -0.258560
    H   H13  0.170395  0.119992  0.203274  0.129044
    H   H14  0.829605  0.880007  0.796726  0.129048
    C   C29  0.001513  0.877502  0.997001  -0.142600
    C   C30  0.998486  0.122499  0.002998  -0.142643
    O   O1   0.595859  0.614761  0.113169  -0.667607
    O   O2   0.404141  0.385239  0.886832  -0.667603
    O   O3   0.593499  0.619425  0.887351  -0.610639
    O   O4   0.406501  0.380575  0.112649  -0.610631
    C   C31  0.624776  0.653560  0.000638  0.725895
    C   C32  0.375225  0.346439  0.999362  0.725893
    O   O5   0.590322  0.374178  0.888248  -0.669664
    O   O6   0.409677  0.625822  0.111751  -0.669662
    O   O7   0.586524  0.371257  0.113438  -0.590440
    O   O8   0.413475  0.628744  0.886562  -0.590441
    C   C33  0.616105  0.331956  0.001219  0.721789
    C   C34  0.383895  0.668043  0.998781  0.721802
    Zn  Zn1  0.501299  0.498844  0.854689  1.056071
    Zn  Zn2  0.498702  0.501155  0.145311  1.056059
    N   N1   0.501282  0.498745  0.682561  -0.106293
    N   N2   0.498717  0.501255  0.317439  -0.106287
    C   C35  0.500525  0.499490  0.569174  0.252543
    C   C36  0.499475  0.500510  0.430826  0.252534
    C   C37  0.349025  0.840881  0.778124  0.343821
    H   H15  0.322162  0.866748  0.684542  0.002066
    O   O9   0.426467  0.843003  0.792549  -0.402661
    C   C38  0.650975  0.159117  0.221876  0.343827
    H   H16  0.677839  0.133252  0.315459  0.002067
    O   O10  0.573533  0.156997  0.207451  -0.402663
    C   C39  0.000975  0.747675  0.987282  0.496667
    H   H17  0.950560  0.696456  0.032389  -0.037600
    O   O11  0.054698  0.695750  0.922546  -0.448201
    C   C40  0.999025  0.252324  0.012719  0.496688
    H   H18  0.049440  0.303543  0.967611  -0.037606
    O   O12  0.945302  0.304250  0.077454  -0.448209
