# Generated by REPEAT Assigner based on pymatgen
data_DB0-m2_o1_o23_f0_pcu.sym.73
_audit_creation_date              2022-05-24
_audit_creation_method            REPEAT_Assigner
_cell_length_a                    10.858361
_cell_length_b                    9.454586
_cell_length_c                    15.869597
_cell_angle_alpha                 90.000000
_cell_angle_beta                  90.000910
_cell_angle_gamma                 90.000000
_cell_volume                      1629.193496
_symmetry_space_group_name_H-M    P1
_symmetry_Int_Tables_number       1
loop_
    _symmetry_equiv_pos_site_id
    _symmetry_equiv_pos_as_xyz
    1  x,y,z
loop_
    _atom_site_type_symbol
    _atom_site_label
    _atom_site_fract_x
    _atom_site_fract_y
    _atom_site_fract_z
    _atom_type_partial_charge
    O   O1   0.314022  0.620803  0.506642  -0.628422
    O   O2   0.314729  0.378635  0.498437  -0.658599
    C   C1   0.256300  0.499639  0.504121  0.812405
    O   O3   0.498027  0.622711  0.381347  -0.664815
    O   O4   0.500526  0.381005  0.380199  -0.638975
    C   C2   0.496653  0.502291  0.341274  0.969056
    Cu  Cu1  0.492780  0.642317  0.503810  0.872963
    Cu  Cu2  0.493803  0.358974  0.502405  0.814873
    O   O5   0.671870  0.623793  0.507413  -0.562141
    O   O6   0.672711  0.379919  0.501381  -0.564506
    O   O7   0.496102  0.621668  0.626224  -0.616400
    O   O8   0.495500  0.377188  0.625005  -0.626524
    C   C3   0.729964  0.501961  0.505503  0.622058
    C   C4   0.492575  0.498946  0.664733  0.831329
    C   C5   0.429431  0.628698  0.049805  -0.072484
    C   C6   0.438283  0.367647  0.050926  -0.087506
    C   C7   0.425044  0.375182  0.956089  -0.217940
    C   C8   0.442225  0.636024  0.954927  -0.294639
    H   H1   0.350152  0.651562  0.926122  0.061920
    H   H2   0.326619  0.389281  0.939427  0.035177
    H   H3   0.330736  0.618023  0.066567  0.049878
    H   H4   0.345730  0.357071  0.079597  0.047101
    H   H5   0.495006  0.274523  0.068234  0.031497
    H   H6   0.466645  0.726935  0.078262  0.067819
    H   H7   0.459244  0.275552  0.927570  0.042572
    H   H8   0.502391  0.726296  0.937702  0.051715
    C   C9   0.495168  0.498122  0.755133  -0.187171
    C   C10  0.499827  0.501534  0.082381  0.434444
    C   C11  0.498805  0.499500  0.923227  0.797555
    C   C12  0.630180  0.488535  0.954928  -0.094914
    C   C13  0.631053  0.506953  0.049811  -0.125953
    C   C14  0.497287  0.498416  0.831048  -0.399111
    C   C15  0.499821  0.502680  0.174714  -0.254980
    C   C16  0.498847  0.503062  0.250724  -0.269100
    H   H9   0.672767  0.610495  0.066048  0.023778
    H   H10  0.686284  0.421219  0.078913  0.044030
    H   H11  0.687748  0.571867  0.925458  0.020279
    H   H12  0.668325  0.383297  0.938453  0.007291
    C   C17  0.055975  0.375350  0.513325  0.071912
    C   C18  0.056730  0.626902  0.506841  0.121160
    H   H13  0.103478  0.276140  0.519985  0.056745
    H   H14  0.104279  0.726996  0.506833  0.027589
    C   C19  0.928992  0.375679  0.512450  -0.185785
    C   C20  0.929728  0.627566  0.506405  -0.214835
    H   H15  0.880918  0.275801  0.516116  0.123526
    H   H16  0.882188  0.727915  0.504516  0.124508
    C   C21  0.865035  0.501809  0.507671  0.032742
    C   C22  0.120907  0.500481  0.507603  -0.254538
    C   C23  0.424283  0.072592  0.445692  -0.164790
    C   C24  0.425782  0.927182  0.445630  0.088163
    N   N1   0.491189  0.854303  0.503849  -0.032276
    N   N2   0.494575  0.146989  0.500531  0.079503
    C   C25  0.560806  0.927849  0.558933  -0.031827
    C   C26  0.561863  0.074728  0.557605  -0.072372
    H   H17  0.616223  0.872426  0.604857  0.136888
    H   H18  0.618015  0.131284  0.602612  0.138993
    C   C27  0.340028  0.139478  0.385699  0.448979
    C   C28  0.214268  0.129699  0.392611  -0.085992
    C   C29  0.168800  0.180716  0.319080  -0.286427
    C   C30  0.269964  0.214082  0.271242  -0.082797
    O   O9   0.374694  0.185622  0.310546  -0.160663
    H   H19  0.162811  0.082510  0.443632  0.099372
    H   H20  0.073176  0.188005  0.300642  0.152136
    H   H21  0.265494  0.254241  0.207649  0.125042
    C   C31  0.355617  0.857781  0.378613  0.154371
    C   C32  0.388634  0.862880  0.295044  0.011309
    C   C33  0.293658  0.802760  0.252599  -0.234534
    C   C34  0.208627  0.766945  0.312953  -0.130023
    O   O10  0.245034  0.802276  0.389775  -0.024090
    H   H22  0.471552  0.907908  0.268559  0.055513
    H   H23  0.285265  0.789006  0.185285  0.106942
    H   H24  0.120643  0.718197  0.299816  0.131998
