# generated using pymatgen
data_Fe2H17C46N4ClO16
_symmetry_space_group_name_H-M   'P 1'
_cell_length_a   16.76794700
_cell_length_b   16.93629400
_cell_length_c   11.26027000
_cell_angle_alpha   108.27235600
_cell_angle_beta   95.40094200
_cell_angle_gamma   107.80250900
_symmetry_Int_Tables_number   1
_chemical_formula_structural   Fe2H17C46N4ClO16
_chemical_formula_sum   'Fe2 H17 C46 N4 Cl1 O16'
_cell_volume   2826.57496177
_cell_formula_units_Z   1
loop_
 _symmetry_equiv_pos_site_id
 _symmetry_equiv_pos_as_xyz
  1  'x, y, z'
loop_
 _atom_site_type_symbol
 _atom_site_label
 _atom_site_symmetry_multiplicity
 _atom_site_fract_x
 _atom_site_fract_y
 _atom_site_fract_z
 _atom_site_occupancy
  Fe  Fe1  1  0.49871600  0.99896400  0.24325400  1
  Fe  Fe2  1  0.48639400  0.99425800  0.74750900  1
  H  H1  1  0.81131200  0.01655200  0.24469100  1
  H  H2  1  0.89973600  0.98614700  0.78029200  1
  H  H3  1  0.03666300  0.98516300  0.76594100  1
  H  H4  1  0.17667900  0.98621100  0.75115700  1
  H  H5  1  0.23221100  0.00392900  0.19660300  1
  H  H6  1  0.09115900  0.00628200  0.21348700  1
  H  H7  1  0.95085600  0.01307900  0.23023300  1
  H  H8  1  0.50514100  0.27392200  0.40659700  1
  H  H9  1  0.50343700  0.43640300  0.78272900  1
  H  H10  1  0.49950700  0.31693700  0.85707000  1
  H  H11  1  0.49174700  0.56054500  0.21278100  1
  H  H12  1  0.49594000  0.67968200  0.13776000  1
  H  H13  1  0.48136200  0.72060300  0.58542300  1
  H  H14  1  0.77742600  0.06757000  0.53554200  1
  H  H15  1  0.72831200  0.91050500  0.39232900  1
  H  H16  1  0.68876000  0.79194600  0.48068900  1
  H  H17  1  0.70226900  0.82989600  0.71273300  1
  C  C1  1  0.79770400  0.00989300  0.14562600  1
  C  C2  1  0.71781100  0.00442200  0.08988400  1
  C  C3  1  0.70227900  0.99484500  0.96143700  1
  C  C4  1  0.76573800  0.99140100  0.89214000  1
  C  C5  1  0.84514100  0.99693500  0.94886800  1
  C  C6  1  0.86073800  0.00547000  0.07549300  1
  C  C7  1  0.90854500  0.99185000  0.87911600  1
  C  C8  1  0.98613900  0.99412100  0.93502100  1
  C  C9  1  0.00131700  0.00098600  0.06071900  1
  C  C10  1  0.93885400  0.00739900  0.13135400  1
  C  C11  1  0.04856400  0.98959200  0.86425700  1
  C  C12  1  0.12658900  0.99181100  0.91901300  1
  C  C13  1  0.14139700  0.99659200  0.04379100  1
  C  C14  1  0.07894400  0.00138600  0.11498300  1
  C  C15  1  0.18983400  0.99016000  0.84903400  1
  C  C16  1  0.26935300  0.99468500  0.90366100  1
  C  C17  1  0.28375000  0.99908600  0.02970500  1
  C  C18  1  0.21948100  0.99861300  0.09796100  1
  C  C19  1  0.65147300  0.00612200  0.16779800  1
  C  C20  1  0.49764200  0.84178500  0.26749900  1
  C  C21  1  0.36783100  0.01239700  0.09790800  1
  C  C22  1  0.48968300  0.12929200  0.44948200  1
  C  C23  1  0.49626000  0.86523100  0.54164500  1
  C  C24  1  0.61798700  0.98063800  0.89235100  1
  C  C25  1  0.49328800  0.15330600  0.72511800  1
  C  C26  1  0.33582400  0.99477400  0.82635000  1
  C  C27  1  0.50084300  0.21471100  0.54718000  1
  C  C28  1  0.50566900  0.28460200  0.50644800  1
  C  C29  1  0.50483900  0.36416800  0.58901400  1
  C  C30  1  0.50348800  0.37484100  0.71537300  1
  C  C31  1  0.50080700  0.30617600  0.75762700  1
  C  C32  1  0.49799000  0.22490800  0.67439700  1
  C  C33  1  0.48960500  0.56116700  0.45274700  1
  C  C34  1  0.50115700  0.43474500  0.54141100  1
  C  C35  1  0.48978400  0.62148300  0.27920500  1
  C  C36  1  0.49270100  0.68998200  0.23656400  1
  C  C37  1  0.49307600  0.77047800  0.31861300  1
  C  C38  1  0.48762600  0.78019000  0.44498700  1
  C  C39  1  0.48280700  0.71044100  0.48615500  1
  C  C40  1  0.48598300  0.63161400  0.40480800  1
  C  C41  1  0.74511900  0.96993600  0.75419800  1
  C  C42  1  0.76623500  0.03661600  0.70444500  1
  C  C43  1  0.75951800  0.01530500  0.57428300  1
  C  C44  1  0.73208800  0.92740700  0.49399600  1
  C  C45  1  0.70992100  0.86079200  0.54351900  1
  C  C46  1  0.71658500  0.88207700  0.67352100  1
  N  N1  1  0.49534000  0.51015900  0.62030200  1
  N  N2  1  0.48984200  0.57265800  0.57659900  1
  N  N3  1  0.49543500  0.48576600  0.37390900  1
  N  N4  1  0.50089900  0.42327200  0.41758600  1
  Cl  Cl1  1  0.80652800  0.14820300  0.80699600  1
  O  O1  1  0.57746200  0.00929300  0.12402700  1
  O  O2  1  0.50792200  0.83009600  0.14990400  1
  O  O3  1  0.66599000  0.00326700  0.28259100  1
  O  O4  1  0.48933000  0.91608900  0.33647000  1
  O  O5  1  0.37913600  0.95153000  0.13915900  1
  O  O6  1  0.43142300  0.08762100  0.12387100  1
  O  O7  1  0.54493900  0.12246800  0.37502100  1
  O  O8  1  0.41844500  0.06151200  0.42536000  1
  O  O9  1  0.44102400  0.87051600  0.61618300  1
  O  O10  1  0.56535900  0.93499500  0.56471500  1
  O  O11  1  0.60553500  0.04219400  0.85354900  1
  O  O12  1  0.55552600  0.90413600  0.86322300  1
  O  O13  1  0.32381300  0.00493100  0.71601600  1
  O  O14  1  0.49636500  0.07682500  0.65363300  1
  O  O15  1  0.40661300  0.98367800  0.86531000  1
  O  O16  1  0.48715200  0.16649600  0.84459200  1
