# generated using pymatgen
data_VH6(C2O)7
_symmetry_space_group_name_H-M   'P 1'
_cell_length_a   20.43860500
_cell_length_b   6.80694500
_cell_length_c   16.91334800
_cell_angle_alpha   90.00000000
_cell_angle_beta   103.48829300
_cell_angle_gamma   90.00000000
_symmetry_Int_Tables_number   1
_chemical_formula_structural   VH6(C2O)7
_chemical_formula_sum   'V4 H24 C56 O28'
_cell_volume   2288.15735337
_cell_formula_units_Z   4
loop_
 _symmetry_equiv_pos_site_id
 _symmetry_equiv_pos_as_xyz
  1  'x, y, z'
loop_
 _atom_site_type_symbol
 _atom_site_label
 _atom_site_symmetry_multiplicity
 _atom_site_fract_x
 _atom_site_fract_y
 _atom_site_fract_z
 _atom_site_occupancy
  V  V1  1  0.24891700  0.19857300  0.24047100  1
  V  V2  1  0.75108300  0.81205300  0.75952900  1
  V  V3  1  0.25108300  0.69857300  0.25952900  1
  V  V4  1  0.74891700  0.31205300  0.74047200  1
  H  H1  1  0.90864600  0.32228700  0.63521000  1
  H  H2  1  0.09135700  0.68833800  0.36479400  1
  H  H3  1  0.59135400  0.82228700  0.86479100  1
  H  H4  1  0.40864300  0.18833800  0.13520600  1
  H  H5  1  0.86150400  0.72071400  0.58024100  1
  H  H6  1  0.13849900  0.28991200  0.41976300  1
  H  H7  1  0.63849700  0.22071400  0.91975900  1
  H  H8  1  0.36150200  0.78991200  0.08023800  1
  H  H9  1  0.91789900  0.54574700  0.49503500  1
  H  H10  1  0.08210400  0.46487800  0.50497100  1
  H  H11  1  0.58210100  0.04574700  0.00496600  1
  H  H12  1  0.41789600  0.96487800  0.99503000  1
  H  H13  1  0.02208900  0.18434100  0.33282500  1
  H  H14  1  0.93594300  0.18538200  0.27370700  1
  H  H15  1  0.95732200  0.05589800  0.36957600  1
  H  H16  1  0.97791400  0.82628100  0.66718000  1
  H  H17  1  0.04268000  0.95472500  0.63042900  1
  H  H18  1  0.06405900  0.82524100  0.72629800  1
  H  H19  1  0.47791200  0.68434100  0.16717500  1
  H  H20  1  0.56405700  0.68538200  0.22629300  1
  H  H21  1  0.54267800  0.55589800  0.13042400  1
  H  H22  1  0.52208600  0.32628100  0.83282000  1
  H  H23  1  0.45732000  0.45472500  0.86957100  1
  H  H24  1  0.43594100  0.32524100  0.77370200  1
  C  C1  1  0.14455900  0.47902700  0.14309900  1
  C  C2  1  0.85544000  0.53159900  0.85690200  1
  C  C3  1  0.35544100  0.97902700  0.35690100  1
  C  C4  1  0.64456000  0.03159900  0.64309800  1
  C  C5  1  0.33044900  0.47965000  0.16143600  1
  C  C6  1  0.66955000  0.53097600  0.83856200  1
  C  C7  1  0.16955100  0.97965000  0.33856500  1
  C  C8  1  0.83045000  0.03097600  0.66143800  1
  C  C9  1  0.91667000  0.18811300  0.60460300  1
  C  C10  1  0.08333300  0.82251100  0.39540100  1
  C  C11  1  0.58333000  0.68811300  0.89539700  1
  C  C12  1  0.41666700  0.32251100  0.10459900  1
  C  C13  1  0.87974500  0.02269800  0.61200000  1
  C  C14  1  0.12025800  0.98792700  0.38800400  1
  C  C15  1  0.62025500  0.52269800  0.88800100  1
  C  C16  1  0.37974300  0.48792700  0.11199600  1
  C  C17  1  0.89060800  0.85026600  0.57441300  1
  C  C18  1  0.10939500  0.16035900  0.42559100  1
  C  C19  1  0.60939200  0.35026600  0.92558700  1
  C  C20  1  0.39060500  0.66035900  0.07441000  1
  C  C21  1  0.93784300  0.84447300  0.52815500  1
  C  C22  1  0.06216000  0.16615200  0.47185000  1
  C  C23  1  0.56215700  0.34447300  0.97184600  1
  C  C24  1  0.43784000  0.66615200  0.02815100  1
  C  C25  1  0.97559800  0.00920800  0.52188600  1
  C  C26  1  0.02440600  0.00141700  0.47811900  1
  C  C27  1  0.52440300  0.50920800  0.97811500  1
  C  C28  1  0.47559500  0.50141700  0.02188100  1
  C  C29  1  0.96537200  0.18070400  0.56059300  1
  C  C30  1  0.03463200  0.82992100  0.43941100  1
  C  C31  1  0.53462900  0.68070400  0.93940700  1
  C  C32  1  0.46536800  0.32992100  0.06058900  1
  C  C33  1  0.94731000  0.67372300  0.48841600  1
  C  C34  1  0.05269400  0.33690200  0.51158800  1
  C  C35  1  0.55269100  0.17372300  0.01158400  1
  C  C36  1  0.44730700  0.83690200  0.98841200  1
  C  C37  1  0.99513800  0.66720300  0.44269100  1
  C  C38  1  0.00486500  0.34342100  0.55731300  1
  C  C39  1  0.50486200  0.16720300  0.05730900  1
  C  C40  1  0.49513500  0.84342100  0.94268700  1
  C  C41  1  0.58279600  0.02171200  0.58120100  1
  C  C42  1  0.41720600  0.98891400  0.41879700  1
  C  C43  1  0.91720400  0.52171200  0.91879900  1
  C  C44  1  0.08279400  0.48891400  0.08120300  1
  C  C45  1  0.53065500  0.01161100  0.52993500  1
  C  C46  1  0.46934700  0.99901500  0.47006300  1
  C  C47  1  0.96934500  0.51161100  0.97006500  1
  C  C48  1  0.03065300  0.49901500  0.02993800  1
  C  C49  1  0.95502800  0.36832800  0.37887700  1
  C  C50  1  0.96853500  0.18690100  0.33611500  1
  C  C51  1  0.04497500  0.64229600  0.62112800  1
  C  C52  1  0.03146800  0.82372300  0.66389100  1
  C  C53  1  0.54497200  0.86832800  0.12112300  1
  C  C54  1  0.53146500  0.68690100  0.16388500  1
  C  C55  1  0.45502500  0.14229600  0.87887200  1
  C  C56  1  0.46853200  0.32372300  0.83611000  1
  O  O1  1  0.31193000  0.64829400  0.18709400  1
  O  O2  1  0.68806900  0.36233100  0.81290500  1
  O  O3  1  0.18807000  0.14829400  0.31290600  1
  O  O4  1  0.81193200  0.86233100  0.68709500  1
  O  O5  1  0.17211400  0.30468700  0.15926400  1
  O  O6  1  0.82788600  0.70594000  0.84073700  1
  O  O7  1  0.32788600  0.80468700  0.34073600  1
  O  O8  1  0.67211500  0.20594000  0.65926300  1
  O  O9  1  0.31079300  0.30278200  0.17673500  1
  O  O10  1  0.68920600  0.70784400  0.82326300  1
  O  O11  1  0.18920700  0.80278200  0.32326500  1
  O  O12  1  0.81079500  0.20784400  0.67673700  1
  O  O13  1  0.33027500  0.14699800  0.32593100  1
  O  O14  1  0.66972600  0.86362700  0.67406800  1
  O  O15  1  0.16972500  0.64699800  0.17407000  1
  O  O16  1  0.83027400  0.36362700  0.82593200  1
  O  O17  1  0.25716000  0.47475600  0.29964300  1
  O  O18  1  0.74284000  0.53587000  0.70035600  1
  O  O19  1  0.24284000  0.97475600  0.20035700  1
  O  O20  1  0.75716000  0.03587000  0.79964400  1
  O  O21  1  0.00370000  0.50488300  0.40072500  1
  O  O22  1  0.89873600  0.39836700  0.38884400  1
  O  O23  1  0.99630300  0.50574100  0.59928000  1
  O  O24  1  0.10126700  0.61225700  0.61116200  1
  O  O25  1  0.49630100  0.00488300  0.09927500  1
  O  O26  1  0.60126400  0.89836700  0.11115700  1
  O  O27  1  0.50369700  0.00574100  0.90072100  1
  O  O28  1  0.39873400  0.11225700  0.88883800  1
