# generated using pymatgen
data_ZnH15C16NO4
_symmetry_space_group_name_H-M   'P 1'
_cell_length_a   13.09843900
_cell_length_b   10.94049500
_cell_length_c   9.78604300
_cell_angle_alpha   90.00405900
_cell_angle_beta   95.37274900
_cell_angle_gamma   90.00827500
_symmetry_Int_Tables_number   1
_chemical_formula_structural   ZnH15C16NO4
_chemical_formula_sum   'Zn2 H30 C32 N2 O8'
_cell_volume   1396.21210703
_cell_formula_units_Z   2
loop_
 _symmetry_equiv_pos_site_id
 _symmetry_equiv_pos_as_xyz
  1  'x, y, z'
loop_
 _atom_site_type_symbol
 _atom_site_label
 _atom_site_symmetry_multiplicity
 _atom_site_fract_x
 _atom_site_fract_y
 _atom_site_fract_z
 _atom_site_occupancy
  Zn  Zn1  1  0.50369400  0.49903300  0.65574900  1
  Zn  Zn2  1  0.50001000  0.49602900  0.34408300  1
  H  H1  1  0.83100900  0.52602000  0.32032500  1
  H  H2  1  0.17283000  0.46648500  0.67969700  1
  H  H3  1  0.82586000  0.44915400  0.74780000  1
  H  H4  1  0.17729400  0.53900800  0.25074600  1
  H  H5  1  0.99147900  0.54093900  0.22418500  1
  H  H6  1  0.01210500  0.44716400  0.77500000  1
  H  H7  1  0.54821800  0.11264400  0.29949800  1
  H  H8  1  0.46098400  0.88285400  0.70318600  1
  H  H9  1  0.54489900  0.89111600  0.29121400  1
  H  H10  1  0.46192800  0.10404300  0.70983300  1
  H  H11  1  0.60310300  0.62898800  0.15889600  1
  H  H12  1  0.39122500  0.37734100  0.83972000  1
  H  H13  1  0.57202500  0.75909700  0.86503400  1
  H  H14  1  0.65584400  0.65313900  0.79359400  1
  H  H15  1  0.69250100  0.77160300  0.07778200  1
  H  H16  1  0.82959900  0.60396800  0.91988000  1
  H  H17  1  0.76617400  0.55475600  0.06626700  1
  H  H18  1  0.86149500  0.67339200  0.08512700  1
  H  H19  1  0.79276700  0.80351800  0.81054500  1
  H  H20  1  0.83164700  0.87403800  0.97424800  1
  H  H21  1  0.70854900  0.91031400  0.88551600  1
  H  H22  1  0.27964800  0.41348300  0.10801200  1
  H  H23  1  0.36760900  0.31911100  0.21003200  1
  H  H24  1  0.27546000  0.26393200  0.91700300  1
  H  H25  1  0.41997400  0.11101700  0.11573500  1
  H  H26  1  0.45953100  0.18465800  0.96433000  1
  H  H27  1  0.36402100  0.06636800  0.94834100  1
  H  H28  1  0.25015300  0.14754500  0.19553900  1
  H  H29  1  0.19325800  0.09712500  0.02967400  1
  H  H30  1  0.15833100  0.24339800  0.09623900  1
  C  C1  1  0.50168000  0.25833700  0.50602500  1
  C  C2  1  0.50282600  0.73676900  0.49407800  1
  C  C3  1  0.30110900  0.49951700  0.48197900  1
  C  C4  1  0.70257100  0.49460100  0.51779200  1
  C  C5  1  0.81509300  0.49014500  0.53236000  1
  C  C6  1  0.18855800  0.50192500  0.46732300  1
  C  C7  1  0.03089200  0.52455300  0.32447400  1
  C  C8  1  0.97268900  0.46491700  0.67493400  1
  C  C9  1  0.13647800  0.52261700  0.33982800  1
  C  C10  1  0.86703000  0.46707100  0.65938200  1
  C  C11  1  0.13353200  0.48337100  0.57941200  1
  C  C12  1  0.87021000  0.50839500  0.42040800  1
  C  C13  1  0.02753700  0.48489700  0.56351600  1
  C  C14  1  0.97615000  0.50578500  0.43617800  1
  C  C15  1  0.52702100  0.06294700  0.38784500  1
  C  C16  1  0.48063400  0.93223600  0.61378600  1
  C  C17  1  0.52583200  0.93694600  0.38329600  1
  C  C18  1  0.48095000  0.05822000  0.61779600  1
  C  C19  1  0.50267200  0.87082100  0.49639300  1
  C  C20  1  0.50341800  0.12432200  0.50441100  1
  C  C21  1  0.55938500  0.57037000  0.08732600  1
  C  C22  1  0.44077100  0.42903900  0.91196100  1
  C  C23  1  0.56665100  0.57966700  0.94706500  1
  C  C24  1  0.43232400  0.42109400  0.05194300  1
  C  C25  1  0.62614000  0.68271800  0.88947600  1
  C  C26  1  0.71739800  0.73243200  0.98208400  1
  C  C27  1  0.79821400  0.63448300  0.01531500  1
  C  C28  1  0.76568000  0.83650800  0.90805100  1
  C  C29  1  0.34539200  0.35021800  0.10485200  1
  C  C30  1  0.30829200  0.23771200  0.02117000  1
  C  C31  1  0.39371900  0.14483500  0.01191600  1
  C  C32  1  0.22218300  0.17760600  0.09042300  1
  N  N1  1  0.50865400  0.50464900  0.86107100  1
  N  N2  1  0.49489600  0.49058800  0.13872200  1
  O  O1  1  0.50089900  0.31590500  0.62392800  1
  O  O2  1  0.50246900  0.67917500  0.37603400  1
  O  O3  1  0.50183800  0.31511500  0.38811100  1
  O  O4  1  0.50333400  0.67990400  0.61187700  1
  O  O5  1  0.34998900  0.49871400  0.60554700  1
  O  O6  1  0.65372700  0.49673600  0.39415200  1
  O  O7  1  0.34834200  0.49863900  0.36961700  1
  O  O8  1  0.65535500  0.49466000  0.63023700  1
