# Generated by REPEAT Assigner based on pymatgen
data_DB0-m2_o3_o3_f0_pcu.sym.18_sqe
_audit_creation_date              2022-05-24
_audit_creation_method            REPEAT_Assigner
_cell_length_a                    27.378338
_cell_length_b                    27.338461
_cell_length_c                    17.985171
_cell_angle_alpha                 90.000000
_cell_angle_beta                  90.000000
_cell_angle_gamma                 90.000000
_cell_volume                      13461.569360
_symmetry_space_group_name_H-M    P1
_symmetry_Int_Tables_number       1
loop_
    _symmetry_equiv_pos_site_id
    _symmetry_equiv_pos_as_xyz
    1  x,y,z
loop_
    _atom_site_type_symbol
    _atom_site_label
    _atom_site_fract_x
    _atom_site_fract_y
    _atom_site_fract_z
    _atom_type_partial_charge
    O   O1    0.048712  0.448571  0.564066  -0.552233
    O   O2    0.951228  0.551360  0.436236  -0.562749
    O   O3    0.948364  0.549069  0.563476  -0.550573
    O   O4    0.051675  0.450954  0.436133  -0.545850
    O   O5    0.951098  0.448686  0.436312  -0.557906
    O   O6    0.048855  0.551290  0.563838  -0.554562
    O   O7    0.051819  0.548857  0.436142  -0.543405
    O   O8    0.948045  0.451227  0.563808  -0.546888
    O   O9    0.551594  0.951251  0.564177  -0.569929
    O   O10   0.448361  0.048490  0.435844  -0.569856
    O   O11   0.450875  0.051410  0.563394  -0.531005
    O   O12   0.549274  0.948571  0.436676  -0.532284
    O   O13   0.451077  0.948158  0.436479  -0.537749
    O   O14   0.549147  0.051551  0.563537  -0.540599
    O   O15   0.551332  0.048789  0.436021  -0.570594
    O   O16   0.448627  0.951216  0.564099  -0.570927
    C   C1    0.066345  0.433478  0.500325  0.661439
    C   C2    0.933511  0.566422  0.499640  0.675295
    C   C3    0.933181  0.433859  0.499922  0.673355
    C   C4    0.066619  0.566273  0.500100  0.663590
    C   C5    0.566875  0.933867  0.500462  0.665732
    C   C6    0.433179  0.066021  0.499541  0.662762
    C   C7    0.433468  0.933558  0.500451  0.672581
    C   C8    0.566663  0.066218  0.499674  0.676767
    Cu  Cu1   0.999625  0.500049  0.574459  0.757778
    Cu  Cu2   0.000297  0.499996  0.425532  0.764824
    Cu  Cu3   0.500070  0.000239  0.574479  0.769218
    Cu  Cu4   0.500000  0.999663  0.425580  0.764473
    C   C9    0.000073  0.457518  0.725180  0.065584
    C   C10   0.000237  0.543003  0.275065  0.069966
    C   C11   0.999919  0.543098  0.725010  0.069553
    C   C12   0.000484  0.457426  0.274649  0.073635
    C   C13   0.499712  0.957872  0.724781  0.081290
    C   C14   0.499932  0.042012  0.275157  0.082073
    C   C15   0.499931  0.043458  0.725465  0.051098
    C   C16   0.499957  0.956442  0.274554  0.053244
    C   C17   0.000188  0.457290  0.801953  -0.192073
    C   C18   0.999853  0.543375  0.198484  -0.198089
    C   C19   0.999718  0.543255  0.801524  -0.196106
    C   C20   0.000313  0.457473  0.197941  -0.199794
    C   C21   0.499726  0.957538  0.801427  -0.202876
    C   C22   0.499957  0.042396  0.198493  -0.204472
    C   C23   0.500239  0.043521  0.802025  -0.179130
    C   C24   0.499668  0.956488  0.197917  -0.185596
    H   H1    0.999382  0.422586  0.830722  0.056244
    H   H2    0.001084  0.578184  0.170019  0.057964
    H   H3    0.000595  0.577985  0.829942  0.057427
    H   H4    0.999674  0.422994  0.168915  0.056638
    H   H5    0.500434  0.922825  0.829815  0.058155
    H   H6    0.498674  0.077252  0.170607  0.058182
    H   H7    0.499335  0.078382  0.830545  0.053168
    H   H8    0.500332  0.921924  0.168544  0.055169
    C   C25   0.124586  0.620381  0.434177  0.020540
    C   C26   0.875516  0.379295  0.565958  0.033284
    C   C27   0.877884  0.377417  0.433407  0.029813
    C   C28   0.122102  0.622344  0.566670  0.016334
    C   C29   0.876379  0.620954  0.565652  0.030197
    C   C30   0.123461  0.378633  0.434389  0.033151
    C   C31   0.121997  0.376893  0.566907  0.022941
    C   C32   0.878150  0.622905  0.433169  0.023076
    C   C33   0.623730  0.121055  0.433157  0.045254
    C   C34   0.376351  0.878986  0.567200  0.027568
    C   C35   0.378315  0.876803  0.434682  0.025082
    C   C36   0.621863  0.123178  0.565705  0.041606
    C   C37   0.376851  0.121656  0.566002  0.014525
    C   C38   0.623362  0.878475  0.433719  0.022877
    C   C39   0.623416  0.878508  0.566395  0.038357
    C   C40   0.376746  0.121406  0.433375  0.031722
    H   H9    0.112043  0.606161  0.381604  0.056782
    H   H10   0.887862  0.393533  0.618713  0.053830
    H   H11   0.891650  0.390559  0.380758  0.056386
    H   H12   0.108242  0.609233  0.619273  0.059679
    H   H13   0.888964  0.606465  0.618127  0.052234
    H   H14   0.110823  0.393065  0.381984  0.052192
    H   H15   0.108883  0.390139  0.619832  0.057033
    H   H16   0.891791  0.609963  0.380339  0.057119
    H   H17   0.610975  0.106901  0.380631  0.051102
    H   H18   0.389071  0.893002  0.619984  0.055579
    H   H19   0.392369  0.889465  0.381954  0.054504
    H   H20   0.607931  0.110274  0.618277  0.050449
    H   H21   0.390376  0.108568  0.618757  0.056451
    H   H22   0.610250  0.891850  0.380876  0.055070
    H   H23   0.610341  0.892301  0.619033  0.055579
    H   H24   0.390209  0.107693  0.380874  0.057552
    C   C41   0.160421  0.655886  0.434550  -0.229379
    C   C42   0.840018  0.343412  0.565609  -0.234397
    C   C43   0.842560  0.341569  0.433139  -0.230310
    C   C44   0.157588  0.657962  0.566975  -0.222812
    C   C45   0.840789  0.656720  0.565950  -0.238157
    C   C46   0.158958  0.342804  0.434080  -0.239070
    C   C47   0.157329  0.341132  0.566563  -0.233166
    C   C48   0.842503  0.658451  0.433496  -0.235373
    C   C49   0.659226  0.156757  0.432980  -0.249100
    C   C50   0.340899  0.843292  0.567390  -0.234511
    C   C51   0.342887  0.840958  0.434886  -0.226100
    C   C52   0.657304  0.159116  0.565449  -0.240423
    C   C53   0.341247  0.157196  0.566008  -0.223480
    C   C54   0.659115  0.843064  0.433768  -0.232941
    C   C55   0.659093  0.842851  0.566216  -0.242960
    C   C56   0.341181  0.157193  0.433343  -0.238044
    H   H25   0.174618  0.669258  0.382426  0.119899
    H   H26   0.826160  0.329762  0.617830  0.120263
    H   H27   0.829468  0.328275  0.380137  0.112292
    H   H28   0.170734  0.671267  0.619933  0.111197
    H   H29   0.827290  0.670101  0.618531  0.121499
    H   H30   0.172579  0.329283  0.381610  0.121487
    H   H31   0.170901  0.328107  0.619458  0.114748
    H   H32   0.828851  0.671447  0.380760  0.114954
    H   H33   0.672762  0.169992  0.380186  0.121943
    H   H34   0.327950  0.829850  0.620309  0.119817
    H   H35   0.329893  0.826828  0.382481  0.112483
    H   H36   0.670934  0.172970  0.617795  0.115181
    H   H37   0.328829  0.171436  0.618761  0.117804
    H   H38   0.672166  0.829306  0.381064  0.120016
    H   H39   0.673884  0.830067  0.618405  0.115933
    H   H40   0.327041  0.170250  0.380858  0.115337
    C   C57   0.176941  0.675173  0.500937  0.139008
    C   C58   0.823294  0.324343  0.499219  0.144225
    C   C59   0.823709  0.675885  0.499798  0.150014
    C   C60   0.176021  0.323632  0.500192  0.148633
    C   C61   0.676221  0.176081  0.499081  0.156047
    C   C62   0.323783  0.823993  0.501195  0.143336
    C   C63   0.323190  0.175324  0.499689  0.145328
    C   C64   0.676968  0.824728  0.500024  0.149908
    N   N1    0.999087  0.500251  0.686048  0.038847
    N   N2    0.000297  0.500022  0.313952  0.031907
    N   N3    0.500042  0.000765  0.686064  0.033863
    N   N4    0.500226  0.999157  0.313994  0.035076
    C   C65   0.973157  0.534691  0.961619  -0.140644
    C   C66   0.027315  0.466586  0.038461  -0.138143
    C   C67   0.027602  0.466727  0.961818  -0.145500
    C   C68   0.972673  0.534403  0.038258  -0.151112
    C   C69   0.527073  0.033555  0.961708  -0.141827
    C   C70   0.472609  0.965683  0.038282  -0.144828
    C   C71   0.472576  0.965555  0.961578  -0.145686
    C   C72   0.527085  0.033658  0.038280  -0.143191
    C   C73   0.999805  0.500305  0.841021  0.199046
    C   C74   0.999693  0.500451  0.158981  0.205726
    C   C75   0.499924  0.000265  0.841005  0.197708
    C   C76   0.499856  0.999594  0.158922  0.201741
    C   C77   0.104984  0.603678  0.500230  -0.123869
    C   C78   0.894896  0.396296  0.499843  -0.142907
    C   C79   0.895526  0.604157  0.499444  -0.130640
    C   C80   0.104418  0.395661  0.500619  -0.130814
    C   C81   0.604777  0.103982  0.499505  -0.153169
    C   C82   0.395371  0.895898  0.500822  -0.135351
    C   C83   0.394932  0.103603  0.499600  -0.129593
    C   C84   0.605105  0.896329  0.500201  -0.134915
    C   C85   0.212260  0.751761  0.550719  -0.135676
    C   C86   0.788013  0.247762  0.449746  -0.130954
    C   C87   0.746774  0.288529  0.548628  -0.167844
    C   C88   0.253392  0.711212  0.451379  -0.172022
    C   C89   0.787945  0.752155  0.449545  -0.133456
    C   C90   0.211899  0.247458  0.550215  -0.137494
    C   C91   0.251944  0.287247  0.449158  -0.175900
    C   C92   0.747901  0.712525  0.550607  -0.174646
    C   C93   0.711376  0.252743  0.548544  -0.137948
    C   C94   0.288793  0.747108  0.451486  -0.136582
    C   C95   0.247665  0.787642  0.550786  -0.169673
    C   C96   0.752552  0.212023  0.449507  -0.175957
    C   C97   0.287487  0.251517  0.449395  -0.130835
    C   C98   0.712608  0.748512  0.550884  -0.133123
    C   C99   0.752531  0.787978  0.449443  -0.175396
    C   C100  0.247449  0.211747  0.550258  -0.167756
    H   H41   0.181693  0.754963  0.588397  0.113028
    H   H42   0.818575  0.244279  0.412213  0.112307
    H   H43   0.743102  0.318746  0.586963  0.113516
    H   H44   0.256797  0.681015  0.412877  0.115201
    H   H45   0.817963  0.755146  0.410841  0.112059
    H   H46   0.181866  0.244489  0.588920  0.112929
    H   H47   0.255169  0.317062  0.410014  0.116428
    H   H48   0.744687  0.682576  0.589508  0.115638
    H   H49   0.681023  0.255991  0.586670  0.113399
    H   H50   0.319174  0.744036  0.413394  0.113809
    H   H51   0.244130  0.817992  0.588814  0.114218
    H   H52   0.756316  0.181668  0.411454  0.116346
    H   H53   0.317692  0.254429  0.410983  0.111094
    H   H54   0.682771  0.745754  0.590108  0.111800
    H   H55   0.755573  0.817810  0.410312  0.115786
    H   H56   0.244424  0.181760  0.589033  0.112975
    C   C101  0.785323  0.286401  0.499063  0.085433
    C   C102  0.214916  0.713234  0.501137  0.089192
    C   C103  0.213911  0.285545  0.499816  0.088204
    C   C104  0.785873  0.714069  0.499950  0.087137
    C   C105  0.286164  0.785598  0.501202  0.086797
    C   C106  0.713928  0.214252  0.498901  0.088185
    C   C107  0.714656  0.786485  0.500147  0.089602
    C   C108  0.285458  0.213496  0.499839  0.085818
    C   C109  0.999546  0.500231  0.077279  0.094393
    C   C110  0.000008  0.500420  0.922756  0.093893
    C   C111  0.499786  0.999743  0.077213  0.094431
    C   C112  0.499690  0.999796  0.922697  0.094322
    H   H57   0.951375  0.561493  0.932523  0.124571
    H   H58   0.050401  0.440865  0.067518  0.122750
    H   H59   0.050895  0.441080  0.932997  0.125653
    H   H60   0.950326  0.560821  0.067201  0.127071
    H   H61   0.549828  0.059503  0.932604  0.124135
    H   H62   0.450034  0.939588  0.067492  0.125707
    H   H63   0.450101  0.939048  0.932881  0.126406
    H   H64   0.549782  0.059937  0.066971  0.124397
    Br  Br1   0.997996  0.393912  0.680957  0.023765
    Br  Br2   0.002068  0.606502  0.319737  0.023553
    Br  Br3   0.998418  0.606668  0.680397  0.022364
    Br  Br4   0.001690  0.393789  0.318760  0.023138
    Br  Br5   0.500098  0.894294  0.679860  0.023515
    Br  Br6   0.500011  0.105542  0.319650  0.025505
    Br  Br7   0.499628  0.107065  0.681590  0.027202
    Br  Br8   0.500656  0.892752  0.318726  0.024903
