data_DB0-m3_o11_o28_f0_pcu.sym.127_repeat
_audit_creation_date              2024-02-23
_audit_creation_method            'Materials Studio'
_symmetry_space_group_name_H-M    'P1'
_symmetry_Int_Tables_number       1
_symmetry_cell_setting            triclinic
loop_
_symmetry_equiv_pos_as_xyz
  x,y,z
_cell_length_a                    23.4174
_cell_length_b                    11.1351
_cell_length_c                    9.9487
_cell_angle_alpha                 89.9974
_cell_angle_beta                  89.9815
_cell_angle_gamma                 90.0113
loop_
_atom_site_label
_atom_site_type_symbol
_atom_site_fract_x
_atom_site_fract_y
_atom_site_fract_z
_atom_site_U_iso_or_equiv
_atom_site_adp_type
_atom_site_occupancy
O1     O     0.49738   0.32488   0.60831   0.00000  Uiso   1.00
O2     O     0.49888   0.32658   0.37642   0.00000  Uiso   1.00
C1     C     0.49773   0.26975   0.49238   0.00000  Uiso   1.00
O3     O     0.41338   0.50666   0.61188   0.00000  Uiso   1.00
O4     O     0.41444   0.50749   0.38031   0.00000  Uiso   1.00
C2     C     0.38716   0.50731   0.49554   0.00000  Uiso   1.00
Zn1    Zn    0.49825   0.50256   0.65075   0.00000  Uiso   1.00
Zn2    Zn    0.49965   0.50654   0.34460   0.00000  Uiso   1.00
O5     O     0.49988   0.68233   0.61922   0.00000  Uiso   1.00
O6     O     0.49999   0.68454   0.38675   0.00000  Uiso   1.00
O7     O     0.58347   0.50124   0.61583   0.00000  Uiso   1.00
O8     O     0.58465   0.50520   0.38328   0.00000  Uiso   1.00
C3     C     0.50009   0.73942   0.50353   0.00000  Uiso   1.00
C4     C     0.61070   0.50235   0.50052   0.00000  Uiso   1.00
C5     C     0.88056   0.60453   0.53413   0.00000  Uiso   1.00
N1     N     0.85231   0.50067   0.51330   0.00000  Uiso   1.00
C6     C     0.88092   0.39755   0.49081   0.00000  Uiso   1.00
C7     C     0.93999   0.39710   0.48722   0.00000  Uiso   1.00
C8     C     0.96940   0.50251   0.50845   0.00000  Uiso   1.00
C9     C     0.93961   0.60682   0.53289   0.00000  Uiso   1.00
C10    C     0.96985   0.29249   0.46140   0.00000  Uiso   1.00
C11    C     0.02868   0.29391   0.45647   0.00000  Uiso   1.00
C12    C     0.05812   0.39980   0.47815   0.00000  Uiso   1.00
C13    C     0.02832   0.50370   0.50479   0.00000  Uiso   1.00
C14    C     0.05772   0.60883   0.52761   0.00000  Uiso   1.00
C15    C     0.02788   0.71349   0.55323   0.00000  Uiso   1.00
C16    C     0.96904   0.71257   0.55539   0.00000  Uiso   1.00
C17    C     0.11717   0.40269   0.47403   0.00000  Uiso   1.00
N2     N     0.14540   0.50615   0.49748   0.00000  Uiso   1.00
C18    C     0.11677   0.60839   0.52442   0.00000  Uiso   1.00
O9     O     0.85097   0.70575   0.55780   0.00000  Uiso   1.00
O10    O     0.85167   0.29568   0.46832   0.00000  Uiso   1.00
H1     H     0.94787   0.20857   0.44417   0.00000  Uiso   1.00
H2     H     0.05098   0.21102   0.43565   0.00000  Uiso   1.00
O11    O     0.14679   0.30167   0.44958   0.00000  Uiso   1.00
O12    O     0.14594   0.71053   0.54591   0.00000  Uiso   1.00
H3     H     0.04986   0.79726   0.57135   0.00000  Uiso   1.00
H4     H     0.94673   0.79568   0.57502   0.00000  Uiso   1.00
C19    C     0.23570   0.48591   0.37838   0.00000  Uiso   1.00
H5     H     0.21264   0.46922   0.28612   0.00000  Uiso   1.00
C20    C     0.29463   0.48745   0.37737   0.00000  Uiso   1.00
H6     H     0.31682   0.47069   0.28399   0.00000  Uiso   1.00
C21    C     0.32453   0.50816   0.49499   0.00000  Uiso   1.00
C22    C     0.29486   0.52861   0.61304   0.00000  Uiso   1.00
H7     H     0.31714   0.54543   0.70626   0.00000  Uiso   1.00
C23    C     0.23602   0.52905   0.61325   0.00000  Uiso   1.00
H8     H     0.21325   0.54505   0.70608   0.00000  Uiso   1.00
C24    C     0.20627   0.50711   0.49622   0.00000  Uiso   1.00
C25    C     0.76074   0.44145   0.60876   0.00000  Uiso   1.00
H9     H     0.78277   0.39471   0.68864   0.00000  Uiso   1.00
C26    C     0.70180   0.44310   0.60633   0.00000  Uiso   1.00
H10    H     0.67828   0.39636   0.68383   0.00000  Uiso   1.00
C27    C     0.67327   0.50148   0.50376   0.00000  Uiso   1.00
C28    C     0.70417   0.56092   0.40619   0.00000  Uiso   1.00
H11    H     0.68272   0.61101   0.32876   0.00000  Uiso   1.00
C29    C     0.76297   0.56128   0.41009   0.00000  Uiso   1.00
H12    H     0.78671   0.60856   0.33333   0.00000  Uiso   1.00
C30    C     0.79146   0.50083   0.51070   0.00000  Uiso   1.00
C31    C     0.49670   0.93621   0.39317   0.00000  Uiso   1.00
C32    C     0.50110   0.87113   0.50635   0.00000  Uiso   1.00
H13    H     0.49227   0.89044   0.29781   0.00000  Uiso   1.00
H14    H     0.50605   0.91218   0.60391   0.00000  Uiso   1.00
C33    C     0.49799   0.06919   0.38827   0.00000  Uiso   1.00
C34    C     0.49653   0.13835   0.49788   0.00000  Uiso   1.00
H15    H     0.49937   0.11118   0.29006   0.00000  Uiso   1.00
H16    H     0.49370   0.10020   0.59731   0.00000  Uiso   1.00
C35    C     0.52986   0.57049   0.91839   0.00000  Uiso   1.00
N3     N     0.49789   0.49832   0.85174   0.00000  Uiso   1.00
H17    H     0.55473   0.63685   0.86432   0.00000  Uiso   1.00
H18    H     0.48142   0.42583   0.90243   0.00000  Uiso   1.00
C36    C     0.53812   0.56078   0.06547   0.00000  Uiso   1.00
N4     N     0.50044   0.51264   0.14340   0.00000  Uiso   1.00
H19    H     0.46237   0.49045   0.09870   0.00000  Uiso   1.00
C37    C     0.59042   0.61318   0.11968   0.00000  Uiso   1.00
O13    O     0.63504   0.55742   0.11076   0.00000  Uiso   1.00
N5     N     0.59127   0.73623   0.15937   0.00000  Uiso   1.00
H20    H     0.60177   0.73986   0.26121   0.00000  Uiso   1.00
H21    H     0.55002   0.76989   0.14727   0.00000  Uiso   1.00
