# generated using pymatgen
data_Fe2H16C45NClO16
_symmetry_space_group_name_H-M   'P 1'
_cell_length_a   15.81974800
_cell_length_b   9.42924900
_cell_length_c   15.53964600
_cell_angle_alpha   87.54263600
_cell_angle_beta   85.55890400
_cell_angle_gamma   108.43116800
_symmetry_Int_Tables_number   1
_chemical_formula_structural   Fe2H16C45NClO16
_chemical_formula_sum   'Fe2 H16 C45 N1 Cl1 O16'
_cell_volume   2186.94875424
_cell_formula_units_Z   1
loop_
 _symmetry_equiv_pos_site_id
 _symmetry_equiv_pos_as_xyz
  1  'x, y, z'
loop_
 _atom_site_type_symbol
 _atom_site_label
 _atom_site_symmetry_multiplicity
 _atom_site_fract_x
 _atom_site_fract_y
 _atom_site_fract_z
 _atom_site_occupancy
  Fe  Fe1  1  0.51566500  0.99648000  0.15361800  1
  Fe  Fe2  1  0.51708100  0.01123000  0.78861500  1
  H  H1  1  0.94926300  0.07807200  0.83317700  1
  H  H2  1  0.19309700  0.99492700  0.84343800  1
  H  H3  1  0.05018600  0.00138900  0.87301200  1
  H  H4  1  0.80799000  0.07399200  0.78944300  1
  H  H5  1  0.23945900  0.00405100  0.15166900  1
  H  H6  1  0.93156300  0.01886400  0.21383300  1
  H  H7  1  0.79730000  0.02808300  0.16696200  1
  H  H8  1  0.50638400  0.54201300  0.76135900  1
  H  H9  1  0.49042000  0.43492900  0.18209200  1
  H  H10  1  0.51757900  0.74411000  0.51363900  1
  H  H11  1  0.48884400  0.70847400  0.38918000  1
  H  H12  1  0.49741200  0.13021700  0.42935500  1
  H  H13  1  0.07084100  0.77445100  0.22296300  1
  H  H14  1  0.12166800  0.01305500  0.45024600  1
  H  H15  1  0.12909100  0.24558600  0.36745300  1
  H  H16  1  0.10746600  0.24270200  0.21243100  1
  C  C1  1  0.89502000  0.05417600  0.88344300  1
  C  C2  1  0.28471800  0.99659600  0.93802500  1
  C  C3  1  0.20301300  0.99551900  0.91143100  1
  C  C4  1  0.13418200  0.00032300  0.97054500  1
  C  C5  1  0.05532900  0.00781800  0.94136700  1
  C  C6  1  0.98560200  0.01826900  0.99858800  1
  C  C7  1  0.81425700  0.05666600  0.85754800  1
  C  C8  1  0.74026900  0.02591800  0.91629600  1
  C  C9  1  0.90490500  0.02794600  0.97037800  1
  C  C10  1  0.83279200  0.01566300  0.03075700  1
  C  C11  1  0.74877300  0.00563100  0.00365800  1
  C  C12  1  0.29592200  0.99854400  0.02564900  1
  C  C13  1  0.22610700  0.99799400  0.08464600  1
  C  C14  1  0.14501600  0.00037200  0.05745100  1
  C  C15  1  0.07577500  0.00713600  0.11576600  1
  C  C16  1  0.99616400  0.01466700  0.08645800  1
  C  C17  1  0.92676700  0.01877000  0.14499100  1
  C  C18  1  0.84656000  0.01881400  0.11766400  1
  C  C19  1  0.66897900  0.97436800  0.06622300  1
  C  C20  1  0.48978800  0.70907000  0.22156000  1
  C  C21  1  0.38295100  0.01908000  0.05796900  1
  C  C22  1  0.48990400  0.19399600  0.27000000  1
  C  C23  1  0.51944100  0.79673800  0.67431300  1
  C  C24  1  0.65270600  0.00229100  0.88384300  1
  C  C25  1  0.50768600  0.27271500  0.71747100  1
  C  C26  1  0.35746100  0.99870400  0.87227700  1
  C  C27  1  0.50468200  0.52984800  0.69265300  1
  C  C28  1  0.50979600  0.65234500  0.63888800  1
  C  C29  1  0.51079000  0.64220400  0.55107700  1
  C  C30  1  0.50477700  0.39729600  0.65825000  1
  C  C31  1  0.50239100  0.38534000  0.56949600  1
  C  C32  1  0.50269400  0.50650200  0.51519900  1
  C  C33  1  0.49687600  0.48909300  0.42646800  1
  C  C34  1  0.49257300  0.60339200  0.36869000  1
  C  C35  1  0.49056600  0.58485900  0.28131500  1
  C  C36  1  0.49710300  0.23696800  0.45131900  1
  C  C37  1  0.49440400  0.35265000  0.39485300  1
  C  C38  1  0.49181600  0.33448600  0.30677500  1
  C  C39  1  0.49163400  0.45103100  0.25048300  1
  C  C40  1  0.08737600  0.00824000  0.20830800  1
  C  C41  1  0.08338300  0.87786600  0.25476100  1
  C  C42  1  0.09560600  0.87959000  0.34166600  1
  C  C43  1  0.11196900  0.01165200  0.38215200  1
  C  C44  1  0.11610000  0.14202200  0.33575300  1
  C  C45  1  0.10388900  0.14036500  0.24886400  1
  N  N1  1  0.50002500  0.25525200  0.53621800  1
  Cl  Cl1  1  0.09071100  0.71419600  0.40052300  1
  O  O1  1  0.60782800  0.03866900  0.05391500  1
  O  O2  1  0.47965500  0.68810800  0.13953600  1
  O  O3  1  0.65754600  0.87948600  0.13360700  1
  O  O4  1  0.50654200  0.84440600  0.24879100  1
  O  O5  1  0.39615100  0.91328500  0.10749700  1
  O  O6  1  0.44594000  0.14952100  0.04368500  1
  O  O7  1  0.54804700  0.19617600  0.20475900  1
  O  O8  1  0.42342700  0.07070300  0.29364000  1
  O  O9  1  0.47536300  0.80320900  0.74823900  1
  O  O10  1  0.57549000  0.91946900  0.63400600  1
  O  O11  1  0.64184500  0.09502300  0.82343000  1
  O  O12  1  0.58606000  0.88060400  0.91019300  1
  O  O13  1  0.34608200  0.01179000  0.78991100  1
  O  O14  1  0.52089700  0.15147700  0.68877400  1
  O  O15  1  0.43412900  0.98894400  0.89407500  1
  O  O16  1  0.49936000  0.28444100  0.80130700  1
