# Generated by REPEAT Assigner based on pymatgen
data_DB0-m2_o7_o9_f0_pcu.sym.55
_audit_creation_date              2022-05-24
_audit_creation_method            REPEAT_Assigner
_cell_length_a                    10.956046
_cell_length_b                    17.766762
_cell_length_c                    16.237134
_cell_angle_alpha                 89.974934
_cell_angle_beta                  89.997917
_cell_angle_gamma                 89.998458
_cell_volume                      3160.614085
_symmetry_space_group_name_H-M    P1
_symmetry_Int_Tables_number       1
loop_
    _symmetry_equiv_pos_site_id
    _symmetry_equiv_pos_as_xyz
    1  x,y,z
loop_
    _atom_site_type_symbol
    _atom_site_label
    _atom_site_fract_x
    _atom_site_fract_y
    _atom_site_fract_z
    _atom_type_partial_charge
    O   O1   0.496309  0.387737  0.566780  -0.524641
    O   O2   0.494096  0.610145  0.431963  -0.522415
    O   O3   0.491518  0.391413  0.425871  -0.508243
    O   O4   0.499185  0.606474  0.573084  -0.514219
    C   C1   0.494927  0.353717  0.494996  0.565893
    C   C2   0.496029  0.644183  0.503821  0.570485
    O   O5   0.316007  0.495677  0.567370  -0.549102
    O   O6   0.674479  0.502338  0.431572  -0.556008
    O   O7   0.319629  0.504253  0.426492  -0.518058
    O   O8   0.670836  0.493561  0.572269  -0.524820
    C   C3   0.259451  0.501190  0.496171  0.617670
    C   C4   0.731048  0.497011  0.502741  0.632929
    Cu  Cu1  0.493137  0.496807  0.581547  0.819722
    Cu  Cu2  0.497367  0.501012  0.417303  0.806364
    H   H1   0.184352  0.603691  0.127624  0.174447
    H   H2   0.807157  0.409389  0.876448  0.170730
    C   C5   0.186705  0.628164  0.254991  -0.049303
    C   C6   0.805092  0.378850  0.750654  -0.026381
    H   H3   0.226397  0.683182  0.245507  0.100765
    H   H4   0.766362  0.324101  0.763371  0.092558
    C   C7   0.155596  0.605331  0.333268  -0.189730
    C   C8   0.836296  0.397901  0.671177  -0.198288
    H   H5   0.169142  0.642899  0.384797  0.112018
    H   H6   0.823750  0.357701  0.621957  0.111817
    C   C9   0.103596  0.535540  0.345168  0.167750
    C   C10  0.886813  0.467393  0.655218  0.162699
    C   C11  0.081898  0.489246  0.278581  -0.190270
    C   C12  0.906996  0.517183  0.718992  -0.191901
    H   H7   0.042611  0.434610  0.290415  0.092533
    H   H8   0.944765  0.571505  0.703755  0.092006
    C   C13  0.110104  0.512267  0.199181  0.041565
    C   C14  0.879589  0.497855  0.799763  0.038880
    C   C15  0.163446  0.582362  0.188230  -0.228721
    C   C16  0.827479  0.428007  0.814696  -0.219516
    C   C17  0.927256  0.510768  0.430223  -0.131041
    C   C18  0.063285  0.487701  0.568898  -0.149293
    H   H9   0.875906  0.521789  0.374749  0.097969
    H   H10  0.114698  0.476451  0.624305  0.098849
    C   C19  0.866730  0.496324  0.503354  -0.107081
    C   C20  0.123732  0.502349  0.495794  -0.083644
    C   C21  0.937279  0.484523  0.573811  0.079599
    C   C22  0.053198  0.514925  0.425571  0.052612
    C   C23  0.490324  0.847822  0.573913  -0.218244
    C   C24  0.504698  0.150540  0.424420  -0.220804
    H   H11  0.480841  0.880862  0.629456  0.120763
    H   H12  0.515034  0.117730  0.368756  0.121033
    C   C25  0.486694  0.770266  0.578021  0.040139
    C   C26  0.507279  0.228091  0.420548  0.043093
    C   C27  0.495914  0.727708  0.505557  -0.078985
    C   C28  0.496526  0.270344  0.493096  -0.073488
    C   C29  0.507801  0.765884  0.431274  -0.071347
    C   C30  0.484469  0.232067  0.567229  -0.075485
    H   H13  0.515859  0.735602  0.373880  0.109054
    H   H14  0.475041  0.262281  0.624572  0.111775
    C   C31  0.509656  0.843565  0.428521  -0.219704
    C   C32  0.483532  0.154411  0.569788  -0.220096
    H   H15  0.517891  0.872200  0.370043  0.140845
    H   H16  0.474858  0.125596  0.628131  0.140617
    C   C33  0.500636  0.884475  0.500063  0.272546
    C   C34  0.493836  0.113714  0.498166  0.275332
    C   C35  0.498577  0.965207  0.498875  -0.150874
    C   C36  0.496137  0.033009  0.499210  -0.151785
    C   C37  0.562444  0.545042  0.829768  -0.135425
    C   C38  0.426929  0.452821  0.169112  -0.179351
    H   H17  0.616948  0.586467  0.861474  0.071123
    H   H18  0.370905  0.412024  0.137445  0.084315
    C   C39  0.561235  0.543238  0.745097  0.290917
    C   C40  0.428164  0.454899  0.253829  0.304908
    H   H19  0.616964  0.582664  0.711192  0.008499
    H   H20  0.371429  0.416126  0.287919  0.003317
    N   N1   0.489984  0.493764  0.704654  -0.189871
    N   N2   0.500821  0.503702  0.294198  -0.192948
    C   C41  0.423486  0.442694  0.746616  -0.020701
    C   C42  0.569971  0.553332  0.252191  0.014176
    H   H21  0.368479  0.402075  0.713809  0.137816
    H   H22  0.626981  0.592960  0.284918  0.130401
    C   C43  0.424434  0.442310  0.831776  -0.192975
    C   C44  0.569577  0.553184  0.167050  -0.259235
    H   H23  0.371288  0.401155  0.865115  0.116937
    H   H24  0.625183  0.592892  0.133552  0.137107
    C   C45  0.493181  0.494736  0.873770  0.170695
    C   C46  0.498212  0.502057  0.125108  0.255952
    C   C47  0.494632  0.497044  0.962311  -0.061513
    C   C48  0.496838  0.499765  0.036568  -0.127604
    C   C49  0.082727  0.462902  0.128059  0.123626
    C   C50  0.153556  0.465241  0.057330  -0.070670
    C   C51  0.131623  0.416113  0.993343  -0.123406
    C   C52  0.039479  0.363870  0.998958  0.087768
    Cl  Cl1  0.016439  0.298979  0.919322  -0.121580
    C   C53  0.966090  0.362559  0.067586  -0.101076
    C   C54  0.986461  0.412242  0.131304  -0.208448
    H   H25  0.229564  0.503391  0.051654  0.072975
    H   H26  0.188305  0.417832  0.939084  0.100080
    H   H27  0.892689  0.322170  0.071726  0.093278
    H   H28  0.924917  0.410881  0.183076  0.127428
    C   C55  0.908002  0.550300  0.868221  0.117469
    C   C56  0.840504  0.549910  0.940560  -0.038303
    C   C57  0.865035  0.600983  0.002346  -0.137895
    C   C58  0.956851  0.653016  0.993108  0.084819
    Cl  Cl2  0.984990  0.719248  0.070643  -0.121021
    C   C59  0.026534  0.652715  0.922763  -0.083143
    C   C60  0.003305  0.601300  0.861169  -0.221917
    H   H29  0.765411  0.511586  0.949474  0.056245
    H   H30  0.811040  0.600814  0.057922  0.101645
    H   H31  0.099674  0.692960  0.915719  0.088942
    H   H32  0.062403  0.601223  0.808189  0.131290
    C   C61  0.466754  0.738990  0.660296  0.192451
    C   C62  0.357219  0.704818  0.679550  -0.214558
    C   C63  0.330774  0.686761  0.760176  -0.150909
    C   C64  0.412096  0.704217  0.822040  0.103746
    Cl  Cl3  0.376766  0.683443  0.924733  -0.131565
    C   C65  0.521223  0.738540  0.803069  -0.106420
    C   C66  0.548236  0.756172  0.722470  -0.146869
    H   H33  0.290505  0.694201  0.631886  0.141826
    H   H34  0.245008  0.660402  0.775025  0.148300
    H   H35  0.584910  0.752587  0.851524  0.094759
    H   H36  0.632550  0.785083  0.708336  0.102544
    C   C67  0.526981  0.259689  0.338368  0.180230
    C   C68  0.444931  0.243025  0.276378  -0.141683
    C   C69  0.471888  0.260470  0.195732  -0.101833
    C   C70  0.581482  0.294145  0.176525  0.103064
    Cl  Cl4  0.616712  0.314341  0.073673  -0.129658
    C   C71  0.663459  0.311167  0.238205  -0.171229
    C   C72  0.636860  0.293411  0.318938  -0.193599
    H   H37  0.360352  0.214498  0.290697  0.101465
    H   H38  0.407863  0.246649  0.147397  0.093521
    H   H39  0.749914  0.336762  0.223068  0.153652
    H   H40  0.703912  0.303610  0.366499  0.136549
