# Generated by REPEAT Assigner based on pymatgen
data_DB0-m3_o96_o21_f0_fsc.sym.15
_audit_creation_date              2022-05-24
_audit_creation_method            REPEAT_Assigner
_cell_length_a                    12.173647
_cell_length_b                    13.115344
_cell_length_c                    16.404376
_cell_angle_alpha                 90.031698
_cell_angle_beta                  85.466800
_cell_angle_gamma                 94.552607
_cell_volume                      2602.673804
_symmetry_space_group_name_H-M    P1
_symmetry_Int_Tables_number       1
loop_
    _symmetry_equiv_pos_site_id
    _symmetry_equiv_pos_as_xyz
    1  x,y,z
loop_
    _atom_site_type_symbol
    _atom_site_label
    _atom_site_fract_x
    _atom_site_fract_y
    _atom_site_fract_z
    _atom_type_partial_charge
    C   C1   0.954889  0.802433  0.205701  0.216947
    C   C2   0.045203  0.197563  0.794310  0.217895
    C   C3   0.971110  0.735836  0.143009  -0.204253
    C   C4   0.028980  0.264159  0.857003  -0.205601
    C   C5   0.959135  0.787577  0.071029  0.415958
    C   C6   0.040956  0.212418  0.928983  0.417941
    N   N1   0.943138  0.886421  0.088103  -0.472198
    N   N2   0.056956  0.113575  0.911908  -0.471872
    C   C7   0.939873  0.895825  0.170619  0.197443
    C   C8   0.060222  0.104172  0.829392  0.195576
    C   C9   0.958834  0.746157  0.995855  -0.355993
    C   C10  0.041257  0.253840  0.004156  -0.357809
    C   C11  0.967894  0.806570  0.919312  -0.003592
    C   C12  0.032198  0.193427  0.080699  -0.002724
    C   C13  0.944646  0.766467  0.844074  0.199884
    C   C14  0.055444  0.233531  0.155937  0.199434
    C   C15  0.999546  0.828053  0.785059  -0.071758
    C   C16  0.000546  0.171945  0.214953  -0.071488
    C   C17  0.044097  0.913336  0.825831  0.082242
    C   C18  0.955997  0.086660  0.174180  0.083080
    N   N3   0.028597  0.896426  0.907637  -0.021737
    N   N4   0.971497  0.103570  0.092374  -0.022619
    C   C19  0.066657  0.016152  0.787997  -0.210316
    C   C20  0.933439  0.983845  0.212014  -0.211961
    H   H1   0.065656  0.020071  0.722357  0.166931
    H   H2   0.934441  0.979925  0.277654  0.167384
    H   H3   0.063145  0.939692  0.953682  0.223735
    H   H4   0.936951  0.060303  0.046329  0.224066
    C   C21  0.124607  0.316250  0.175139  -0.160233
    C   C22  0.875480  0.683750  0.824873  -0.160479
    C   C23  0.125108  0.344956  0.255723  -0.037071
    C   C24  0.874978  0.655043  0.744289  -0.036517
    C   C25  0.051230  0.296915  0.315183  -0.123165
    C   C26  0.948859  0.703082  0.684829  -0.124685
    C   C27  0.991425  0.204993  0.296242  -0.017911
    C   C28  0.008665  0.795003  0.703770  -0.016945
    C   C29  0.963161  0.773680  0.286145  -0.405607
    C   C30  0.036931  0.226316  0.713866  -0.405628
    C   C31  0.993581  0.675850  0.300096  0.117711
    C   C32  0.006507  0.324145  0.699916  0.117678
    C   C33  0.018116  0.612084  0.235548  -0.314716
    C   C34  0.981968  0.387909  0.764464  -0.315299
    C   C35  0.008754  0.641530  0.156511  0.100971
    C   C36  0.991331  0.358463  0.843501  0.101406
    H   H5   0.177524  0.358960  0.129159  0.138961
    H   H6   0.822563  0.641041  0.870853  0.139002
    H   H7   0.947109  0.824438  0.336805  0.173215
    H   H8   0.052984  0.175559  0.663206  0.173226
    H   H9   0.043603  0.537142  0.247524  0.199519
    H   H10  0.956478  0.462850  0.752489  0.199756
    H   H11  0.035964  0.591517  0.108445  0.035017
    H   H12  0.964118  0.408475  0.891568  0.035088
    H   H13  0.175048  0.413422  0.270065  0.104370
    H   H14  0.825038  0.586577  0.729948  0.104256
    O   O1   0.927690  0.373807  0.415612  -0.555197
    O   O2   0.072398  0.626189  0.584400  -0.555333
    O   O3   0.115516  0.408781  0.418559  -0.634918
    O   O4   0.884571  0.591215  0.581453  -0.635036
    C   C37  0.030076  0.356689  0.390524  0.695432
    C   C38  0.970011  0.643307  0.609489  0.696308
    O   O5   0.091278  0.616645  0.407612  -0.714609
    O   O6   0.908809  0.383351  0.592400  -0.714772
    O   O7   0.902420  0.582855  0.411124  -0.713989
    O   O8   0.097668  0.417141  0.588888  -0.713970
    C   C39  0.994820  0.631432  0.381077  0.853247
    C   C40  0.005268  0.368563  0.618936  0.853565
    Zn  Zn1  0.121629  0.524003  0.499798  1.065868
    Zn  Zn2  0.878457  0.475993  0.500214  1.066397
    N   N5   0.734413  0.451453  0.500824  -0.148866
    N   N6   0.265675  0.548543  0.499188  -0.148644
    C   C41  0.521606  0.454941  0.500948  -0.065421
    C   C42  0.478482  0.545055  0.499066  -0.065395
    C   C43  0.360740  0.548782  0.499097  0.228177
    C   C44  0.639347  0.451215  0.500916  0.228209
    H   H15  0.531947  0.615292  0.497511  0.192268
    H   H16  0.468137  0.384707  0.502503  0.192287
    N   N7   0.952151  0.637728  0.987709  0.696801
    O   O9   0.865576  0.583095  0.019754  -0.364468
    O   O10  0.023657  0.595504  0.938120  -0.345350
    N   N8   0.047940  0.362268  0.012301  0.697334
    O   O11  0.976433  0.404492  0.061890  -0.345331
    O   O12  0.134513  0.416902  0.980255  -0.364427
    N   N9   0.914324  0.154188  0.355924  0.604157
    O   O13  0.937026  0.150364  0.431955  -0.381341
    O   O14  0.816575  0.120796  0.336140  -0.386087
    N   N10  0.085766  0.845807  0.644087  0.604103
    O   O15  0.183516  0.879197  0.663870  -0.386186
    O   O16  0.063063  0.849633  0.568056  -0.381322
