# Generated by REPEAT Assigner based on pymatgen
data_DB0-m15_o6_o59_tfo
_audit_creation_date              2022-05-24
_audit_creation_method            REPEAT_Assigner
_cell_length_a                    32.939938
_cell_length_b                    29.356471
_cell_length_c                    23.713106
_cell_angle_alpha                 66.818417
_cell_angle_beta                  49.336594
_cell_angle_gamma                 90.076949
_cell_volume                      14856.306191
_symmetry_space_group_name_H-M    P1
_symmetry_Int_Tables_number       1
loop_
    _symmetry_equiv_pos_site_id
    _symmetry_equiv_pos_as_xyz
    1  x,y,z
loop_
    _atom_site_type_symbol
    _atom_site_label
    _atom_site_fract_x
    _atom_site_fract_y
    _atom_site_fract_z
    _atom_type_partial_charge
    Co  Co1  0.534994  0.545248  0.427016  1.087488
    Co  Co2  0.460412  0.455974  0.582021  1.087554
    O   O1   0.583227  0.546417  0.452598  -0.623066
    O   O2   0.476067  0.531523  0.423572  -0.621613
    O   O3   0.569367  0.496897  0.382809  -0.534853
    O   O4   0.489995  0.580788  0.493419  -0.539053
    O   O5   0.411938  0.455197  0.556667  -0.623712
    O   O6   0.519498  0.469727  0.585228  -0.622116
    O   O7   0.505159  0.420305  0.515670  -0.539354
    O   O8   0.426284  0.504277  0.626447  -0.532236
    C   C1   0.569574  0.509866  0.522722  0.738222
    C   C2   0.425738  0.491739  0.486358  0.741046
    C   C3   0.551069  0.445171  0.431692  0.412024
    C   C4   0.444390  0.555943  0.577529  0.411762
    C   C5   0.155854  0.682797  0.102466  0.032742
    C   C6   0.125081  0.654475  0.189699  -0.285844
    C   C7   0.103967  0.599322  0.235107  0.283360
    C   C8   0.112542  0.572765  0.193708  -0.259671
    C   C9   0.142458  0.600725  0.107611  0.028193
    C   C10  0.164865  0.655846  0.061075  -0.151239
    H   H1   0.118301  0.675879  0.221513  0.150996
    H   H2   0.095769  0.529729  0.227890  0.146957
    H   H3   0.173257  0.725870  0.067207  0.100226
    H   H4   0.148147  0.578080  0.078014  0.087879
    C   C11  0.324774  0.585467  0.737283  0.061766
    C   C12  0.359296  0.558576  0.702706  -0.307472
    C   C13  0.409451  0.584946  0.615098  0.315131
    C   C14  0.423903  0.637709  0.561581  -0.292219
    C   C15  0.389350  0.664560  0.595936  0.060497
    C   C16  0.340172  0.638774  0.684144  -0.178321
    H   H5   0.346764  0.516958  0.745324  0.158551
    H   H6   0.462367  0.658745  0.492485  0.155108
    H   H7   0.286744  0.564455  0.806574  0.087603
    H   H8   0.402609  0.706284  0.552834  0.083871
    C   C17  0.373543  0.922500  0.661429  0.030709
    C   C18  0.420285  0.969154  0.604981  -0.226826
    C   C19  0.465924  0.984790  0.518325  0.116754
    C   C20  0.461937  0.955538  0.487629  -0.187171
    C   C21  0.414861  0.910014  0.543129  0.022335
    C   C22  0.371653  0.891888  0.630983  -0.135912
    H   H9   0.421092  0.992274  0.630369  0.126641
    H   H10  0.496877  0.965554  0.421186  0.128105
    H   H11  0.340238  0.909225  0.729805  0.090128
    H   H12  0.414872  0.887479  0.516467  0.069199
    N   N1   0.214267  0.654139  0.930973  -0.703805
    C   C23  0.251509  0.677210  0.844861  0.830960
    N   N2   0.269319  0.646903  0.809227  -0.686958
    C   C24  0.201114  0.683678  0.967540  0.727134
    N   N3   0.226198  0.737341  0.916810  -0.756360
    C   C25  0.263379  0.760833  0.829697  0.906038
    N   N4   0.275725  0.730494  0.794189  -0.443945
    C   C26  0.314872  0.753226  0.707590  0.796110
    N   N5   0.332590  0.723073  0.671812  -0.686501
    C   C27  0.310437  0.669858  0.722457  0.689942
    N   N6   0.292049  0.814167  0.777533  -0.711259
    C   C28  0.331354  0.836756  0.690325  0.643976
    N   N7   0.342190  0.805991  0.656343  -0.645289
    Co  Co3  0.000398  0.464925  0.494599  1.078701
    Co  Co4  0.001070  0.552742  0.502001  1.076324
    O   O9   0.068758  0.472856  0.480108  -0.615154
    O   O10  0.931954  0.469253  0.510604  -0.616768
    O   O11  0.947258  0.426260  0.624214  -0.539558
    O   O12  0.053281  0.516007  0.366396  -0.537966
    O   O13  0.932446  0.544531  0.517012  -0.613338
    O   O14  0.069521  0.548278  0.486070  -0.614817
    O   O15  0.948181  0.501643  0.630379  -0.540306
    O   O16  0.054124  0.591528  0.372170  -0.536335
    C   C29  0.091110  0.510726  0.479241  0.741028
    C   C30  0.910112  0.506582  0.517936  0.741799
    C   C31  0.931139  0.449546  0.668972  0.435597
    C   C32  0.070235  0.568100  0.327581  0.429835
    C   C33  0.672308  0.416178  0.273267  0.070768
    C   C34  0.638009  0.443151  0.307928  -0.316687
    C   C35  0.585971  0.416082  0.394186  0.325917
    C   C36  0.569382  0.362329  0.446569  -0.305033
    C   C37  0.603579  0.335261  0.411967  0.078692
    C   C38  0.654685  0.361927  0.324793  -0.191226
    H   H13  0.652324  0.485485  0.266305  0.160367
    H   H14  0.529303  0.340657  0.514723  0.157529
    H   H15  0.711903  0.438039  0.204790  0.087302
    H   H16  0.588588  0.292803  0.453690  0.077556
    C   C39  0.586442  0.087011  0.437366  -0.129757
    C   C40  0.538002  0.042821  0.491604  -0.099879
    C   C41  0.519046  0.030568  0.459839  0.097771
    C   C42  0.551393  0.061301  0.371916  -0.187566
    C   C43  0.600964  0.104296  0.317241  -0.064144
    C   C44  0.617696  0.118052  0.350326  -0.030798
    H   H17  0.515096  0.018600  0.559114  0.114563
    H   H18  0.537165  0.054076  0.345060  0.110644
    H   H19  0.598996  0.097683  0.464097  0.099747
    H   H20  0.623567  0.129480  0.249975  0.142162
    C   C45  0.855985  0.413562  0.891935  0.026262
    C   C46  0.886725  0.442942  0.805360  -0.275696
    C   C47  0.896879  0.417668  0.761541  0.283885
    C   C48  0.876634  0.362633  0.804675  -0.277774
    C   C49  0.845280  0.333035  0.891891  0.020831
    C   C50  0.834646  0.358487  0.935890  -0.118645
    H   H21  0.902753  0.485930  0.772703  0.150352
    H   H22  0.884567  0.342190  0.771105  0.151262
    H   H23  0.848461  0.434790  0.924263  0.095551
    H   H24  0.828832  0.290030  0.924965  0.096190
    N   N8   0.660068  0.278292  0.331302  -0.696980
    C   C51  0.677900  0.250386  0.291474  0.850086
    N   N9   0.648530  0.197938  0.338459  -0.683627
    C   C52  0.684306  0.331692  0.284244  0.698857
    N   N10  0.727527  0.356948  0.197248  -0.697447
    C   C53  0.745433  0.329064  0.157412  0.881400
    N   N11  0.719222  0.275884  0.204249  -0.545478
    C   C54  0.731614  0.248743  0.163940  1.017927
    N   N12  0.700861  0.196333  0.211229  -0.835795
    C   C55  0.659668  0.170832  0.298716  0.721341
    N   N13  0.784462  0.355025  0.070540  -0.722116
    C   C56  0.797469  0.328279  0.029689  0.688147
    N   N14  0.770562  0.274993  0.076512  -0.743681
    H   H25  0.248631  0.585326  0.433874  0.152750
    C   C57  0.295634  0.544103  0.453897  -0.200227
    H   H26  0.322108  0.579130  0.435952  0.149722
    C   C58  0.303711  0.496407  0.477691  0.302848
    C   C59  0.268926  0.452322  0.500305  -0.200374
    H   H27  0.274235  0.414617  0.519137  0.152156
    C   C60  0.227230  0.455839  0.499125  -0.194602
    H   H28  0.200761  0.420815  0.517057  0.152297
    C   C61  0.219168  0.503538  0.475299  0.294409
    C   C62  0.253937  0.547620  0.452717  -0.194562
    C   C63  0.347712  0.492703  0.478881  -0.156271
    C   C64  0.175221  0.507251  0.474001  -0.145756
    C   C65  0.138617  0.510328  0.472844  -0.139791
    C   C66  0.384425  0.489588  0.479797  -0.116537
    H   H29  0.812045  0.593342  0.448403  0.151221
    C   C67  0.736374  0.557314  0.483912  -0.205555
    H   H30  0.736874  0.595189  0.449627  0.154398
    C   C68  0.693305  0.510556  0.527895  0.314203
    C   C69  0.694065  0.462719  0.571136  -0.209312
    H   H31  0.661040  0.425644  0.605961  0.152813
    C   C70  0.736718  0.461671  0.570441  -0.192691
    H   H32  0.736213  0.423795  0.604736  0.153936
    C   C71  0.779776  0.508430  0.526486  0.297269
    C   C72  0.779027  0.556265  0.483217  -0.195326
    C   C73  0.648308  0.511667  0.528678  -0.163914
    C   C74  0.824731  0.507330  0.525799  -0.148320
    C   C75  0.862189  0.506439  0.525280  -0.136115
    C   C76  0.610763  0.512631  0.529396  -0.114705
