# generated using pymatgen
data_VH5C11O6
_symmetry_space_group_name_H-M   'P 1'
_cell_length_a   6.32565800
_cell_length_b   15.74939600
_cell_length_c   16.35605800
_cell_angle_alpha   100.81176900
_cell_angle_beta   89.31668900
_cell_angle_gamma   90.71591200
_symmetry_Int_Tables_number   1
_chemical_formula_structural   VH5C11O6
_chemical_formula_sum   'V4 H20 C44 O24'
_cell_volume   1600.35069120
_cell_formula_units_Z   4
loop_
 _symmetry_equiv_pos_site_id
 _symmetry_equiv_pos_as_xyz
  1  'x, y, z'
loop_
 _atom_site_type_symbol
 _atom_site_label
 _atom_site_symmetry_multiplicity
 _atom_site_fract_x
 _atom_site_fract_y
 _atom_site_fract_z
 _atom_site_occupancy
  V  V1  1  0.92173300  0.49398900  0.49920900  1
  V  V2  1  0.42242700  0.51478400  0.49948400  1
  V  V3  1  0.31361600  0.01416700  0.99980500  1
  V  V4  1  0.81288900  0.99313100  0.99906400  1
  H  H1  1  0.46058900  0.72464400  0.67989600  1
  H  H2  1  0.41992300  0.84872600  0.79549800  1
  H  H3  1  0.33915700  0.72019700  0.38106700  1
  H  H4  1  0.85732800  0.55352100  0.25896300  1
  H  H5  1  0.42804400  0.85054900  0.33354400  1
  H  H6  1  0.80487800  0.65231600  0.16133400  1
  H  H7  1  0.37513700  0.94966900  0.23638500  1
  H  H8  1  0.89376000  0.78313200  0.11365700  1
  H  H9  1  0.39957000  0.30116400  0.62376900  1
  H  H10  1  0.94234400  0.43816800  0.73177000  1
  H  H11  1  0.27714500  0.17656000  0.67256500  1
  H  H12  1  0.97869300  0.33722500  0.82544300  1
  H  H13  1  0.30679400  0.07337100  0.76680700  1
  H  H14  1  0.89880900  0.14248400  0.23476700  1
  H  H15  1  0.33627700  0.24029100  0.14827400  1
  H  H16  1  0.35137900  0.36457800  0.26411100  1
  H  H17  1  0.94542700  0.15650800  0.91939400  1
  H  H18  1  0.08156700  0.21614200  0.35599500  1
  H  H19  1  0.58163700  0.74709900  0.81487600  1
  H  H20  1  0.76894600  0.61202100  0.62477200  1
  C  C1  1  0.66405100  0.43594700  0.61342400  1
  C  C2  1  0.63045500  0.39739500  0.38334300  1
  C  C3  1  0.12172600  0.57297600  0.38576400  1
  C  C4  1  0.16012200  0.61311000  0.61489000  1
  C  C5  1  0.30884800  0.73764200  0.71041200  1
  C  C6  1  0.28710700  0.80634200  0.77559100  1
  C  C7  1  0.09357800  0.82308100  0.81405800  1
  C  C8  1  0.92014000  0.77116400  0.78774300  1
  C  C9  1  0.94030500  0.70434900  0.71972500  1
  C  C10  1  0.13505400  0.68763500  0.68190300  1
  C  C11  1  0.10295500  0.63019400  0.32551700  1
  C  C12  1  0.12994100  0.87308400  0.16956500  1
  C  C13  1  0.31010400  0.83577400  0.28553100  1
  C  C14  1  0.27965500  0.89153400  0.23121400  1
  C  C15  1  0.00980100  0.79837400  0.16235400  1
  C  C16  1  0.04131800  0.74218900  0.21659200  1
  C  C17  1  0.19168800  0.76080200  0.27807500  1
  C  C18  1  0.22318800  0.70477700  0.33236300  1
  C  C19  1  0.95308700  0.61155800  0.26390400  1
  C  C20  1  0.92287600  0.66716900  0.20931400  1
  C  C21  1  0.66641700  0.37740500  0.67306200  1
  C  C22  1  0.57815400  0.13488000  0.82886500  1
  C  C23  1  0.40226900  0.18415800  0.71787800  1
  C  C24  1  0.42014900  0.12584200  0.77037300  1
  C  C25  1  0.72129600  0.20306000  0.83461400  1
  C  C26  1  0.70302900  0.26197200  0.78135100  1
  C  C27  1  0.54260900  0.25239500  0.72334300  1
  C  C28  1  0.52363000  0.31003500  0.66956300  1
  C  C29  1  0.82719800  0.38661300  0.73022300  1
  C  C30  1  0.84652600  0.32931900  0.78377200  1
  C  C31  1  0.79113200  0.26202300  0.30545400  1
  C  C32  1  0.77755200  0.19116200  0.24192500  1
  C  C33  1  0.61481500  0.18331500  0.18565600  1
  C  C34  1  0.46314500  0.24610500  0.19274700  1
  C  C35  1  0.47268900  0.31595600  0.25741500  1
  C  C36  1  0.63509200  0.32405200  0.31415400  1
  C  C37  1  0.61093600  0.10943100  0.11743400  1
  C  C38  1  0.57478800  0.07545900  0.88799700  1
  C  C39  1  0.07246400  0.89718400  0.88166200  1
  C  C40  1  0.11216600  0.93131500  0.11022200  1
  C  C41  1  0.88822700  0.21257900  0.89739900  1
  C  C42  1  0.97528100  0.27024800  0.35994700  1
  C  C43  1  0.72029200  0.78589600  0.83425800  1
  C  C44  1  0.76272800  0.64749900  0.68818100  1
  O  O1  1  0.46242000  0.44686400  0.38665200  1
  O  O2  1  0.83121700  0.48436900  0.61299600  1
  O  O3  1  0.04544800  0.60744300  0.54816900  1
  O  O4  1  0.74180300  0.39378300  0.45095900  1
  O  O5  1  0.96425900  0.51750600  0.38623000  1
  O  O6  1  0.53838400  0.42022600  0.54885100  1
  O  O7  1  0.65008700  0.56953200  0.49793700  1
  O  O8  1  0.25016600  0.59644200  0.45044900  1
  O  O9  1  0.33341900  0.56941100  0.61305700  1
  O  O10  1  0.14566500  0.43867700  0.49778700  1
  O  O11  1  0.69598600  0.09013900  0.95370900  1
  O  O12  1  0.49211200  0.11350600  0.05157300  1
  O  O13  1  0.27001800  0.98675600  0.11126300  1
  O  O14  1  0.40561800  0.02777100  0.88720900  1
  O  O15  1  0.19058400  0.90163400  0.94750800  1
  O  O16  1  0.77384400  0.05734400  0.11352300  1
  O  O17  1  0.58531500  0.93820700  0.99918300  1
  O  O18  1  0.90131100  0.94235400  0.88438700  1
  O  O19  1  0.98570200  0.90921200  0.04478300  1
  O  O20  1  0.08950200  0.06961000  0.00266200  1
  O  O21  1  0.96022900  0.28361800  0.92711100  1
  O  O22  1  0.01850400  0.33867100  0.40525300  1
  O  O23  1  0.71154500  0.83993200  0.89810600  1
  O  O24  1  0.61433900  0.63610800  0.73314900  1
