# generated using pymatgen
data_Fe2H17C42NO17
_symmetry_space_group_name_H-M   'P 1'
_cell_length_a   15.36547900
_cell_length_b   13.14828000
_cell_length_c   11.77935000
_cell_angle_alpha   77.98381500
_cell_angle_beta   101.24009600
_cell_angle_gamma   110.37119700
_symmetry_Int_Tables_number   1
_chemical_formula_structural   Fe2H17C42NO17
_chemical_formula_sum   'Fe2 H17 C42 N1 O17'
_cell_volume   2162.51144477
_cell_formula_units_Z   1
loop_
 _symmetry_equiv_pos_site_id
 _symmetry_equiv_pos_as_xyz
  1  'x, y, z'
loop_
 _atom_site_type_symbol
 _atom_site_label
 _atom_site_symmetry_multiplicity
 _atom_site_fract_x
 _atom_site_fract_y
 _atom_site_fract_z
 _atom_site_occupancy
  Fe  Fe1  1  0.49420400  0.00591500  0.75787700  1
  Fe  Fe2  1  0.49684800  0.00567100  0.26992100  1
  H  H1  1  0.77957800  0.00995300  0.29754000  1
  H  H2  1  0.82648200  0.99119800  0.90355500  1
  H  H3  1  0.01588900  0.95044200  0.13579700  1
  H  H4  1  0.97747400  0.06724700  0.88757300  1
  H  H5  1  0.06130400  0.01059200  0.76513700  1
  H  H6  1  0.21056700  0.00426400  0.73091800  1
  H  H7  1  0.16797400  0.03377800  0.12343700  1
  H  H8  1  0.47516900  0.59811400  0.79660900  1
  H  H9  1  0.47055000  0.27355400  0.72539500  1
  H  H10  1  0.53073400  0.40999900  0.23102600  1
  H  H11  1  0.50809000  0.67782200  0.37988500  1
  H  H12  1  0.52700800  0.55681600  0.30992500  1
  H  H13  1  0.05994900  0.99675400  0.49892100  1
  H  H14  1  0.04389500  0.84359300  0.65977300  1
  H  H15  1  0.91250200  0.67244900  0.64616600  1
  H  H16  1  0.79732700  0.65386600  0.46857100  1
  H  H17  1  0.81252400  0.80352400  0.30564100  1
  C  C1  1  0.79030900  0.00840400  0.20999300  1
  C  C2  1  0.87490500  0.00447100  0.19215800  1
  C  C3  1  0.88940400  0.00091300  0.08093300  1
  C  C4  1  0.81702300  0.99868100  0.98936200  1
  C  C5  1  0.73072000  0.99995300  0.00710200  1
  C  C6  1  0.71754500  0.00400100  0.11983800  1
  C  C7  1  0.97870300  0.99111500  0.06360500  1
  C  C8  1  0.01445700  0.02898900  0.96231700  1
  C  C9  1  0.11712900  0.01240800  0.83725000  1
  C  C10  1  0.20111400  0.00775300  0.81842200  1
  C  C11  1  0.27471300  0.01401400  0.90798300  1
  C  C12  1  0.26248300  0.02091300  0.02032400  1
  C  C13  1  0.17694700  0.02429500  0.03813700  1
  C  C14  1  0.10421300  0.02004900  0.94704800  1
  C  C15  1  0.47977600  0.16874500  0.57700900  1
  C  C16  1  0.36495000  0.02302400  0.87620700  1
  C  C17  1  0.65772100  0.99944900  0.90434300  1
  C  C18  1  0.48949700  0.80636900  0.70607000  1
  C  C19  1  0.50953600  0.20387000  0.32747100  1
  C  C20  1  0.33542800  0.02114300  0.12284700  1
  C  C21  1  0.62705200  0.99325400  0.15176300  1
  C  C22  1  0.51234300  0.84639600  0.45273200  1
  C  C23  1  0.49158400  0.72068300  0.64362700  1
  C  C24  1  0.48340200  0.61673800  0.70480200  1
  C  C25  1  0.48574900  0.53407400  0.65101200  1
  C  C26  1  0.47916900  0.35083200  0.66846200  1
  C  C27  1  0.50001800  0.73922000  0.52517100  1
  C  C28  1  0.50137600  0.65606500  0.47156800  1
  C  C29  1  0.49654700  0.55249800  0.53404400  1
  C  C30  1  0.50193000  0.46696200  0.48402000  1
  C  C31  1  0.49274400  0.36485500  0.55229000  1
  C  C32  1  0.49531300  0.27702700  0.50438800  1
  C  C33  1  0.51665400  0.48037000  0.36840400  1
  C  C34  1  0.51953800  0.39451100  0.32160100  1
  C  C35  1  0.50789000  0.29184800  0.38709000  1
  C  C36  1  0.94852300  0.00462300  0.29253500  1
  C  C37  1  0.93663900  0.91283500  0.39076700  1
  C  C38  1  0.00161100  0.92217000  0.49078500  1
  C  C39  1  0.99279600  0.83597000  0.58209900  1
  C  C40  1  0.91922100  0.73990900  0.57449900  1
  C  C41  1  0.85463900  0.72964200  0.47505500  1
  C  C42  1  0.86330400  0.81533800  0.38324000  1
  N  N1  1  0.47699900  0.43473800  0.71479300  1
  O  O1  1  0.54467500  0.15052400  0.66192800  1
  O  O2  1  0.43849300  0.10814700  0.89805700  1
  O  O3  1  0.39681100  0.09409100  0.56596900  1
  O  O4  1  0.36870200  0.95701300  0.80876000  1
  O  O5  1  0.57653400  0.00759900  0.91277100  1
  O  O6  1  0.67529100  0.99483000  0.80123400  1
  O  O7  1  0.49022000  0.90413900  0.65009700  1
  O  O8  1  0.48724500  0.78493100  0.81954900  1
  O  O9  1  0.49867200  0.10314800  0.38148000  1
  O  O10  1  0.51982000  0.22611300  0.21604900  1
  O  O11  1  0.41360600  0.00492900  0.11567500  1
  O  O12  1  0.31989600  0.03140200  0.22487400  1
  O  O13  1  0.59183900  0.92605500  0.46792400  1
  O  O14  1  0.62208800  0.05996600  0.21752300  1
  O  O15  1  0.44931200  0.85875300  0.36297400  1
  O  O16  1  0.55546000  0.90483300  0.13460000  1
  O  O17  1  0.02128600  0.08168000  0.29355800  1
