# Generated by REPEAT Assigner based on pymatgen
data_DB0-m9_o1_o19_f0_sra.sym.10_sqe
_audit_creation_date              2022-05-24
_audit_creation_method            REPEAT_Assigner
_cell_length_a                    16.830459
_cell_length_b                    6.477197
_cell_length_c                    14.693591
_cell_angle_alpha                 90.000000
_cell_angle_beta                  95.809066
_cell_angle_gamma                 90.000000
_cell_volume                      1593.584172
_symmetry_space_group_name_H-M    P1
_symmetry_Int_Tables_number       1
loop_
    _symmetry_equiv_pos_site_id
    _symmetry_equiv_pos_as_xyz
    1  x,y,z
loop_
    _atom_site_type_symbol
    _atom_site_label
    _atom_site_fract_x
    _atom_site_fract_y
    _atom_site_fract_z
    _atom_type_partial_charge
    O  O1   0.661568  0.367429  0.173828  -0.251428
    O  O2   0.338432  0.632635  0.826172  -0.251761
    O  O3   0.838432  0.867429  0.326172  -0.251447
    O  O4   0.161568  0.132635  0.673828  -0.251739
    O  O5   0.826922  0.726560  0.149099  -0.552385
    O  O6   0.173078  0.273505  0.850902  -0.552443
    O  O7   0.673078  0.226560  0.350902  -0.552388
    O  O8   0.326922  0.773505  0.649099  -0.552452
    C  C1   0.857774  0.538405  0.144871  0.851053
    C  C2   0.142226  0.461660  0.855129  0.851347
    C  C3   0.642226  0.038405  0.355129  0.851071
    C  C4   0.357774  0.961660  0.644871  0.851352
    O  O9   0.664384  0.725333  0.138321  -0.288867
    O  O10  0.335616  0.274732  0.861680  -0.289185
    O  O11  0.835616  0.225333  0.361680  -0.288869
    O  O12  0.164384  0.774732  0.638321  -0.289184
    O  O13  0.665345  0.866791  0.314856  -0.585371
    O  O14  0.334655  0.133274  0.685144  -0.585368
    O  O15  0.834655  0.366791  0.185144  -0.585358
    O  O16  0.165345  0.633274  0.814856  -0.585367
    C  C5   0.635081  0.536479  0.129810  0.268271
    C  C6   0.364919  0.463586  0.870190  0.268783
    C  C7   0.864919  0.036479  0.370190  0.268278
    C  C8   0.135081  0.963586  0.629810  0.268769
    O  O17  0.753309  0.571484  0.304450  -0.291174
    O  O18  0.246691  0.428581  0.695550  -0.291119
    O  O19  0.746691  0.071484  0.195550  -0.291157
    O  O20  0.253309  0.928581  0.804450  -0.291104
    V  V1   0.748621  0.825788  0.231008  1.065979
    V  V2   0.251379  0.174277  0.768992  1.065958
    V  V3   0.751379  0.325788  0.268992  1.066125
    V  V4   0.248621  0.674277  0.731008  1.066191
    C  C9   0.956531  0.178995  0.492580  -0.259671
    C  C10  0.043469  0.821070  0.507421  -0.259986
    C  C11  0.543469  0.678995  0.007421  -0.259645
    C  C12  0.456531  0.321070  0.992579  -0.259969
    H  H1   0.921063  0.316743  0.487133  0.144100
    H  H2   0.078937  0.683322  0.512868  0.144133
    H  H3   0.578937  0.816743  0.012868  0.144093
    H  H4   0.421063  0.183322  0.987133  0.144118
    C  C13  0.024708  0.167446  0.552166  0.088593
    C  C14  0.975292  0.832619  0.447834  0.088988
    C  C15  0.475291  0.667446  0.947834  0.088545
    C  C16  0.524708  0.332619  0.052166  0.088975
    C  C17  0.067156  0.986765  0.561174  0.078729
    C  C18  0.932844  0.013300  0.438826  0.078529
    C  C19  0.432844  0.486765  0.938826  0.078729
    C  C20  0.567156  0.513300  0.061174  0.078520
    C  C21  0.419079  0.983515  0.583268  -0.271714
    C  C22  0.580921  0.016550  0.416732  -0.271291
    C  C23  0.080921  0.483515  0.916732  -0.271714
    C  C24  0.919079  0.516550  0.083268  -0.271286
    C  C25  0.470112  0.994826  0.530897  0.078730
    C  C26  0.529888  0.005239  0.469104  0.078217
    C  C27  0.029888  0.494826  0.969104  0.078722
    C  C28  0.970112  0.505239  0.030897  0.078224
    C  C29  0.061361  0.357349  0.591367  -0.055978
    C  C30  0.137054  0.384302  0.543913  -0.211714
    H  H5   0.170391  0.236671  0.545759  0.053757
    H  H6   0.121293  0.420895  0.470543  0.034596
    H  H7   0.176754  0.503086  0.576982  0.049975
    H  H8   0.018450  0.485345  0.576730  0.079607
    H  H9   0.074183  0.344566  0.666574  -0.025093
    C  C31  0.938639  0.642716  0.408634  -0.056171
    C  C32  0.862946  0.615762  0.456087  -0.211877
    H  H10  0.878707  0.579170  0.529457  0.034622
    H  H11  0.829609  0.763394  0.454242  0.053889
    H  H12  0.823246  0.496979  0.423019  0.049937
    H  H13  0.925817  0.655499  0.333426  -0.025054
    H  H14  0.981550  0.514719  0.423270  0.079640
    C  C33  0.438639  0.857349  0.908634  -0.055834
    C  C34  0.362946  0.884302  0.956087  -0.211757
    H  H15  0.329609  0.736671  0.954242  0.053764
    H  H16  0.378707  0.920895  0.029457  0.034601
    H  H17  0.323246  0.003086  0.923019  0.049992
    H  H18  0.481550  0.985345  0.923270  0.079533
    H  H19  0.425817  0.844566  0.833426  -0.025112
    C  C35  0.561361  0.142716  0.091367  -0.056112
    C  C36  0.637054  0.115762  0.043913  -0.211890
    H  H20  0.621293  0.079170  0.970543  0.034640
    H  H21  0.670391  0.263394  0.045759  0.053883
    H  H22  0.676754  0.996979  0.076982  0.049926
    H  H23  0.574183  0.155499  0.166574  -0.025071
    H  H24  0.518450  0.014719  0.076730  0.079622
