data_DB0-m2_o11_o25_f0_pcu.sym.33_repeat
_audit_creation_date              2024-02-23
_audit_creation_method            'Materials Studio'
_symmetry_space_group_name_H-M    'P1'
_symmetry_Int_Tables_number       1
_symmetry_cell_setting            triclinic
loop_
_symmetry_equiv_pos_as_xyz
  x,y,z
_cell_length_a                    15.8728
_cell_length_b                    11.0495
_cell_length_c                    9.5646
_cell_angle_alpha                 90.0206
_cell_angle_beta                  90.0172
_cell_angle_gamma                 90.0035
loop_
_atom_site_label
_atom_site_type_symbol
_atom_site_fract_x
_atom_site_fract_y
_atom_site_fract_z
_atom_site_U_iso_or_equiv
_atom_site_adp_type
_atom_site_occupancy
O1     O     0.49611   0.32276   0.62477   0.00000  Uiso   1.00
O2     O     0.50513   0.31697   0.38476   0.00000  Uiso   1.00
C1     C     0.49615   0.26356   0.50603   0.00000  Uiso   1.00
O3     O     0.37951   0.51342   0.60901   0.00000  Uiso   1.00
O4     O     0.38576   0.50368   0.36909   0.00000  Uiso   1.00
C2     C     0.34338   0.50779   0.48645   0.00000  Uiso   1.00
Cu1    Cu    0.50074   0.49895   0.63896   0.00000  Uiso   1.00
Cu2    Cu    0.50845   0.49228   0.35940   0.00000  Uiso   1.00
O5     O     0.51217   0.67340   0.61413   0.00000  Uiso   1.00
O6     O     0.51564   0.66847   0.37390   0.00000  Uiso   1.00
O7     O     0.62359   0.49153   0.62949   0.00000  Uiso   1.00
O8     O     0.63011   0.48908   0.38898   0.00000  Uiso   1.00
C3     C     0.51447   0.72750   0.49299   0.00000  Uiso   1.00
C4     C     0.66591   0.48465   0.51205   0.00000  Uiso   1.00
C5     C     0.98248   0.39932   0.56719   0.00000  Uiso   1.00
C6     C     0.03246   0.40246   0.43156   0.00000  Uiso   1.00
H1     H     0.05784   0.32294   0.37470   0.00000  Uiso   1.00
H2     H     0.96193   0.31688   0.62382   0.00000  Uiso   1.00
H3     H     0.94350   0.49492   0.26670   0.00000  Uiso   1.00
C7     C     0.25303   0.50924   0.48202   0.00000  Uiso   1.00
C8     C     0.75626   0.48561   0.51663   0.00000  Uiso   1.00
C9     C     0.03674   0.50049   0.62666   0.00000  Uiso   1.00
C10    C     0.08511   0.50354   0.49113   0.00000  Uiso   1.00
C11    C     0.97677   0.59479   0.56728   0.00000  Uiso   1.00
C12    C     0.92415   0.49367   0.50770   0.00000  Uiso   1.00
C13    C     0.02680   0.59792   0.43163   0.00000  Uiso   1.00
C14    C     0.97252   0.49674   0.37216   0.00000  Uiso   1.00
C15    C     0.17713   0.50778   0.48393   0.00000  Uiso   1.00
C16    C     0.83214   0.48850   0.51483   0.00000  Uiso   1.00
H4     H     0.04739   0.68033   0.37499   0.00000  Uiso   1.00
H5     H     0.95145   0.67435   0.62414   0.00000  Uiso   1.00
H6     H     0.06579   0.50231   0.73210   0.00000  Uiso   1.00
C17    C     0.49924   0.93019   0.39101   0.00000  Uiso   1.00
C18    C     0.52425   0.85912   0.49562   0.00000  Uiso   1.00
H7     H     0.47713   0.88952   0.29462   0.00000  Uiso   1.00
H8     H     0.55162   0.89765   0.58873   0.00000  Uiso   1.00
C19    C     0.50616   0.06360   0.39837   0.00000  Uiso   1.00
C20    C     0.48802   0.13143   0.51173   0.00000  Uiso   1.00
H9     H     0.52423   0.10872   0.30244   0.00000  Uiso   1.00
C21    C     0.46950   0.41527   0.92502   0.00000  Uiso   1.00
N1     N     0.49362   0.50456   0.84772   0.00000  Uiso   1.00
H10    H     0.45804   0.32761   0.87826   0.00000  Uiso   1.00
C22    C     0.46020   0.42574   0.07848   0.00000  Uiso   1.00
N2     N     0.51393   0.48602   0.15059   0.00000  Uiso   1.00
H11    H     0.40987   0.37725   0.13061   0.00000  Uiso   1.00
H12    H     0.56811   0.51028   0.09885   0.00000  Uiso   1.00
N3     N     0.45241   0.08113   0.63624   0.00000  Uiso   1.00
H13    H     0.50013   0.05045   0.70228   0.00000  Uiso   1.00
H14    H     0.40937   0.01303   0.61140   0.00000  Uiso   1.00
N4     N     0.47377   0.61955   0.89702   0.00000  Uiso   1.00
H15    H     0.52332   0.65313   0.95716   0.00000  Uiso   1.00
H16    H     0.41678   0.61739   0.95142   0.00000  Uiso   1.00
