# generated using pymatgen
data_ZnH3C11NO6
_symmetry_space_group_name_H-M   'P 1'
_cell_length_a   8.56918600
_cell_length_b   13.40698600
_cell_length_c   12.82556300
_cell_angle_alpha   90.00000000
_cell_angle_beta   90.00000000
_cell_angle_gamma   90.00000000
_symmetry_Int_Tables_number   1
_chemical_formula_structural   ZnH3C11NO6
_chemical_formula_sum   'Zn2 H6 C22 N2 O12'
_cell_volume   1473.48990146
_cell_formula_units_Z   2
loop_
 _symmetry_equiv_pos_site_id
 _symmetry_equiv_pos_as_xyz
  1  'x, y, z'
loop_
 _atom_site_type_symbol
 _atom_site_label
 _atom_site_symmetry_multiplicity
 _atom_site_fract_x
 _atom_site_fract_y
 _atom_site_fract_z
 _atom_site_occupancy
  Zn  Zn1  1  0.50000400  0.51158700  0.11763100  1
  Zn  Zn2  1  0.49999600  0.48835400  0.88285300  1
  H  H1  1  0.99994300  0.56659500  0.95369700  1
  H  H2  1  0.00005700  0.43337100  0.04676700  1
  H  H3  1  0.30679600  0.86428800  0.93071400  1
  H  H4  1  0.70109300  0.15209000  0.92140200  1
  H  H5  1  0.30663000  0.13541100  0.06961500  1
  H  H6  1  0.69350200  0.86468400  0.93077800  1
  C  C1  1  0.13931500  0.69458300  0.98053900  1
  C  C2  1  0.86067600  0.30537700  0.01995400  1
  C  C3  1  0.13937900  0.30535800  0.01994700  1
  C  C4  1  0.86059900  0.69458800  0.98054100  1
  C  C5  1  0.13988800  0.79663500  0.99385000  1
  C  C6  1  0.86005300  0.20333200  0.00665900  1
  C  C7  1  0.13996600  0.20331600  0.00652400  1
  C  C8  1  0.85997800  0.79662500  0.99394900  1
  C  C9  1  0.99992900  0.84808000  0.99557400  1
  C  C10  1  0.99999900  0.15185600  0.00493600  1
  C  C11  1  0.99995500  0.64559400  0.96758600  1
  C  C12  1  0.00003600  0.35436200  0.03289500  1
  C  C13  1  0.99994600  0.95504000  0.99931400  1
  C  C14  1  0.99997200  0.04489400  0.00120200  1
  C  C15  1  0.49998500  0.51616400  0.34405500  1
  C  C16  1  0.49998600  0.48378000  0.65642600  1
  C  C17  1  0.28111100  0.63449200  0.98730100  1
  C  C18  1  0.71888800  0.36545100  0.01318500  1
  C  C19  1  0.28112600  0.36545500  0.01318700  1
  C  C20  1  0.71886100  0.63448700  0.98729400  1
  C  C21  1  0.49996500  0.50524000  0.45357900  1
  C  C22  1  0.49997200  0.49471700  0.54690400  1
  N  N1  1  0.50001000  0.52238000  0.25407300  1
  N  N2  1  0.49999200  0.47755600  0.74641000  1
  O  O1  1  0.33274100  0.59246500  0.90167500  1
  O  O2  1  0.66726100  0.40747800  0.09880800  1
  O  O3  1  0.66586700  0.38785600  0.91998600  1
  O  O4  1  0.33411600  0.61207300  0.08049900  1
  O  O5  1  0.33273300  0.40748900  0.09881300  1
  O  O6  1  0.66727800  0.59244200  0.90167100  1
  O  O7  1  0.66588700  0.61207100  0.08049400  1
  O  O8  1  0.33410500  0.38787400  0.91998700  1
  O  O9  1  0.27785900  0.84687700  0.00319200  1
  O  O10  1  0.72202800  0.15315600  0.99730600  1
  O  O11  1  0.27795700  0.15309600  0.99716200  1
  O  O12  1  0.72196900  0.84684700  0.00322900  1
