# Generated by REPEAT Assigner based on pymatgen
data_DB0-m29_o86_o47_f0_pts.sym.8
_audit_creation_date              2022-05-24
_audit_creation_method            REPEAT_Assigner
_cell_length_a                    9.395293
_cell_length_b                    13.972436
_cell_length_c                    15.334982
_cell_angle_alpha                 94.078017
_cell_angle_beta                  94.199609
_cell_angle_gamma                 74.734720
_cell_volume                      1934.046361
_symmetry_space_group_name_H-M    P1
_symmetry_Int_Tables_number       1
loop_
    _symmetry_equiv_pos_site_id
    _symmetry_equiv_pos_as_xyz
    1  x,y,z
loop_
    _atom_site_type_symbol
    _atom_site_label
    _atom_site_fract_x
    _atom_site_fract_y
    _atom_site_fract_z
    _atom_type_partial_charge
    C   C1   0.088459  0.988060  0.177204  0.052508
    C   C2   0.982220  0.985714  0.234000  -0.186999
    C   C3   0.838469  0.992065  0.203481  0.084719
    C   C4   0.802176  0.998512  0.114798  -0.250637
    C   C5   0.908971  0.998234  0.057182  0.257540
    C   C6   0.052537  0.993061  0.087823  0.022424
    C   C7   0.870665  0.003491  0.968661  -0.254898
    C   C8   0.976096  0.001486  0.909262  0.014368
    C   C9   0.119666  0.996301  0.939902  0.265894
    C   C10  0.157973  0.991037  0.028422  -0.263756
    C   C11  0.940164  0.006530  0.819885  0.059326
    C   C12  0.046396  0.008890  0.763093  -0.191861
    C   C13  0.190146  0.002523  0.793609  0.091452
    C   C14  0.226455  0.996041  0.882288  -0.254157
    H   H1   0.011764  0.982771  0.303360  0.203728
    H   H2   0.690046  0.003233  0.089949  0.180132
    H   H3   0.016835  0.011879  0.693737  0.204080
    H   H4   0.338587  0.991317  0.907134  0.180626
    H   H5   0.272347  0.983323  0.049232  0.166965
    H   H6   0.756295  0.011194  0.947848  0.168412
    O   O1   0.590567  0.993027  0.236228  -0.580594
    C   C15  0.725979  0.992026  0.265114  0.602615
    O   O2   0.674423  0.804789  0.309464  -0.514391
    O   O3   0.761595  0.987141  0.349352  -0.511122
    O   O4   0.544410  0.882855  0.423827  -0.530833
    C   C16  0.642122  0.805573  0.391363  0.573888
    Fe  Fe1  0.469942  0.981111  0.333436  1.448946
    O   O5   0.295413  0.936429  0.279824  -0.637401
    O   O6   0.290510  0.064069  0.195194  -0.552664
    C   C17  0.233872  0.992569  0.215137  0.633161
    O   O7   0.439409  0.116318  0.394312  -0.608096
    O   O8   0.219718  0.084043  0.414904  -0.486989
    C   C18  0.307199  0.143787  0.425649  0.721518
    O   O9   0.589068  0.878551  0.602614  -0.611135
    O   O10  0.809034  0.910614  0.582373  -0.491397
    C   C19  0.721410  0.850973  0.571449  0.730405
    O   O11  0.733225  0.058349  0.717308  -0.632651
    O   O12  0.738029  0.930607  0.801798  -0.563371
    C   C20  0.794722  0.002116  0.781944  0.632015
    O   O13  0.266960  0.007538  0.647742  -0.512223
    O   O14  0.484173  0.112138  0.573265  -0.532598
    C   C21  0.386217  0.189326  0.605677  0.591763
    O   O15  0.437986  0.001692  0.760858  -0.574742
    C   C22  0.302600  0.002626  0.731976  0.595916
    O   O16  0.353636  0.190003  0.687510  -0.506940
    Fe  Fe2  0.558536  0.013789  0.663592  1.444189
    C   C23  0.251503  0.244227  0.464960  -0.085556
    C   C24  0.298803  0.268445  0.549681  -0.050970
    C   C25  0.243370  0.364454  0.585638  0.080517
    C   C26  0.301365  0.395458  0.665229  -0.112898
    C   C27  0.239136  0.487612  0.703062  -0.192143
    C   C28  0.087723  0.287537  0.337033  -0.126490
    C   C29  0.139714  0.312123  0.420339  0.058181
    C   C30  0.076736  0.404523  0.459529  0.075798
    C   C31  0.971758  0.352547  0.295199  -0.146769
    C   C32  0.907581  0.443807  0.334816  0.121154
    C   C33  0.129785  0.431075  0.541415  -0.007147
    C   C34  0.067410  0.524071  0.579817  0.011954
    C   C35  0.120843  0.550986  0.661381  0.172810
    C   C36  0.057351  0.641838  0.701322  -0.154222
    C   C37  0.961054  0.470744  0.416555  -0.070504
    C   C38  0.898719  0.563768  0.455117  0.017108
    C   C39  0.951777  0.590284  0.537010  0.022107
    C   C40  0.888918  0.682631  0.576462  0.070247
    C   C41  0.941202  0.707081  0.659825  -0.128878
    C   C42  0.789044  0.507820  0.293121  0.282153
    C   C43  0.726558  0.599568  0.331775  -0.297526
    C   C44  0.784962  0.630433  0.411203  0.077787
    C   C45  0.729523  0.726398  0.447312  -0.005034
    C   C46  0.776997  0.750571  0.532013  -0.113167
    H   H7   0.398498  0.350651  0.698603  0.120829
    H   H8   0.284410  0.509998  0.765688  0.141367
    H   H9   0.134463  0.217882  0.302117  0.131558
    H   H10  0.932788  0.330414  0.230842  0.132302
    H   H11  0.098264  0.662540  0.765705  0.116142
    H   H12  0.894636  0.776665  0.694901  0.140407
    H   H13  0.628559  0.644336  0.299141  0.181908
    O   O17  0.729532  0.479793  0.214435  -0.349269
    C   C47  0.788589  0.523653  0.151739  0.167582
    H   H14  0.896021  0.536287  0.177313  -0.005913
    H   H15  0.710720  0.595536  0.135260  0.023072
    H   H16  0.806598  0.473489  0.091933  0.024369
