# generated using pymatgen
data_Fe2H16C39O16
_symmetry_space_group_name_H-M   'P 1'
_cell_length_a   15.69233600
_cell_length_b   12.19714500
_cell_length_c   13.35759400
_cell_angle_alpha   91.31456100
_cell_angle_beta   87.09570500
_cell_angle_gamma   107.81317300
_symmetry_Int_Tables_number   1
_chemical_formula_structural   Fe2H16C39O16
_chemical_formula_sum   'Fe2 H16 C39 O16'
_cell_volume   2430.89635481
_cell_formula_units_Z   1
loop_
 _symmetry_equiv_pos_site_id
 _symmetry_equiv_pos_as_xyz
  1  'x, y, z'
loop_
 _atom_site_type_symbol
 _atom_site_label
 _atom_site_symmetry_multiplicity
 _atom_site_fract_x
 _atom_site_fract_y
 _atom_site_fract_z
 _atom_site_occupancy
  Fe  Fe1  1  0.52579100  0.01534800  0.18344500  1
  Fe  Fe2  1  0.52237600  0.01498400  0.73848300  1
  H  H1  1  0.93638000  0.01911600  0.80848000  1
  H  H2  1  0.18906500  0.98417600  0.80741400  1
  H  H3  1  0.04275800  0.96774100  0.84671500  1
  H  H4  1  0.79586200  0.01980300  0.76054200  1
  H  H5  1  0.24592800  0.98532100  0.16508800  1
  H  H6  1  0.09488600  0.96862600  0.20407900  1
  H  H7  1  0.79417400  0.96482900  0.19506700  1
  H  H8  1  0.52323500  0.59696800  0.61826000  1
  H  H9  1  0.46384800  0.57575700  0.30466100  1
  H  H10  1  0.48771000  0.41653600  0.29788800  1
  H  H11  1  0.48656700  0.41816800  0.62180000  1
  H  H12  1  0.48000200  0.87623800  0.47711900  1
  H  H13  1  0.51704800  0.13561600  0.45147800  1
  H  H14  1  0.87778400  0.95913200  0.32174100  1
  H  H15  1  0.95857000  0.88429900  0.29560300  1
  H  H16  1  0.99325100  0.04097600  0.30062000  1
  C  C1  1  0.88462100  0.00052500  0.86696200  1
  C  C2  1  0.28863600  0.99604200  0.91435600  1
  C  C3  1  0.20272000  0.98452000  0.88586800  1
  C  C4  1  0.13406400  0.97765900  0.95651600  1
  C  C5  1  0.05056900  0.97310300  0.92619300  1
  C  C6  1  0.98118000  0.97387800  0.99560500  1
  C  C7  1  0.80331200  0.00468000  0.83853400  1
  C  C8  1  0.73174000  0.98585900  0.90612400  1
  C  C9  1  0.89782000  0.97902600  0.96580300  1
  C  C10  1  0.82748000  0.96854500  0.03667500  1
  C  C11  1  0.74270200  0.96839200  0.00659900  1
  C  C12  1  0.30419300  0.99672200  0.01657900  1
  C  C13  1  0.23357000  0.98391600  0.08613300  1
  C  C14  1  0.14917200  0.97683000  0.05625900  1
  C  C15  1  0.08027600  0.97035900  0.12624300  1
  C  C16  1  0.99608600  0.96922400  0.09681000  1
  C  C17  1  0.92726300  0.96546600  0.16757400  1
  C  C18  1  0.84429700  0.96443000  0.13726700  1
  C  C19  1  0.66666667  0.95868500  0.07973100  1
  C  C20  1  0.47798800  0.80038500  0.29078600  1
  C  C21  1  0.39351100  0.01753600  0.05580000  1
  C  C22  1  0.48936700  0.19984100  0.27904700  1
  C  C23  1  0.51701400  0.80765400  0.64580500  1
  C  C24  1  0.64596600  0.98374200  0.86650400  1
  C  C25  1  0.51193600  0.21250900  0.63686100  1
  C  C26  1  0.35855700  0.00226800  0.83452700  1
  C  C27  1  0.49481900  0.73620900  0.55628100  1
  C  C28  1  0.50281800  0.62709500  0.55124800  1
  C  C29  1  0.48702000  0.56227600  0.46275200  1
  C  C30  1  0.47238800  0.61726000  0.37686600  1
  C  C31  1  0.47348300  0.73143800  0.38100300  1
  C  C32  1  0.47996200  0.78768300  0.47189900  1
  C  C33  1  0.49347700  0.38166600  0.36947200  1
  C  C34  1  0.50166300  0.27228400  0.36856400  1
  C  C35  1  0.51213600  0.22206500  0.45547400  1
  C  C36  1  0.50768000  0.27572300  0.54600300  1
  C  C37  1  0.49475900  0.38296800  0.54875100  1
  C  C38  1  0.49212100  0.44114100  0.46001100  1
  C  C39  1  0.94021900  0.96231600  0.27764900  1
  O  O1  1  0.61905900  0.03030000  0.07469900  1
  O  O2  1  0.45453800  0.75197900  0.20350800  1
  O  O3  1  0.64448200  0.87680000  0.14689300  1
  O  O4  1  0.51401800  0.91269300  0.29946600  1
  O  O5  1  0.40655000  0.94728800  0.12241700  1
  O  O6  1  0.45513000  0.11677300  0.03915800  1
  O  O7  1  0.55987200  0.17677900  0.23817200  1
  O  O8  1  0.41013500  0.12464400  0.26906100  1
  O  O9  1  0.45944300  0.85936400  0.68106800  1
  O  O10  1  0.60177000  0.85031900  0.66582400  1
  O  O11  1  0.64617900  0.04756700  0.78855200  1
  O  O12  1  0.57115300  0.90721800  0.89798400  1
  O  O13  1  0.33677900  0.98677100  0.74053000  1
  O  O14  1  0.54485400  0.12568700  0.62686000  1
  O  O15  1  0.44226200  0.02108000  0.85637000  1
  O  O16  1  0.47590900  0.23398100  0.72293300  1
