# generated using pymatgen
data_ZnH12C16NO5
_symmetry_space_group_name_H-M   'P 1'
_cell_length_a   9.77246000
_cell_length_b   10.94477900
_cell_length_c   13.67648800
_cell_angle_alpha   89.99619800
_cell_angle_beta   74.64114800
_cell_angle_gamma   90.00396600
_symmetry_Int_Tables_number   1
_chemical_formula_structural   ZnH12C16NO5
_chemical_formula_sum   'Zn2 H24 C32 N2 O10'
_cell_volume   1410.55909931
_cell_formula_units_Z   2
loop_
 _symmetry_equiv_pos_site_id
 _symmetry_equiv_pos_as_xyz
  1  'x, y, z'
loop_
 _atom_site_type_symbol
 _atom_site_label
 _atom_site_symmetry_multiplicity
 _atom_site_fract_x
 _atom_site_fract_y
 _atom_site_fract_z
 _atom_site_occupancy
  Zn  Zn1  1  0.36706300  0.46607100  0.50042100  1
  Zn  Zn2  1  0.67954000  0.46536200  0.49641000  1
  H  H1  1  0.80215500  0.64451800  0.85322000  1
  H  H2  1  0.87631100  0.63037700  0.00130000  1
  H  H3  1  0.44060800  0.41655100  0.17707300  1
  H  H4  1  0.21962200  0.35728000  0.80852000  1
  H  H5  1  0.30346200  0.36899700  0.09257600  1
  H  H6  1  0.15371300  0.31541600  0.98870300  1
  H  H7  1  0.63962800  0.60123300  0.75618800  1
  H  H8  1  0.74030300  0.85588700  0.50452400  1
  H  H9  1  0.74245100  0.07650300  0.49703500  1
  H  H10  1  0.30561700  0.07558000  0.49373700  1
  H  H11  1  0.30357800  0.85490000  0.50086500  1
  H  H12  1  0.18578100  0.30579100  0.41471900  1
  H  H13  1  0.11009500  0.62572300  0.58999400  1
  H  H14  1  0.86113200  0.62302500  0.58518400  1
  H  H15  1  0.70818400  0.72362100  0.26304700  1
  H  H16  1  0.83917700  0.77230200  0.14933200  1
  H  H17  1  0.02873400  0.74970900  0.23636400  1
  H  H18  1  0.89252500  0.85443000  0.30314500  1
  H  H19  1  0.89954000  0.70053200  0.35043400  1
  H  H20  1  0.09499200  0.28121400  0.26845500  1
  H  H21  1  0.97079100  0.40644400  0.27901400  1
  H  H22  1  0.78546300  0.25346900  0.26176400  1
  H  H23  1  0.93834900  0.25689500  0.15272900  1
  H  H24  1  0.91828900  0.13489700  0.24477300  1
  C  C1  1  0.52145800  0.70489500  0.50485500  1
  C  C2  1  0.45353500  0.45892000  0.69737400  1
  C  C3  1  0.52494600  0.22647300  0.49220300  1
  C  C4  1  0.59309000  0.47619600  0.29980500  1
  C  C5  1  0.77975700  0.58289800  0.03905500  1
  C  C6  1  0.62981100  0.49677900  0.18946500  1
  C  C7  1  0.28836100  0.38876500  0.85350300  1
  C  C8  1  0.25145300  0.36356400  0.95518800  1
  C  C9  1  0.33975500  0.39497600  0.01428000  1
  C  C10  1  0.46630200  0.45733100  0.97312800  1
  C  C11  1  0.50029900  0.48785400  0.87010000  1
  C  C12  1  0.55945700  0.49040400  0.03193500  1
  C  C13  1  0.68289100  0.55280200  0.98598200  1
  C  C14  1  0.70946400  0.58999500  0.88703800  1
  C  C15  1  0.61762800  0.56118300  0.83054800  1
  C  C16  1  0.53409500  0.46361200  0.13525300  1
  C  C17  1  0.75372800  0.55684900  0.14052100  1
  C  C18  1  0.41380500  0.44822100  0.80910500  1
  C  C19  1  0.64413900  0.90304000  0.50208800  1
  C  C20  1  0.64542400  0.02891400  0.49751200  1
  C  C21  1  0.52438100  0.09240700  0.49421300  1
  C  C22  1  0.40189400  0.02837700  0.49585800  1
  C  C23  1  0.40066900  0.90248400  0.50027000  1
  C  C24  1  0.52182000  0.83897900  0.50334000  1
  C  C25  1  0.97505600  0.37687100  0.44659900  1
  C  C26  1  0.11425200  0.37713100  0.45172500  1
  C  C27  1  0.07255200  0.55409700  0.54924700  1
  C  C28  1  0.93263700  0.55288100  0.54594700  1
  C  C29  1  0.82013100  0.71431700  0.21809400  1
  C  C30  1  0.91657300  0.75763800  0.28130600  1
  C  C31  1  0.98163900  0.30789100  0.29380000  1
  C  C32  1  0.90042100  0.23355100  0.23434500  1
  N  N1  1  0.16174900  0.46603300  0.50209300  1
  N  N2  1  0.88503800  0.46465700  0.49460300  1
  O  O1  1  0.40328500  0.64796700  0.50481400  1
  O  O2  1  0.64024300  0.64739900  0.50268800  1
  O  O3  1  0.35146700  0.46015400  0.65111800  1
  O  O4  1  0.58830500  0.45812800  0.64763300  1
  O  O5  1  0.40630500  0.28407000  0.49522300  1
  O  O6  1  0.64300900  0.28358600  0.49136300  1
  O  O7  1  0.45821400  0.47213300  0.34907300  1
  O  O8  1  0.69505300  0.47270000  0.34584200  1
  O  O9  1  0.85074700  0.59210600  0.19119300  1
  O  O10  1  0.92766400  0.28376400  0.39720200  1
