# generated using pymatgen
data_CuH14C18N3O4
_symmetry_space_group_name_H-M   'P 1'
_cell_length_a   19.24262900
_cell_length_b   10.68716300
_cell_length_c   9.33292600
_cell_angle_alpha   90.00309400
_cell_angle_beta   90.00376600
_cell_angle_gamma   89.99517300
_symmetry_Int_Tables_number   1
_chemical_formula_structural   CuH14C18N3O4
_chemical_formula_sum   'Cu2 H28 C36 N6 O8'
_cell_volume   1919.30793677
_cell_formula_units_Z   2
loop_
 _symmetry_equiv_pos_site_id
 _symmetry_equiv_pos_as_xyz
  1  'x, y, z'
loop_
 _atom_site_type_symbol
 _atom_site_label
 _atom_site_symmetry_multiplicity
 _atom_site_fract_x
 _atom_site_fract_y
 _atom_site_fract_z
 _atom_site_occupancy
  Cu  Cu1  1  0.50020000  0.49974700  0.64334100  1
  Cu  Cu2  1  0.49979900  0.50025300  0.35670700  1
  H  H1  1  0.28089900  0.48983300  0.72953500  1
  H  H2  1  0.71910000  0.51016700  0.27051300  1
  H  H3  1  0.15526500  0.49003200  0.72964400  1
  H  H4  1  0.84473500  0.50996800  0.27040400  1
  H  H5  1  0.15534200  0.50881000  0.27120700  1
  H  H6  1  0.84465700  0.49119000  0.72884100  1
  H  H7  1  0.28085000  0.50863400  0.27144300  1
  H  H8  1  0.71914900  0.49136600  0.72860500  1
  H  H9  1  0.50781200  0.07626000  0.74569400  1
  H  H10  1  0.49218700  0.92373900  0.25435500  1
  H  H11  1  0.39977000  0.92401800  0.63414200  1
  H  H12  1  0.60022900  0.07598200  0.36590600  1
  H  H13  1  0.41385200  0.63430700  0.90206400  1
  H  H14  1  0.58614800  0.36569300  0.09798400  1
  H  H15  1  0.52149500  0.70274700  0.09433200  1
  H  H16  1  0.47850400  0.29725300  0.90571600  1
  H  H17  1  0.60828700  0.56754700  0.90544200  1
  H  H18  1  0.39171300  0.43245300  0.09460600  1
  H  H19  1  0.68497300  0.06858000  0.57888000  1
  H  H20  1  0.64262500  0.07241700  0.75219000  1
  H  H21  1  0.71688300  0.97195500  0.72349600  1
  H  H22  1  0.60767900  0.84969400  0.72175600  1
  H  H23  1  0.64940800  0.84661600  0.54810200  1
  H  H24  1  0.35737500  0.92758200  0.24785900  1
  H  H25  1  0.31502600  0.93142100  0.42116800  1
  H  H26  1  0.28311700  0.02804500  0.27655200  1
  H  H27  1  0.35059200  0.15338400  0.45194700  1
  H  H28  1  0.39232100  0.15030600  0.27829300  1
  C  C1  1  0.50035600  0.25987100  0.49996300  1
  C  C2  1  0.49964400  0.74012900  0.50008500  1
  C  C3  1  0.36637900  0.49930800  0.50030300  1
  C  C4  1  0.63362000  0.50069200  0.49974500  1
  C  C5  1  0.25385700  0.49400500  0.62817900  1
  C  C6  1  0.74614300  0.50599500  0.37186900  1
  C  C7  1  0.18217800  0.49412300  0.62816100  1
  C  C8  1  0.81782100  0.50587700  0.37188700  1
  C  C9  1  0.14585700  0.49944300  0.50041500  1
  C  C10  1  0.85414200  0.50055600  0.49963300  1
  C  C11  1  0.18220300  0.50457800  0.37274600  1
  C  C12  1  0.81779600  0.49542200  0.62730200  1
  C  C13  1  0.25385200  0.50445300  0.37282600  1
  C  C14  1  0.74614700  0.49554700  0.62722200  1
  C  C15  1  0.29013600  0.49918800  0.50050700  1
  C  C16  1  0.70986400  0.50081200  0.49954100  1
  C  C17  1  0.93044300  0.50028800  0.49981100  1
  C  C18  1  0.06955700  0.49971200  0.50023700  1
  C  C19  1  0.50375500  0.04097500  0.63426600  1
  C  C20  1  0.49624400  0.95902500  0.36578200  1
  C  C21  1  0.55662500  0.95918600  0.55884800  1
  C  C22  1  0.44337400  0.04081300  0.44120000  1
  C  C23  1  0.49925300  0.87924600  0.49974700  1
  C  C24  1  0.50074700  0.12075400  0.50030100  1
  C  C25  1  0.44542900  0.95953000  0.57413600  1
  C  C26  1  0.55457100  0.04047000  0.42591200  1
  C  C27  1  0.51139900  0.60838900  0.04961500  1
  C  C28  1  0.48860000  0.39161100  0.95043300  1
  C  C29  1  0.45386900  0.57186500  0.94897600  1
  C  C30  1  0.54613100  0.42813400  0.05107300  1
  C  C31  1  0.55794600  0.53592900  0.95045600  1
  C  C32  1  0.44205400  0.46407100  0.04959300  1
  C  C33  1  0.62197100  0.90658600  0.62687100  1
  C  C34  1  0.66962200  0.01200800  0.67327300  1
  C  C35  1  0.37802800  0.09341400  0.37317700  1
  C  C36  1  0.33037700  0.98799200  0.32677500  1
  N  N1  1  0.03443200  0.50495400  0.37572100  1
  N  N2  1  0.96556800  0.49504600  0.62432700  1
  N  N3  1  0.96573100  0.50523500  0.37550200  1
  N  N4  1  0.03426900  0.49476500  0.62454600  1
  N  N5  1  0.50040000  0.49943600  0.85768500  1
  N  N6  1  0.49960000  0.50056400  0.14236300  1
  O  O1  1  0.50293100  0.31795900  0.62320900  1
  O  O2  1  0.49706800  0.68204100  0.37683900  1
  O  O3  1  0.49768000  0.31837000  0.37679800  1
  O  O4  1  0.50231900  0.68163000  0.62325100  1
  O  O5  1  0.39920500  0.49486800  0.62323200  1
  O  O6  1  0.60079500  0.50513200  0.37681600  1
  O  O7  1  0.39882100  0.50409000  0.37704700  1
  O  O8  1  0.60117800  0.49591000  0.62300100  1
