# generated using pymatgen
data_Zn2H20C33N2O9
_symmetry_space_group_name_H-M   'P 1'
_cell_length_a   10.94031900
_cell_length_b   11.88756100
_cell_length_c   13.07719300
_cell_angle_alpha   91.19217500
_cell_angle_beta   89.99289800
_cell_angle_gamma   85.81801000
_symmetry_Int_Tables_number   1
_chemical_formula_structural   Zn2H20C33N2O9
_chemical_formula_sum   'Zn2 H20 C33 N2 O9'
_cell_volume   1695.83969098
_cell_formula_units_Z   1
loop_
 _symmetry_equiv_pos_site_id
 _symmetry_equiv_pos_as_xyz
  1  'x, y, z'
loop_
 _atom_site_type_symbol
 _atom_site_label
 _atom_site_symmetry_multiplicity
 _atom_site_fract_x
 _atom_site_fract_y
 _atom_site_fract_z
 _atom_site_occupancy
  Zn  Zn1  1  0.51241600  0.34711200  0.46419500  1
  Zn  Zn2  1  0.49235200  0.60272000  0.44787100  1
  H  H1  1  0.88246300  0.58243500  0.33548500  1
  H  H2  1  0.78703300  0.37133900  0.62773500  1
  H  H3  1  0.90534800  0.27716600  0.75838800  1
  H  H4  1  0.23398700  0.37265200  0.62758500  1
  H  H5  1  0.10522300  0.58273200  0.33568000  1
  H  H6  1  0.49070600  0.62187300  0.11940300  1
  H  H7  1  0.51922100  0.26217200  0.14213000  1
  H  H8  1  0.48412600  0.70565300  0.95537900  1
  H  H9  1  0.52073300  0.24418700  0.95668000  1
  H  H10  1  0.48559100  0.68767700  0.76994100  1
  H  H11  1  0.51414800  0.32796200  0.79267200  1
  H  H12  1  0.39127800  0.15832200  0.36198900  1
  H  H13  1  0.66103900  0.18003500  0.58905600  1
  H  H14  1  0.32627000  0.97561300  0.30775600  1
  H  H15  1  0.67841500  0.97415200  0.60396500  1
  H  H16  1  0.34356100  0.76969900  0.32278300  1
  H  H17  1  0.61348200  0.79150400  0.54970400  1
  H  H18  1  0.11747200  0.30143800  0.85663400  1
  H  H19  1  0.24772200  0.27115500  0.77376200  1
  H  H20  1  0.19498200  0.11047800  0.74022500  1
  C  C1  1  0.50085400  0.49501600  0.65585400  1
  C  C2  1  0.74165100  0.47480100  0.45772800  1
  C  C3  1  0.50392600  0.45481900  0.25619100  1
  C  C4  1  0.26309800  0.47531300  0.45790200  1
  C  C5  1  0.88524800  0.36891700  0.62064900  1
  C  C6  1  0.95214000  0.31616400  0.69712500  1
  C  C7  1  0.07747000  0.31615000  0.69761100  1
  C  C8  1  0.13625500  0.36926600  0.62109000  1
  C  C9  1  0.07031300  0.42012100  0.54120000  1
  C  C10  1  0.94314000  0.41992600  0.54099100  1
  C  C11  1  0.87551200  0.47575100  0.46434700  1
  C  C12  1  0.93460800  0.53697700  0.39366500  1
  C  C13  1  0.06027800  0.53717400  0.39379900  1
  C  C14  1  0.12909000  0.47619300  0.46463500  1
  C  C15  1  0.50484100  0.44352700  0.14421300  1
  C  C16  1  0.49998400  0.50631200  0.76784000  1
  C  C17  1  0.49073500  0.62252500  0.91980900  1
  C  C18  1  0.49159000  0.61203900  0.81462300  1
  C  C19  1  0.50752600  0.41135200  0.82760200  1
  C  C20  1  0.50663000  0.42216700  0.93294600  1
  C  C21  1  0.49823900  0.52767500  0.97911400  1
  C  C22  1  0.49733600  0.53848900  0.08445800  1
  C  C23  1  0.51324400  0.33780100  0.09743600  1
  C  C24  1  0.51412600  0.32731600  0.99225000  1
  C  C25  1  0.39016800  0.93633400  0.36159500  1
  C  C26  1  0.39994100  0.82056900  0.37011600  1
  C  C27  1  0.55029800  0.83286000  0.49650900  1
  C  C28  1  0.54257200  0.94883500  0.48969700  1
  C  C29  1  0.46219700  0.00095900  0.42195600  1
  C  C30  1  0.45447700  0.11694900  0.41516200  1
  C  C31  1  0.60475500  0.12919600  0.54162500  1
  C  C32  1  0.61456000  0.01343900  0.55009700  1
  C  C33  1  0.14832400  0.26144900  0.78278300  1
  N  N1  1  0.52546900  0.17903900  0.47474900  1
  N  N2  1  0.47929900  0.77075400  0.43695600  1
  O  O1  1  0.50886500  0.39320900  0.61426400  1
  O  O2  1  0.49357600  0.58720600  0.60187500  1
  O  O3  1  0.69210600  0.37773700  0.46212500  1
  O  O4  1  0.67694500  0.57162400  0.44972400  1
  O  O5  1  0.51119700  0.36284200  0.31022400  1
  O  O6  1  0.49591300  0.55642100  0.29786200  1
  O  O7  1  0.32794000  0.37822100  0.46222100  1
  O  O8  1  0.31254400  0.57210900  0.44984700  1
  O  O9  1  0.12857900  0.14692000  0.78354400  1
