# generated using pymatgen
data_Zn3H22C41O14
_symmetry_space_group_name_H-M   'P 1'
_cell_length_a   21.88770700
_cell_length_b   21.85329300
_cell_length_c   22.22875700
_cell_angle_alpha   60.58653400
_cell_angle_beta   119.47311300
_cell_angle_gamma   89.95922800
_symmetry_Int_Tables_number   1
_chemical_formula_structural   Zn3H22C41O14
_chemical_formula_sum   'Zn6 H44 C82 O28'
_cell_volume   7640.48471577
_cell_formula_units_Z   2
loop_
 _symmetry_equiv_pos_site_id
 _symmetry_equiv_pos_as_xyz
  1  'x, y, z'
loop_
 _atom_site_type_symbol
 _atom_site_label
 _atom_site_symmetry_multiplicity
 _atom_site_fract_x
 _atom_site_fract_y
 _atom_site_fract_z
 _atom_site_occupancy
  Zn  Zn1  1  0.50320200  0.43052300  0.50237900  1
  Zn  Zn2  1  0.49613100  0.57268200  0.49514400  1
  Zn  Zn3  1  0.06611000  0.00665500  0.49411400  1
  Zn  Zn4  1  0.93270400  0.00262000  0.50367200  1
  Zn  Zn5  1  0.94914400  0.54326100  0.40910100  1
  Zn  Zn6  1  0.05317500  0.46251100  0.59673200  1
  H  H1  1  0.37099500  0.77561400  0.05041200  1
  H  H2  1  0.32814000  0.72317600  0.94649500  1
  H  H3  1  0.22408400  0.87160700  0.94583100  1
  H  H4  1  0.19137900  0.75959100  0.05082300  1
  H  H5  1  0.14850900  0.70716500  0.94697800  1
  H  H6  1  0.29542000  0.61109200  0.05159200  1
  H  H7  1  0.64966300  0.60883200  0.40769500  1
  H  H8  1  0.70936700  0.37669800  0.64933100  1
  H  H9  1  0.81429100  0.26539200  0.75379900  1
  H  H10  1  0.92324700  0.25673400  0.74887700  1
  H  H11  1  0.92773800  0.35976400  0.64127900  1
  H  H12  1  0.76187500  0.60572700  0.40992000  1
  H  H13  1  0.62023800  0.34117000  0.94532300  1
  H  H14  1  0.67489700  0.18411300  0.05250700  1
  H  H15  1  0.76157900  0.34434600  0.04792000  1
  H  H16  1  0.80097900  0.34273200  0.94529600  1
  H  H17  1  0.85535600  0.18568600  0.05225200  1
  H  H18  1  0.28637800  0.60203100  0.34071100  1
  H  H19  1  0.17549200  0.70376600  0.22036900  1
  H  H20  1  0.06658500  0.72222600  0.22298900  1
  H  H21  1  0.06792500  0.63828400  0.34401400  1
  H  H22  1  0.24891300  0.41578400  0.61278300  1
  H  H23  1  0.97640500  0.76923300  0.58172100  1
  H  H24  1  0.98128400  0.94220400  0.34681700  1
  H  H25  1  0.99974600  0.93397400  0.25254500  1
  H  H26  1  0.01956000  0.81592400  0.26654300  1
  H  H27  1  0.01802100  0.70740300  0.37254000  1
  H  H28  1  0.97974300  0.65686800  0.58414400  1
  H  H29  1  0.00790000  0.24606300  0.40781600  1
  H  H30  1  0.03275400  0.05943800  0.65762600  1
  H  H31  1  0.03469800  0.05661600  0.76805500  1
  H  H32  1  0.02276400  0.16952200  0.76549700  1
  H  H33  1  0.01089000  0.28381700  0.65451700  1
  H  H34  1  0.00666600  0.35596700  0.40982800  1
  H  H35  1  0.62791100  0.11481500  0.85974400  1
  H  H36  1  0.71087100  0.11499600  0.85973900  1
  H  H37  1  0.55732800  0.23239800  0.71828400  1
  H  H38  1  0.59901000  0.15984400  0.71943400  1
  H  H39  1  0.64008700  0.23200800  0.71831700  1
  H  H40  1  0.49957300  0.33657200  0.79318300  1
  H  H41  1  0.45794400  0.26504200  0.79201200  1
  H  H42  1  0.43938300  0.35745400  0.85405300  1
  H  H43  1  0.49799800  0.26228600  0.91914400  1
  H  H44  1  0.39831000  0.28562800  0.85357100  1
  C  C1  1  0.62365200  0.50163700  0.50824500  1
  C  C2  1  0.42428900  0.57745400  0.33550200  1
  C  C3  1  0.37672600  0.50037000  0.49153500  1
  C  C4  1  0.57496400  0.42581800  0.66193500  1
  C  C5  1  0.29777500  0.73080200  0.97142300  1
  C  C6  1  0.31991900  0.76072000  0.02567300  1
  C  C7  1  0.38156500  0.62030400  0.24577700  1
  C  C8  1  0.13351500  0.86645400  0.75160400  1
  C  C9  1  0.27861200  0.67080000  0.02632100  1
  C  C10  1  0.29990700  0.70158100  0.07885000  1
  C  C11  1  0.19959700  0.72204200  0.97171700  1
  C  C12  1  0.21958800  0.78118800  0.91851700  1
  C  C13  1  0.22171900  0.75198700  0.02585800  1
  C  C14  1  0.24092200  0.81189600  0.97111700  1
  C  C15  1  0.34504500  0.65673200  0.17039300  1
  C  C16  1  0.17288300  0.82746200  0.82697000  1
  C  C17  1  0.75561800  0.37550600  0.64392100  1
  C  C18  1  0.81557000  0.31191300  0.70460000  1
  C  C19  1  0.87661300  0.30723700  0.70208100  1
  C  C20  1  0.87895000  0.36699700  0.64063800  1
  C  C21  1  0.81998100  0.43276300  0.58032000  1
  C  C22  1  0.75624400  0.43561000  0.57988500  1
  C  C23  1  0.69432200  0.49881100  0.51641100  1
  C  C24  1  0.69768200  0.55967000  0.45697500  1
  C  C25  1  0.76081200  0.55741000  0.45777300  1
  C  C26  1  0.82230700  0.49471400  0.51875000  1
  C  C27  1  0.70291400  0.22088800  0.02744000  1
  C  C28  1  0.67412000  0.30543700  0.97072700  1
  C  C29  1  0.61705400  0.38318100  0.75153800  1
  C  C30  1  0.86507400  0.14194500  0.24619200  1
  C  C31  1  0.72592400  0.21966200  0.97396500  1
  C  C32  1  0.69762100  0.30273300  0.91834700  1
  C  C33  1  0.80186300  0.22180600  0.02720200  1
  C  C34  1  0.77822700  0.22470700  0.07934200  1
  C  C35  1  0.77299300  0.30622200  0.97071000  1
  C  C36  1  0.75025000  0.30829500  0.02449400  1
  C  C37  1  0.65300100  0.34713800  0.82685000  1
  C  C38  1  0.82531400  0.17992300  0.17084000  1
  C  C39  1  0.23984200  0.60685200  0.34503000  1
  C  C40  1  0.17660500  0.66506700  0.27544900  1
  C  C41  1  0.11561500  0.67508100  0.27675100  1
  C  C42  1  0.11660500  0.62536400  0.34632900  1
  C  C43  1  0.17887900  0.56389600  0.41628000  1
  C  C44  1  0.24237600  0.55687900  0.41669600  1
  C  C45  1  0.30824500  0.50081200  0.48838000  1
  C  C46  1  0.31040900  0.45097900  0.55966000  1
  C  C47  1  0.24676200  0.45658600  0.55775600  1
  C  C48  1  0.18053800  0.51118000  0.48703200  1
  C  C49  1  0.98943000  0.89241200  0.48469200  1
  C  C50  1  0.08552200  0.91399600  0.66197000  1
  C  C51  1  0.00928400  0.11692700  0.51285200  1
  C  C52  1  0.91325000  0.09522300  0.33582700  1
  C  C53  1  0.99483600  0.62918400  0.48939700  1
  C  C54  1  0.88681000  0.49691700  0.51344600  1
  C  C55  1  0.00747300  0.37631200  0.51656800  1
  C  C56  1  0.11560600  0.50925600  0.49219100  1
  C  C57  1  0.99052500  0.88889600  0.35614200  1
  C  C58  1  0.99987800  0.88518100  0.30109500  1
  C  C59  1  0.01044100  0.81931900  0.30854900  1
  C  C60  1  0.00842600  0.75779500  0.36870600  1
  C  C61  1  0.99602600  0.76121300  0.42273900  1
  C  C62  1  0.99126400  0.82643700  0.41941100  1
  C  C63  1  0.98582500  0.82871100  0.47823500  1
  C  C64  1  0.98053600  0.76790700  0.53585500  1
  C  C65  1  0.98350200  0.70408200  0.53795400  1
  C  C66  1  0.99103200  0.69989400  0.48196200  1
  C  C67  1  0.02654300  0.11076100  0.65312600  1
  C  C68  1  0.02860100  0.10819200  0.71709600  1
  C  C69  1  0.02226900  0.17124800  0.71582500  1
  C  C70  1  0.01616500  0.23653400  0.65202600  1
  C  C71  1  0.01621700  0.24004700  0.58786200  1
  C  C72  1  0.01834200  0.17678800  0.58693900  1
  C  C73  1  0.01375800  0.17966500  0.52085800  1
  C  C74  1  0.01110700  0.24380500  0.45900500  1
  C  C75  1  0.00949400  0.30616100  0.45982900  1
  C  C76  1  0.01183900  0.30561800  0.52330300  1
  C  C77  1  0.71235100  0.16860400  0.94592900  1
  C  C78  1  0.65771200  0.15023400  0.83652300  1
  C  C79  1  0.61035200  0.19671300  0.74178200  1
  C  C80  1  0.37917800  0.39320900  0.63969100  1
  C  C81  1  0.45116000  0.31769700  0.78762300  1
  C  C82  1  0.44636900  0.30489400  0.85833500  1
  O  O1  1  0.59523500  0.44930600  0.50599500  1
  O  O2  1  0.59204600  0.55603700  0.50389600  1
  O  O3  1  0.44338800  0.50500100  0.37663400  1
  O  O4  1  0.44101200  0.61294400  0.37200700  1
  O  O5  1  0.40691100  0.44755800  0.49273300  1
  O  O6  1  0.40439100  0.55353000  0.49220200  1
  O  O7  1  0.55782800  0.39020800  0.62549400  1
  O  O8  1  0.55644900  0.49826700  0.62090600  1
  O  O9  1  0.04162300  0.92157600  0.48357700  1
  O  O10  1  0.94219700  0.91551400  0.49498300  1
  O  O11  1  0.11546300  0.93875800  0.61946100  1
  O  O12  1  0.01386500  0.93204100  0.62701900  1
  O  O13  1  0.05655800  0.09385200  0.50263000  1
  O  O14  1  0.95731800  0.08754800  0.51450700  1
  O  O15  1  0.98492200  0.07707000  0.37073300  1
  O  O16  1  0.88333900  0.07062600  0.37835000  1
  O  O17  1  0.95511100  0.62916600  0.42185000  1
  O  O18  1  0.03688400  0.56817900  0.56472600  1
  O  O19  1  0.87410900  0.52864900  0.43892200  1
  O  O20  1  0.95369600  0.47002200  0.58167200  1
  O  O21  1  0.96490500  0.43748900  0.44140100  1
  O  O22  1  0.04775200  0.37669800  0.58374400  1
  O  O23  1  0.04874200  0.53501000  0.42448800  1
  O  O24  1  0.12797300  0.47809300  0.56654900  1
  O  O25  1  0.73872200  0.10175800  0.99786400  1
  O  O26  1  0.67109200  0.19617100  0.86365200  1
  O  O27  1  0.42736800  0.36326800  0.64120500  1
  O  O28  1  0.38757600  0.37087800  0.71240900  1
