# Generated by REPEAT Assigner based on pymatgen
data_DB0-m9_o17_o25_f0_sra.sym.43_sqe
_audit_creation_date              2022-05-24
_audit_creation_method            REPEAT_Assigner
_cell_length_a                    23.030659
_cell_length_b                    6.829280
_cell_length_c                    19.949222
_cell_angle_alpha                 90.000000
_cell_angle_beta                  93.991386
_cell_angle_gamma                 90.000000
_cell_volume                      3130.059693
_symmetry_space_group_name_H-M    P1
_symmetry_Int_Tables_number       1
loop_
    _symmetry_equiv_pos_site_id
    _symmetry_equiv_pos_as_xyz
    1  x,y,z
loop_
    _atom_site_type_symbol
    _atom_site_label
    _atom_site_fract_x
    _atom_site_fract_y
    _atom_site_fract_z
    _atom_type_partial_charge
    O  O1   0.184651  0.379781  0.191822  -0.515594
    O  O2   0.814904  0.626770  0.808809  -0.508257
    O  O3   0.315349  0.879781  0.308178  -0.515595
    O  O4   0.685096  0.126770  0.691191  -0.508255
    O  O5   0.307212  0.721643  0.182140  -0.563568
    O  O6   0.692260  0.284908  0.817244  -0.553395
    O  O7   0.192788  0.221642  0.317860  -0.563566
    O  O8   0.807740  0.784908  0.682756  -0.553409
    C  C1   0.328824  0.546776  0.171688  0.650627
    C  C2   0.670538  0.459754  0.827470  0.691024
    C  C3   0.171177  0.046776  0.328312  0.650661
    C  C4   0.829462  0.959754  0.672529  0.691023
    O  O9   0.188014  0.721619  0.178424  -0.554824
    O  O10  0.811497  0.284923  0.822180  -0.547939
    O  O11  0.311986  0.221619  0.321576  -0.554832
    O  O12  0.688503  0.784923  0.677820  -0.547939
    O  O13  0.189320  0.879388  0.304875  -0.564431
    O  O14  0.811166  0.127158  0.695799  -0.554236
    O  O15  0.310680  0.379388  0.195125  -0.564422
    O  O16  0.688835  0.627158  0.804201  -0.554232
    C  C5   0.165317  0.547342  0.167142  0.582346
    C  C6   0.834076  0.459294  0.833703  0.606949
    C  C7   0.334684  0.047342  0.332858  0.582338
    C  C8   0.665925  0.959294  0.666297  0.606940
    O  O17  0.251793  0.554078  0.290455  -0.547016
    O  O18  0.748514  0.452465  0.709552  -0.524491
    O  O19  0.248207  0.054078  0.209545  -0.547027
    O  O20  0.751486  0.952465  0.790448  -0.524485
    V  V1   0.249774  0.827974  0.241880  1.512998
    V  V2   0.750187  0.178577  0.758126  1.450350
    V  V3   0.250227  0.327974  0.258120  1.512898
    V  V4   0.749813  0.678577  0.741873  1.450376
    C  C9   0.578890  0.126013  0.618231  -0.196503
    C  C10  0.422815  0.883133  0.379417  -0.250720
    C  C11  0.921110  0.626013  0.881769  -0.196503
    C  C12  0.077185  0.383133  0.120583  -0.250740
    C  C13  0.616879  0.970852  0.616550  -0.031738
    C  C14  0.384269  0.036573  0.381897  0.035387
    C  C15  0.883121  0.470852  0.883450  -0.031737
    C  C16  0.115732  0.536573  0.118103  0.035388
    C  C17  0.608479  0.827994  0.568077  -0.216430
    C  C18  0.392232  0.177845  0.430981  -0.216693
    C  C19  0.891521  0.327994  0.931922  -0.216435
    C  C20  0.107768  0.677845  0.069019  -0.216689
    C  C21  0.563080  0.844531  0.519526  0.128549
    C  C22  0.438553  0.163998  0.478403  0.090947
    C  C23  0.936920  0.344531  0.980474  0.128539
    C  C24  0.061448  0.663998  0.021597  0.090957
    C  C25  0.524392  0.998312  0.522021  -0.011011
    C  C26  0.477931  0.012552  0.474940  0.024762
    C  C27  0.975608  0.498312  0.977979  -0.011008
    C  C28  0.022069  0.512552  0.025060  0.024748
    C  C29  0.531796  0.136935  0.572064  0.194505
    C  C30  0.470204  0.872949  0.425227  0.110182
    C  C31  0.968204  0.636935  0.927936  0.194518
    C  C32  0.029796  0.372949  0.074772  0.110203
    C  C33  0.555767  0.706268  0.469160  -0.185557
    C  C34  0.444733  0.298060  0.530226  -0.113292
    C  C35  0.944233  0.206268  0.030840  -0.185550
    C  C36  0.055267  0.798060  0.969774  -0.113293
    C  C37  0.508973  0.719920  0.422364  -0.214732
    C  C38  0.491725  0.285108  0.576704  -0.285770
    C  C39  0.991027  0.219920  0.077636  -0.214740
    C  C40  0.008275  0.785108  0.923296  -0.285790
    H  H1   0.585118  0.236130  0.656991  0.106222
    H  H2   0.416299  0.772285  0.340946  0.129986
    H  H3   0.914882  0.736130  0.843009  0.106217
    H  H4   0.083702  0.272285  0.159054  0.129992
    H  H5   0.638063  0.705304  0.567740  0.143113
    H  H6   0.361189  0.295859  0.433209  0.132803
    H  H7   0.861937  0.205304  0.932260  0.143115
    H  H8   0.138811  0.795860  0.066790  0.132792
    H  H9   0.502427  0.610631  0.383420  0.133682
    H  H10  0.497108  0.389691  0.617266  0.158876
    H  H11  0.997573  0.110631  0.116580  0.133680
    H  H12  0.002892  0.889691  0.882734  0.158888
    C  C41  0.047468  0.072033  0.531504  -0.335178
    C  C42  0.953617  0.934508  0.469911  -0.133716
    C  C43  0.452532  0.572034  0.968496  -0.335311
    C  C44  0.546384  0.434508  0.030089  -0.133592
    C  C45  0.017597  0.885173  0.551316  -0.083287
    C  C46  0.983484  0.121359  0.450102  -0.281855
    C  C47  0.482404  0.385174  0.948683  -0.083223
    C  C48  0.516517  0.621359  0.049898  -0.281929
    H  H13  0.031707  0.790075  0.594477  0.049442
    H  H14  0.969373  0.216454  0.406940  0.080705
    H  H15  0.468293  0.290075  0.905522  0.049447
    H  H16  0.530627  0.716453  0.093060  0.080714
    H  H17  0.019301  0.678196  0.456477  0.056595
    H  H18  0.981779  0.328347  0.544935  0.035748
    H  H19  0.480699  0.178196  0.043523  0.056623
    H  H20  0.518221  0.828347  0.955065  0.035734
    C  C49  0.875073  0.970699  0.626869  -0.079305
    C  C50  0.125805  0.035837  0.374282  0.031151
    C  C51  0.624927  0.470699  0.873131  -0.079339
    C  C52  0.374195  0.535837  0.125718  0.031175
    C  C53  0.990127  0.181319  0.524054  -0.060481
    C  C54  0.010953  0.825221  0.477361  -0.198577
    C  C55  0.509873  0.681319  0.975946  -0.060341
    C  C56  0.489047  0.325221  0.022639  -0.198642
    C  C57  0.960191  0.993422  0.542525  0.536611
    C  C58  0.040889  0.013116  0.458891  0.912243
    C  C59  0.539809  0.493422  0.957475  0.536451
    C  C60  0.459111  0.513116  0.041109  0.912326
    C  C61  0.913451  0.980648  0.588729  -0.387514
    C  C62  0.087557  0.025888  0.412591  -0.591732
    C  C63  0.586549  0.480648  0.911271  -0.387455
    C  C64  0.412443  0.525888  0.087409  -0.591769
    C  C65  0.598132  0.542732  0.465365  0.582974
    C  C66  0.574979  0.393519  0.414083  -0.485038
    C  C67  0.655626  0.621479  0.444240  -0.391040
    H  H21  0.604539  0.471191  0.515230  -0.062286
    H  H22  0.574004  0.458284  0.363038  0.105819
    H  H23  0.530459  0.348516  0.425480  0.115317
    H  H24  0.603927  0.263577  0.416133  0.088495
    H  H25  0.649437  0.680605  0.392462  0.083077
    H  H26  0.688083  0.501356  0.445335  0.077915
    H  H27  0.671613  0.740131  0.478636  0.080571
    C  C68  0.399863  0.452085  0.537252  0.344267
    C  C69  0.406347  0.539434  0.607159  -0.334935
    C  C70  0.407722  0.612334  0.486505  -0.253625
    H  H28  0.355915  0.386392  0.529044  -0.028303
    H  H29  0.446530  0.629144  0.612678  0.050194
    H  H30  0.408472  0.420349  0.645042  0.072948
    H  H31  0.368341  0.634462  0.614879  0.071394
    H  H32  0.450309  0.683250  0.499216  0.115718
    H  H33  0.372402  0.721898  0.489052  0.052895
    H  H34  0.406932  0.549377  0.435226  0.089679
    C  C71  0.901869  0.042732  0.034635  0.582993
    C  C72  0.925021  0.893519  0.085917  -0.485045
    C  C73  0.844374  0.121479  0.055760  -0.391043
    H  H35  0.895461  0.971191  0.984770  -0.062294
    H  H36  0.925996  0.958283  0.136962  0.105823
    H  H37  0.969541  0.848516  0.074520  0.115313
    H  H38  0.896073  0.763577  0.083867  0.088500
    H  H39  0.850563  0.180604  0.107538  0.083075
    H  H40  0.811918  0.001356  0.054665  0.077919
    H  H41  0.828388  0.240131  0.021364  0.080571
    C  C74  0.100137  0.952085  0.962748  0.344269
    C  C75  0.093653  0.039434  0.892841  -0.334965
    C  C76  0.092279  0.112334  0.013495  -0.253613
    H  H42  0.144086  0.886392  0.970956  -0.028303
    H  H43  0.053470  0.129143  0.887322  0.050200
    H  H44  0.091528  0.920349  0.854958  0.072958
    H  H45  0.131660  0.134462  0.885121  0.071401
    H  H46  0.049692  0.183251  0.000784  0.115716
    H  H47  0.127599  0.221899  0.010948  0.052892
    H  H48  0.093069  0.049376  0.064774  0.089681
    C  C77  0.103111  0.152131  0.565998  0.591533
    C  C78  0.151248  0.002337  0.562327  -0.479519
    C  C79  0.120071  0.338674  0.531305  -0.518458
    H  H49  0.096186  0.183884  0.619371  -0.081779
    H  H50  0.158174  0.970581  0.508954  0.135167
    H  H51  0.138823  0.865700  0.587742  0.080267
    H  H52  0.192005  0.061008  0.587597  0.102071
    H  H53  0.126997  0.306921  0.477931  0.145687
    H  H54  0.160830  0.397342  0.556574  0.113368
    H  H55  0.084811  0.448397  0.533996  0.100946
    C  C80  0.897974  0.854417  0.435413  0.577990
    C  C81  0.907410  0.811334  0.362523  -0.470880
    C  C82  0.881058  0.667718  0.470043  -0.497384
    H  H56  0.862699  0.964060  0.438164  -0.079783
    H  H57  0.942683  0.701680  0.359773  0.095823
    H  H58  0.919808  0.948084  0.337158  0.082401
    H  H59  0.866653  0.752682  0.337248  0.104932
    H  H60  0.916335  0.558081  0.467293  0.121253
    H  H61  0.840302  0.609050  0.444770  0.101141
    H  H62  0.874146  0.699274  0.523434  0.121258
    C  C83  0.396889  0.652131  0.934002  0.591718
    C  C84  0.348752  0.502338  0.937672  -0.479670
    C  C85  0.379929  0.838675  0.968695  -0.518565
    H  H63  0.403814  0.683884  0.880629  -0.081808
    H  H64  0.341826  0.470581  0.991046  0.135202
    H  H65  0.361177  0.365700  0.912258  0.080309
    H  H66  0.307995  0.561009  0.912403  0.102097
    H  H67  0.373003  0.806921  0.022069  0.145724
    H  H68  0.339171  0.897343  0.943426  0.113402
    H  H69  0.415189  0.948397  0.966004  0.100904
    C  C86  0.602026  0.354417  0.064587  0.577956
    C  C87  0.592590  0.311333  0.137477  -0.470991
    C  C88  0.618942  0.167718  0.029957  -0.497351
    H  H70  0.637301  0.464060  0.061836  -0.079772
    H  H71  0.557317  0.201680  0.140227  0.095842
    H  H72  0.580193  0.448084  0.162842  0.082427
    H  H73  0.633348  0.252682  0.162752  0.104986
    H  H74  0.583665  0.058081  0.032707  0.121236
    H  H75  0.659698  0.109050  0.055230  0.101127
    H  H76  0.625854  0.199274  0.976566  0.121261
