# Generated by REPEAT Assigner based on pymatgen
data_DB0-m2_o11_o28_f0_nbo.sym.84_sqe
_audit_creation_date              2022-05-24
_audit_creation_method            REPEAT_Assigner
_cell_length_a                    21.638115
_cell_length_b                    21.638116
_cell_length_c                    46.557630
_cell_angle_alpha                 90.000000
_cell_angle_beta                  90.000000
_cell_angle_gamma                 90.000000
_cell_volume                      21798.656700
_symmetry_space_group_name_H-M    P1
_symmetry_Int_Tables_number       1
loop_
    _symmetry_equiv_pos_site_id
    _symmetry_equiv_pos_as_xyz
    1  x,y,z
loop_
    _atom_site_type_symbol
    _atom_site_label
    _atom_site_fract_x
    _atom_site_fract_y
    _atom_site_fract_z
    _atom_type_partial_charge
    O   O1    0.009391  0.910760  0.042778  -0.628773
    O   O2    0.089240  0.009391  0.042778  -0.628771
    O   O3    0.990609  0.089240  0.042778  -0.628767
    O   O4    0.910760  0.990609  0.042778  -0.628770
    O   O5    0.509391  0.410760  0.542778  -0.628785
    O   O6    0.589240  0.509391  0.542778  -0.628782
    O   O7    0.490609  0.589240  0.542778  -0.628776
    O   O8    0.410760  0.490609  0.542778  -0.628771
    O   O9    0.973672  0.914225  0.995606  -0.617101
    O   O10   0.085775  0.973672  0.995606  -0.617098
    O   O11   0.026328  0.085776  0.995606  -0.617109
    O   O12   0.914225  0.026328  0.995606  -0.617110
    O   O13   0.473672  0.414224  0.495606  -0.617113
    O   O14   0.585776  0.473672  0.495606  -0.617113
    O   O15   0.526328  0.585775  0.495606  -0.617127
    O   O16   0.414225  0.526328  0.495606  -0.617126
    C   C1    0.988646  0.883750  0.019207  0.808820
    C   C2    0.116250  0.988646  0.019207  0.808817
    C   C3    0.011354  0.116250  0.019207  0.808853
    C   C4    0.883750  0.011354  0.019207  0.808817
    C   C5    0.488646  0.383750  0.519207  0.808890
    C   C6    0.616250  0.488646  0.519207  0.808901
    C   C7    0.511354  0.616250  0.519207  0.808892
    C   C8    0.383750  0.511354  0.519207  0.808858
    Cu  Cu1   0.000000  0.000000  0.047181  0.994346
    Cu  Cu2   0.500000  0.500000  0.547181  0.994406
    Cu  Cu3   0.000000  0.000000  0.991203  0.927122
    Cu  Cu4   0.500000  0.500000  0.491203  0.927299
    C   C9    0.718363  0.042500  0.996166  -0.080932
    C   C10   0.957501  0.718363  0.996166  -0.080662
    C   C11   0.281637  0.957501  0.996166  -0.080673
    C   C12   0.042499  0.281637  0.996166  -0.080783
    C   C13   0.218363  0.542499  0.496166  -0.080783
    C   C14   0.457501  0.218363  0.496166  -0.080761
    C   C15   0.781637  0.457500  0.496166  -0.080784
    C   C16   0.542500  0.781637  0.496166  -0.080790
    C   C17   0.684798  0.990467  0.997595  -0.247946
    C   C18   0.009533  0.684798  0.997595  -0.248112
    C   C19   0.315202  0.009533  0.997595  -0.248107
    C   C20   0.990467  0.315202  0.997595  -0.248019
    C   C21   0.184798  0.490467  0.497595  -0.248063
    C   C22   0.509533  0.184798  0.497595  -0.248072
    C   C23   0.815202  0.509533  0.497595  -0.248039
    C   C24   0.490467  0.815202  0.497595  -0.248045
    H   H1    0.695350  0.086353  0.992767  0.134351
    H   H2    0.913647  0.695350  0.992767  0.134287
    H   H3    0.304650  0.913647  0.992767  0.134285
    H   H4    0.086353  0.304650  0.992767  0.134258
    H   H5    0.195350  0.586353  0.492767  0.134278
    H   H6    0.413647  0.195350  0.492767  0.134266
    H   H7    0.804650  0.413647  0.492767  0.134274
    H   H8    0.586353  0.804650  0.492767  0.134287
    C   C25   0.786270  0.042738  0.997446  0.072835
    C   C26   0.957262  0.786270  0.997446  0.072660
    C   C27   0.213730  0.957263  0.997446  0.072667
    C   C28   0.042738  0.213731  0.997446  0.072810
    C   C29   0.286270  0.542738  0.497446  0.072817
    C   C30   0.457263  0.286270  0.497446  0.072797
    C   C31   0.713731  0.457262  0.497446  0.072805
    C   C32   0.542738  0.713730  0.497446  0.072824
    C   C33   0.816273  0.014977  0.018905  -0.353142
    C   C34   0.985023  0.816273  0.018905  -0.353071
    C   C35   0.183727  0.985023  0.018905  -0.353065
    C   C36   0.014977  0.183727  0.018905  -0.353170
    C   C37   0.316273  0.514977  0.518905  -0.353178
    C   C38   0.485023  0.316273  0.518905  -0.353173
    C   C39   0.683728  0.485023  0.518905  -0.353184
    C   C40   0.514977  0.683727  0.518905  -0.353190
    H   H9    0.811491  0.068735  0.981379  0.095627
    H   H10   0.931265  0.811491  0.981379  0.095651
    H   H11   0.188509  0.931265  0.981379  0.095648
    H   H12   0.068735  0.188509  0.981379  0.095629
    H   H13   0.311491  0.568735  0.481379  0.095633
    H   H14   0.431265  0.311491  0.481379  0.095636
    H   H15   0.688509  0.431265  0.481379  0.095636
    H   H16   0.568735  0.688509  0.481379  0.095634
    H   H17   0.790579  0.993688  0.036267  0.169722
    H   H18   0.006312  0.790579  0.036267  0.169699
    H   H19   0.209421  0.006312  0.036267  0.169695
    H   H20   0.993688  0.209421  0.036267  0.169722
    H   H21   0.290579  0.493688  0.536267  0.169727
    H   H22   0.506312  0.290579  0.536267  0.169727
    H   H23   0.709421  0.506312  0.536267  0.169730
    H   H24   0.493688  0.709421  0.536267  0.169729
    O   O17   0.518606  0.050381  0.956684  -0.598826
    O   O18   0.949619  0.518606  0.956684  -0.598827
    O   O19   0.481394  0.949619  0.956684  -0.598844
    O   O20   0.050381  0.481394  0.956684  -0.598806
    O   O21   0.018606  0.550381  0.456684  -0.598774
    O   O22   0.449619  0.018606  0.456684  -0.598779
    O   O23   0.981394  0.449619  0.456684  -0.598783
    O   O24   0.550381  0.981394  0.456684  -0.598784
    C   C41   0.500000  0.000000  0.943231  0.689789
    C   C42   0.000000  0.500000  0.943231  0.689761
    C   C43   0.000000  0.500000  0.443231  0.689667
    C   C44   0.500000  0.000000  0.443231  0.689654
    O   O25   0.590799  0.046812  0.005205  -0.595581
    O   O26   0.953189  0.590799  0.005205  -0.595597
    O   O27   0.409201  0.953189  0.005205  -0.595595
    O   O28   0.046811  0.409201  0.005205  -0.595574
    O   O29   0.090799  0.546811  0.505205  -0.595565
    O   O30   0.453189  0.090799  0.505205  -0.595574
    O   O31   0.909201  0.453189  0.505205  -0.595562
    O   O32   0.546812  0.909201  0.505205  -0.595574
    O   O33   0.585660  0.944506  0.990268  -0.611081
    O   O34   0.055494  0.585660  0.990268  -0.611088
    O   O35   0.414340  0.055494  0.990269  -0.611082
    O   O36   0.944506  0.414340  0.990269  -0.611090
    O   O37   0.085660  0.444506  0.490269  -0.611090
    O   O38   0.555494  0.085660  0.490269  -0.611108
    O   O39   0.914340  0.555494  0.490268  -0.611079
    O   O40   0.444506  0.914340  0.490269  -0.611079
    C   C45   0.617154  0.994234  0.997692  0.739904
    C   C46   0.005766  0.617154  0.997692  0.739949
    C   C47   0.382846  0.005766  0.997692  0.739953
    C   C48   0.994234  0.382846  0.997692  0.739935
    C   C49   0.117154  0.494234  0.497692  0.739961
    C   C50   0.505766  0.117154  0.497692  0.739976
    C   C51   0.882846  0.505766  0.497692  0.739947
    C   C52   0.494234  0.882846  0.497692  0.739913
    Cu  Cu5   0.503026  0.060493  0.997740  0.977162
    Cu  Cu6   0.939507  0.503027  0.997740  0.977167
    Cu  Cu7   0.496974  0.939508  0.997740  0.977160
    Cu  Cu8   0.060493  0.496974  0.997740  0.977143
    Cu  Cu9   0.003027  0.560493  0.497740  0.977227
    Cu  Cu10  0.439508  0.003026  0.497740  0.977212
    Cu  Cu11  0.996974  0.439507  0.497740  0.977234
    Cu  Cu12  0.560493  0.996974  0.497740  0.977210
    O   O41   0.486515  0.051989  0.038796  -0.582959
    O   O42   0.948011  0.486515  0.038796  -0.582967
    O   O43   0.513485  0.948011  0.038796  -0.582980
    O   O44   0.051989  0.513485  0.038796  -0.582967
    O   O45   0.986515  0.551989  0.538796  -0.582952
    O   O46   0.448011  0.986515  0.538796  -0.582946
    O   O47   0.013485  0.448011  0.538796  -0.582945
    O   O48   0.551989  0.013485  0.538796  -0.582952
    C   C53   0.500000  0.000000  0.052248  0.656480
    C   C54   0.000000  0.500000  0.052248  0.656452
    C   C55   0.000000  0.500000  0.552248  0.656393
    C   C56   0.500000  0.000000  0.552248  0.656364
    C   C57   0.961174  0.462215  0.188350  0.461697
    C   C58   0.537785  0.961174  0.188350  0.461709
    C   C59   0.038826  0.537785  0.188350  0.461681
    C   C60   0.462215  0.038826  0.188350  0.461704
    C   C61   0.461174  0.962215  0.688350  0.461557
    C   C62   0.037785  0.461174  0.688350  0.461614
    C   C63   0.538826  0.037785  0.688350  0.461567
    C   C64   0.962215  0.538826  0.688350  0.461636
    N   N1    0.000000  0.500000  0.173911  -0.180167
    N   N2    0.500000  0.000000  0.173911  -0.180175
    N   N3    0.500000  0.000000  0.673911  -0.180033
    N   N4    0.000000  0.500000  0.673911  -0.180059
    C   C65   0.040132  0.537409  0.218040  -0.109966
    C   C66   0.462592  0.040132  0.218040  -0.109966
    C   C67   0.959869  0.462591  0.218040  -0.109966
    C   C68   0.537409  0.959868  0.218040  -0.109971
    C   C69   0.540132  0.037409  0.718040  -0.109608
    C   C70   0.962591  0.540131  0.718040  -0.109599
    C   C71   0.459868  0.962591  0.718040  -0.109559
    C   C72   0.037408  0.459868  0.718040  -0.109553
    C   C73   0.000000  0.500000  0.232927  0.091524
    C   C74   0.500000  0.000000  0.232927  0.091537
    C   C75   0.500000  0.000000  0.732927  0.090782
    C   C76   0.000000  0.500000  0.732927  0.090817
    C   C77   0.081036  0.574520  0.232949  -0.057938
    C   C78   0.425481  0.081036  0.232949  -0.057928
    C   C79   0.918964  0.425481  0.232949  -0.057945
    C   C80   0.574520  0.918964  0.232949  -0.057930
    C   C81   0.581036  0.074520  0.732949  -0.058064
    C   C82   0.925480  0.581036  0.732949  -0.058038
    C   C83   0.418964  0.925480  0.732949  -0.058099
    C   C84   0.074519  0.418964  0.732949  -0.058066
    C   C85   0.581905  0.073564  0.762533  -0.054009
    C   C86   0.926436  0.581905  0.762533  -0.053968
    C   C87   0.418095  0.926436  0.762533  -0.053988
    C   C88   0.073564  0.418095  0.762533  -0.053955
    C   C89   0.081905  0.573564  0.262533  -0.054185
    C   C90   0.426436  0.081905  0.262533  -0.054177
    C   C91   0.918095  0.426436  0.262533  -0.054180
    C   C92   0.573564  0.918095  0.262533  -0.054171
    C   C93   0.541063  0.036384  0.777441  -0.119177
    C   C94   0.963615  0.541063  0.777441  -0.119165
    C   C95   0.458937  0.963616  0.777441  -0.119209
    C   C96   0.036384  0.458937  0.777441  -0.119182
    C   C97   0.041063  0.536384  0.277441  -0.118865
    C   C98   0.463616  0.041063  0.277441  -0.118868
    C   C99   0.958937  0.463616  0.277441  -0.118872
    C   C100  0.536385  0.958937  0.277441  -0.118866
    C   C101  0.500000  0.000000  0.762554  0.107462
    C   C102  0.000000  0.500000  0.762554  0.107435
    C   C103  0.000000  0.500000  0.262554  0.106815
    C   C104  0.500000  0.000000  0.262554  0.106801
    C   C105  0.541310  0.035052  0.807132  0.468996
    C   C106  0.964948  0.541310  0.807132  0.469031
    C   C107  0.458690  0.964948  0.807132  0.469027
    C   C108  0.035052  0.458690  0.807132  0.469037
    C   C109  0.041310  0.535052  0.307132  0.468890
    C   C110  0.464948  0.041310  0.307132  0.468901
    C   C111  0.958690  0.464948  0.307132  0.468909
    C   C112  0.535052  0.958690  0.307132  0.468902
    N   N5    0.500000  0.000000  0.821570  -0.185549
    N   N6    0.000000  0.500000  0.821570  -0.185526
    N   N7    0.000000  0.500000  0.321570  -0.185466
    N   N8    0.500000  0.000000  0.321570  -0.185447
    O   O49   0.924598  0.422912  0.173837  -0.488865
    O   O50   0.577088  0.924598  0.173837  -0.488851
    O   O51   0.075402  0.577088  0.173837  -0.488854
    O   O52   0.422912  0.075402  0.173837  -0.488849
    O   O53   0.424598  0.922912  0.673837  -0.488829
    O   O54   0.077088  0.424598  0.673837  -0.488786
    O   O55   0.575402  0.077088  0.673837  -0.488823
    O   O56   0.922912  0.575402  0.673837  -0.488789
    H   H25   0.113199  0.604286  0.221835  0.130430
    H   H26   0.395715  0.113199  0.221835  0.130425
    H   H27   0.886801  0.395715  0.221835  0.130428
    H   H28   0.604286  0.886801  0.221835  0.130427
    H   H29   0.613199  0.104286  0.721835  0.130429
    H   H30   0.895714  0.613199  0.721835  0.130425
    H   H31   0.386801  0.895715  0.721835  0.130436
    H   H32   0.104285  0.386801  0.721835  0.130426
    H   H33   0.614601  0.102743  0.773647  0.126634
    H   H34   0.897257  0.614601  0.773647  0.126628
    H   H35   0.385399  0.897257  0.773647  0.126632
    H   H36   0.102743  0.385399  0.773647  0.126630
    H   H37   0.114601  0.602743  0.273647  0.126653
    H   H38   0.397257  0.114601  0.273647  0.126654
    H   H39   0.885399  0.397257  0.273647  0.126655
    H   H40   0.602743  0.885399  0.273647  0.126652
    O   O57   0.583911  0.067724  0.821646  -0.487871
    O   O58   0.932276  0.583911  0.821646  -0.487858
    O   O59   0.416089  0.932276  0.821646  -0.487880
    O   O60   0.067724  0.416089  0.821646  -0.487858
    O   O61   0.083911  0.567724  0.321646  -0.487846
    O   O62   0.432276  0.083911  0.321646  -0.487850
    O   O63   0.916089  0.432276  0.321646  -0.487856
    O   O64   0.567724  0.916089  0.321646  -0.487854
    C   C113  0.504131  0.945029  0.867299  -0.210144
    C   C114  0.054971  0.504131  0.867299  -0.210140
    C   C115  0.495869  0.054971  0.867299  -0.210137
    C   C116  0.945029  0.495869  0.867299  -0.210132
    C   C117  0.004132  0.445029  0.367299  -0.210170
    C   C118  0.554971  0.004131  0.367299  -0.210129
    C   C119  0.995869  0.554971  0.367299  -0.210158
    C   C120  0.445029  0.995869  0.367299  -0.210132
    H   H41   0.508550  0.901665  0.855957  0.150363
    H   H42   0.098335  0.508550  0.855957  0.150364
    H   H43   0.491449  0.098335  0.855957  0.150361
    H   H44   0.901665  0.491449  0.855957  0.150363
    H   H45   0.008551  0.401665  0.355957  0.150371
    H   H46   0.598335  0.008550  0.355957  0.150365
    H   H47   0.991450  0.598335  0.355957  0.150366
    H   H48   0.401665  0.991450  0.355957  0.150365
    C   C121  0.503134  0.944951  0.896899  -0.005026
    C   C122  0.055049  0.503134  0.896899  -0.005021
    C   C123  0.496866  0.055049  0.896899  -0.005024
    C   C124  0.944951  0.496866  0.896899  -0.005035
    C   C125  0.003134  0.444951  0.396899  -0.004989
    C   C126  0.555049  0.003134  0.396899  -0.005022
    C   C127  0.996866  0.555049  0.396899  -0.004997
    C   C128  0.444951  0.996866  0.396899  -0.005016
    H   H49   0.506422  0.901465  0.908209  0.103028
    H   H50   0.098535  0.506422  0.908209  0.103025
    H   H51   0.493578  0.098535  0.908209  0.103024
    H   H52   0.901465  0.493578  0.908209  0.103030
    H   H53   0.006422  0.401465  0.408209  0.103015
    H   H54   0.598535  0.006422  0.408209  0.103021
    H   H55   0.993578  0.598535  0.408209  0.103017
    H   H56   0.401465  0.993578  0.408209  0.103020
    C   C129  0.500000  0.000000  0.911817  -0.111277
    C   C130  0.000000  0.500000  0.911817  -0.111263
    C   C131  0.000000  0.500000  0.411817  -0.111262
    C   C132  0.500000  0.000000  0.411817  -0.111248
    C   C133  0.500000  0.000000  0.852292  0.239272
    C   C134  0.000000  0.500000  0.852292  0.239247
    C   C135  0.000000  0.500000  0.352292  0.239284
    C   C136  0.500000  0.000000  0.352292  0.239250
    C   C137  0.054336  0.490704  0.128180  -0.219647
    C   C138  0.509296  0.054336  0.128180  -0.219653
    C   C139  0.945664  0.509296  0.128180  -0.219657
    C   C140  0.490704  0.945664  0.128180  -0.219659
    C   C141  0.554336  0.990704  0.628180  -0.219631
    C   C142  0.009296  0.554336  0.628180  -0.219662
    C   C143  0.445664  0.009296  0.628180  -0.219626
    C   C144  0.990704  0.445664  0.628180  -0.219652
    H   H57   0.097091  0.482214  0.139521  0.154695
    H   H58   0.517786  0.097091  0.139521  0.154698
    H   H59   0.902909  0.517786  0.139521  0.154697
    H   H60   0.482214  0.902909  0.139521  0.154698
    H   H61   0.597091  0.982214  0.639521  0.154698
    H   H62   0.017786  0.597091  0.639521  0.154705
    H   H63   0.402909  0.017786  0.639521  0.154702
    H   H64   0.982214  0.402909  0.639521  0.154708
    C   C145  0.054509  0.491696  0.098581  0.004322
    C   C146  0.508304  0.054509  0.098581  0.004332
    C   C147  0.945491  0.508304  0.098581  0.004330
    C   C148  0.491696  0.945491  0.098581  0.004336
    C   C149  0.554509  0.991696  0.598581  0.004306
    C   C150  0.008304  0.554509  0.598581  0.004318
    C   C151  0.445491  0.008304  0.598581  0.004297
    C   C152  0.991696  0.445491  0.598581  0.004305
    H   H65   0.097497  0.484336  0.087273  0.096778
    H   H66   0.515665  0.097497  0.087273  0.096771
    H   H67   0.902503  0.515665  0.087273  0.096774
    H   H68   0.484335  0.902503  0.087273  0.096772
    H   H69   0.597497  0.984335  0.587273  0.096776
    H   H70   0.015665  0.597497  0.587273  0.096772
    H   H71   0.402503  0.015665  0.587273  0.096778
    H   H72   0.984335  0.402503  0.587273  0.096769
    C   C153  0.000000  0.500000  0.083662  -0.107091
    C   C154  0.500000  0.000000  0.083662  -0.107112
    C   C155  0.500000  0.000000  0.583662  -0.107054
    C   C156  0.000000  0.500000  0.583661  -0.107071
    C   C157  0.000000  0.500000  0.143188  0.247758
    C   C158  0.500000  0.000000  0.143188  0.247753
    C   C159  0.500000  0.000000  0.643188  0.247720
    C   C160  0.000000  0.500000  0.643188  0.247743
    C   C161  0.713685  0.928935  0.997538  0.288423
    C   C162  0.699433  0.887300  0.019018  -0.142398
    C   C163  0.726906  0.829828  0.019447  -0.264991
    C   C164  0.768337  0.813516  0.998286  0.324714
    F   F1    0.795437  0.757084  0.998779  -0.206294
    C   C165  0.781857  0.854474  0.976517  -0.225227
    C   C166  0.754334  0.911916  0.976016  -0.193341
    H   H73   0.667542  0.900055  0.035879  0.133530
    H   H74   0.716118  0.797616  0.036466  0.163801
    H   H75   0.813999  0.841519  0.959798  0.159242
    H   H76   0.764762  0.943479  0.958688  0.131762
    C   C167  0.071065  0.713685  0.997538  0.288459
    C   C168  0.112700  0.699433  0.019018  -0.142392
    C   C169  0.170172  0.726906  0.019447  -0.265008
    C   C170  0.186484  0.768337  0.998285  0.324715
    F   F2    0.242916  0.795437  0.998779  -0.206290
    C   C171  0.145526  0.781857  0.976517  -0.225221
    C   C172  0.088084  0.754334  0.976016  -0.193341
    H   H77   0.099945  0.667542  0.035879  0.133535
    H   H78   0.202384  0.716118  0.036466  0.163807
    H   H79   0.158481  0.813999  0.959798  0.159239
    H   H80   0.056521  0.764762  0.958688  0.131763
    C   C173  0.286315  0.071065  0.997538  0.288452
    C   C174  0.300567  0.112700  0.019018  -0.142384
    C   C175  0.273094  0.170172  0.019447  -0.264976
    C   C176  0.231663  0.186484  0.998286  0.324655
    F   F3    0.204563  0.242916  0.998779  -0.206251
    C   C177  0.218143  0.145526  0.976517  -0.225221
    C   C178  0.245666  0.088084  0.976016  -0.193335
    H   H81   0.332458  0.099945  0.035879  0.133533
    H   H82   0.283882  0.202384  0.036466  0.163793
    H   H83   0.186001  0.158481  0.959798  0.159245
    H   H84   0.235238  0.056522  0.958688  0.131759
    C   C179  0.928935  0.286315  0.997538  0.288403
    C   C180  0.887300  0.300567  0.019018  -0.142383
    C   C181  0.829828  0.273094  0.019447  -0.264996
    C   C182  0.813516  0.231663  0.998286  0.324725
    F   F4    0.757084  0.204563  0.998779  -0.206293
    C   C183  0.854474  0.218143  0.976517  -0.225260
    C   C184  0.911916  0.245666  0.976016  -0.193302
    H   H85   0.900055  0.332458  0.035879  0.133531
    H   H86   0.797616  0.283882  0.036466  0.163802
    H   H87   0.841519  0.186001  0.959798  0.159252
    H   H88   0.943478  0.235238  0.958688  0.131753
    C   C185  0.213685  0.428935  0.497538  0.288471
    C   C186  0.199433  0.387300  0.519018  -0.142407
    C   C187  0.226906  0.329828  0.519447  -0.264965
    C   C188  0.268337  0.313516  0.498286  0.324662
    F   F5    0.295437  0.257084  0.498779  -0.206256
    C   C189  0.281857  0.354474  0.476517  -0.225218
    C   C190  0.254334  0.411916  0.476016  -0.193343
    H   H89   0.167542  0.400055  0.535879  0.133537
    H   H90   0.216118  0.297616  0.536466  0.163792
    H   H91   0.313999  0.341519  0.459798  0.159240
    H   H92   0.264762  0.443478  0.458688  0.131756
    C   C191  0.571065  0.213685  0.497538  0.288448
    C   C192  0.612700  0.199433  0.519018  -0.142404
    C   C193  0.670172  0.226906  0.519447  -0.264955
    C   C194  0.686484  0.268337  0.498286  0.324650
    F   F6    0.742916  0.295437  0.498779  -0.206254
    C   C195  0.645526  0.281857  0.476517  -0.225212
    C   C196  0.588084  0.254334  0.476016  -0.193344
    H   H93   0.599945  0.167542  0.535879  0.133533
    H   H94   0.702384  0.216118  0.536466  0.163794
    H   H95   0.658481  0.313999  0.459798  0.159241
    H   H96   0.556522  0.264762  0.458688  0.131764
    C   C197  0.786315  0.571065  0.497538  0.288438
    C   C198  0.800567  0.612700  0.519018  -0.142385
    C   C199  0.773094  0.670172  0.519447  -0.264973
    C   C200  0.731663  0.686484  0.498286  0.324679
    F   F7    0.704563  0.742916  0.498779  -0.206279
    C   C201  0.718143  0.645526  0.476517  -0.225220
    C   C202  0.745666  0.588084  0.476016  -0.193342
    H   H97   0.832458  0.599945  0.535879  0.133526
    H   H98   0.783882  0.702384  0.536466  0.163798
    H   H99   0.686001  0.658481  0.459798  0.159242
    H   H100  0.735238  0.556522  0.458688  0.131760
    C   C203  0.428935  0.786315  0.497538  0.288456
    C   C204  0.387300  0.800567  0.519018  -0.142403
    C   C205  0.329828  0.773094  0.519447  -0.264970
    C   C206  0.313516  0.731663  0.498286  0.324674
    F   F8    0.257084  0.704563  0.498779  -0.206271
    C   C207  0.354475  0.718143  0.476517  -0.225205
    C   C208  0.411916  0.745666  0.476016  -0.193354
    H   H101  0.400055  0.832458  0.535879  0.133530
    H   H102  0.297616  0.783882  0.536466  0.163800
    H   H103  0.341519  0.686001  0.459798  0.159240
    H   H104  0.443479  0.735238  0.458688  0.131761
