# generated using pymatgen
data_V2H18C28Cl3O10
_symmetry_space_group_name_H-M   'P 1'
_cell_length_a   6.70372900
_cell_length_b   20.22923400
_cell_length_c   23.68453900
_cell_angle_alpha   90.06774600
_cell_angle_beta   90.01015600
_cell_angle_gamma   90.00412100
_symmetry_Int_Tables_number   1
_chemical_formula_structural   V2H18C28Cl3O10
_chemical_formula_sum   'V4 H36 C56 Cl6 O20'
_cell_volume   3211.88888159
_cell_formula_units_Z   2
loop_
 _symmetry_equiv_pos_site_id
 _symmetry_equiv_pos_as_xyz
  1  'x, y, z'
loop_
 _atom_site_type_symbol
 _atom_site_label
 _atom_site_symmetry_multiplicity
 _atom_site_fract_x
 _atom_site_fract_y
 _atom_site_fract_z
 _atom_site_occupancy
  V  V1  1  0.92736000  0.49023800  0.50085000  1
  V  V2  1  0.42736600  0.50715100  0.50083300  1
  V  V3  1  0.30544500  0.00670600  0.00118700  1
  V  V4  1  0.80547700  0.99184600  0.00114900  1
  H  H1  1  0.30083400  0.66159800  0.77775600  1
  H  H2  1  0.95079100  0.70718000  0.83178200  1
  H  H3  1  0.43715100  0.79369900  0.77328500  1
  H  H4  1  0.25638400  0.80576900  0.66599500  1
  H  H5  1  0.90625600  0.85141500  0.72003900  1
  H  H6  1  0.76990000  0.71921000  0.72446100  1
  H  H7  1  0.24073800  0.78607200  0.33963500  1
  H  H8  1  0.16330400  0.86018800  0.27124600  1
  H  H9  1  0.79976500  0.75080900  0.19929400  1
  H  H10  1  0.82237900  0.82588800  0.24058600  1
  H  H11  1  0.87991300  0.76883700  0.32138600  1
  H  H12  1  0.79692700  0.69634000  0.28295100  1
  H  H13  1  0.34059900  0.72927600  0.17451100  1
  H  H14  1  0.09575200  0.70532200  0.14929500  1
  H  H15  1  0.30921500  0.64604700  0.23809000  1
  H  H16  1  0.04514100  0.63687000  0.22378900  1
  H  H17  1  0.36543000  0.14981900  0.74527800  1
  H  H18  1  0.44310100  0.21019600  0.66724700  1
  H  H19  1  0.93004200  0.26936400  0.71997900  1
  H  H20  1  0.81435700  0.21968800  0.66529800  1
  H  H21  1  0.72984900  0.13827400  0.72705500  1
  H  H22  1  0.90751100  0.17700900  0.77435900  1
  H  H23  1  0.46437400  0.34619700  0.77112800  1
  H  H24  1  0.73262300  0.35702300  0.76857200  1
  H  H25  1  0.52444200  0.28086700  0.84742300  1
  H  H26  1  0.29570600  0.27514600  0.69951600  1
  H  H27  1  0.28461700  0.22219300  0.78424200  1
  H  H28  1  0.78734500  0.27334000  0.83079200  1
  H  H29  1  0.45402900  0.35138600  0.23134700  1
  H  H30  1  0.82410100  0.34840700  0.24142200  1
  H  H31  1  0.74107200  0.28908800  0.16320800  1
  H  H32  1  0.91029700  0.22687600  0.19039700  1
  H  H33  1  0.45542100  0.21135800  0.33120300  1
  H  H34  1  0.72310300  0.21000200  0.34208000  1
  H  H35  1  0.29903500  0.30607800  0.28066200  1
  H  H36  1  0.77670000  0.14910400  0.26270100  1
  C  C1  1  0.64535100  0.41975500  0.58106200  1
  C  C2  1  0.64543300  0.41945000  0.42088200  1
  C  C3  1  0.14547500  0.57744000  0.42053200  1
  C  C4  1  0.14536300  0.57815500  0.58069800  1
  C  C5  1  0.02024800  0.72884000  0.79354800  1
  C  C6  1  0.21122900  0.70530000  0.76531600  1
  C  C7  1  0.13314400  0.62564900  0.62552200  1
  C  C8  1  0.08656600  0.88571500  0.87362500  1
  C  C9  1  0.92104200  0.73680400  0.73617500  1
  C  C10  1  0.11196000  0.71412300  0.70877900  1
  C  C11  1  0.99584200  0.80770600  0.73247500  1
  C  C12  1  0.09519900  0.79882700  0.78899700  1
  C  C13  1  0.18688800  0.78411200  0.70422400  1
  C  C14  1  0.28600200  0.77611300  0.76156800  1
  C  C15  1  0.12310200  0.66562600  0.66311600  1
  C  C16  1  0.08861800  0.84676000  0.83515800  1
  C  C17  1  0.23374600  0.81579100  0.25231600  1
  C  C18  1  0.89227900  0.77755400  0.23071200  1
  C  C19  1  0.90818900  0.73688100  0.28416000  1
  C  C20  1  0.13437200  0.62339300  0.37444000  1
  C  C21  1  0.09898900  0.78834400  0.20664500  1
  C  C22  1  0.26409600  0.76369000  0.29738500  1
  C  C23  1  0.11611600  0.70817100  0.28824300  1
  C  C24  1  0.16549700  0.67268500  0.23364700  1
  C  C25  1  0.18178400  0.72285700  0.18640300  1
  C  C26  1  0.12594700  0.66171800  0.33555100  1
  C  C27  1  0.08809400  0.83511600  0.15958000  1
  C  C28  1  0.07698700  0.87427800  0.12135600  1
  C  C29  1  0.42819000  0.24287600  0.70463600  1
  C  C30  1  0.79585200  0.24029200  0.70839100  1
  C  C31  1  0.76778500  0.18435200  0.75008900  1
  C  C32  1  0.58860700  0.11454500  0.87445400  1
  C  C33  1  0.61439500  0.28478800  0.71028900  1
  C  C34  1  0.40441000  0.20119800  0.75737200  1
  C  C35  1  0.59894800  0.20174000  0.78986800  1
  C  C36  1  0.63389400  0.27037200  0.81347100  1
  C  C37  1  0.60953500  0.32047000  0.76648800  1
  C  C38  1  0.59145300  0.15374000  0.83611400  1
  C  C39  1  0.62416400  0.33294400  0.66419500  1
  C  C40  1  0.63341200  0.37259200  0.62627700  1
  C  C41  1  0.43313500  0.30351700  0.25333700  1
  C  C42  1  0.80048800  0.29574700  0.25253400  1
  C  C43  1  0.77276600  0.25557900  0.19913100  1
  C  C44  1  0.57645300  0.12360900  0.12178900  1
  C  C45  1  0.61566400  0.28888000  0.28879400  1
  C  C46  1  0.40734900  0.24882400  0.21031100  1
  C  C47  1  0.59831500  0.20906800  0.20723600  1
  C  C48  1  0.62561200  0.17140100  0.26187700  1
  C  C49  1  0.60269700  0.21885300  0.31087500  1
  C  C50  1  0.58743700  0.16255100  0.16012600  1
  C  C51  1  0.62572200  0.33515200  0.33609400  1
  C  C52  1  0.63430300  0.37345300  0.37494800  1
  C  C53  1  0.56045500  0.07639400  0.07688200  1
  C  C54  1  0.58965200  0.06832400  0.92049600  1
  C  C55  1  0.08851000  0.93131600  0.91998200  1
  C  C56  1  0.06076700  0.92180100  0.07656100  1
  Cl  Cl1  1  0.46828800  0.83755800  0.22262800  1
  Cl  Cl2  1  0.51065000  0.73179500  0.29282700  1
  Cl  Cl3  1  0.35412400  0.28374800  0.14312300  1
  Cl  Cl4  1  0.01079700  0.26572200  0.29038300  1
  Cl  Cl5  1  0.44251900  0.10809500  0.26696100  1
  Cl  Cl6  1  0.20780100  0.19632500  0.23110800  1
  O  O1  1  0.47884200  0.44367500  0.43948000  1
  O  O2  1  0.81972100  0.42997600  0.55885300  1
  O  O3  1  0.97891100  0.55375300  0.56217300  1
  O  O4  1  0.81973100  0.42954800  0.44306700  1
  O  O5  1  0.97890300  0.55325100  0.43926000  1
  O  O6  1  0.47890800  0.44409900  0.56239600  1
  O  O7  1  0.65343500  0.54024700  0.50077000  1
  O  O8  1  0.31974700  0.56740600  0.44282400  1
  O  O9  1  0.31977200  0.56785400  0.55860800  1
  O  O10  1  0.15325100  0.45714200  0.50091400  1
  O  O11  1  0.76300300  0.03744100  0.92873200  1
  O  O12  1  0.39477000  0.04125900  0.07496300  1
  O  O13  1  0.21395600  0.92669700  0.04118700  1
  O  O14  1  0.44930000  0.07714400  0.95990500  1
  O  O15  1  0.26268200  0.96152300  0.92851100  1
  O  O16  1  0.71358200  0.07180700  0.04153500  1
  O  O17  1  0.58025600  0.95511800  0.00019500  1
  O  O18  1  0.94966700  0.92165400  0.95956100  1
  O  O19  1  0.89478600  0.95689800  0.07473500  1
  O  O20  1  0.08035100  0.04351100  0.00047700  1
