# generated using pymatgen
data_Cu3H26(C17O6)2
_symmetry_space_group_name_H-M   'P 1'
_cell_length_a   31.01800000
_cell_length_b   21.69633800
_cell_length_c   21.70441800
_cell_angle_alpha   90.00000000
_cell_angle_beta   135.60666300
_cell_angle_gamma   90.00000000
_symmetry_Int_Tables_number   1
_chemical_formula_structural   Cu3H26(C17O6)2
_chemical_formula_sum   'Cu12 H104 C136 O48'
_cell_volume   10218.47093564
_cell_formula_units_Z   4
loop_
 _symmetry_equiv_pos_site_id
 _symmetry_equiv_pos_as_xyz
  1  'x, y, z'
loop_
 _atom_site_type_symbol
 _atom_site_label
 _atom_site_symmetry_multiplicity
 _atom_site_fract_x
 _atom_site_fract_y
 _atom_site_fract_z
 _atom_site_occupancy
  Cu  Cu1  1  0.99987300  0.49346700  0.06201300  1
  Cu  Cu2  1  0.49987300  0.99346700  0.06201300  1
  Cu  Cu3  1  0.99467400  0.49425000  0.93405800  1
  Cu  Cu4  1  0.49467400  0.99425000  0.93405800  1
  Cu  Cu5  1  0.93576700  0.99670200  0.93549100  1
  Cu  Cu6  1  0.43576700  0.49670200  0.93549100  1
  Cu  Cu7  1  0.05845700  0.99126200  0.06472600  1
  Cu  Cu8  1  0.55845700  0.49126200  0.06472600  1
  Cu  Cu9  1  0.49599200  0.55735300  0.49815100  1
  Cu  Cu10  1  0.49814400  0.43455900  0.50194700  1
  Cu  Cu11  1  0.99599200  0.05735300  0.49815100  1
  Cu  Cu12  1  0.99814400  0.93455900  0.50194700  1
  H  H1  1  0.94221600  0.68781100  0.85724000  1
  H  H2  1  0.95633700  0.29849700  0.86762200  1
  H  H3  1  0.44221600  0.18781100  0.85724000  1
  H  H4  1  0.45633700  0.79849700  0.86762200  1
  H  H5  1  0.93930600  0.80113300  0.85631400  1
  H  H6  1  0.95659000  0.18525900  0.87014000  1
  H  H7  1  0.43930600  0.30113300  0.85631400  1
  H  H8  1  0.45659000  0.68525900  0.87014000  1
  H  H9  1  0.02420600  0.80049700  0.16853600  1
  H  H10  1  0.02852200  0.18798600  0.17196600  1
  H  H11  1  0.52420600  0.30049700  0.16853600  1
  H  H12  1  0.52852200  0.68798600  0.17196600  1
  H  H13  1  0.09883600  0.80027700  0.20014400  1
  H  H14  1  0.10677000  0.19076600  0.21404400  1
  H  H15  1  0.59883600  0.30027700  0.20014400  1
  H  H16  1  0.60677000  0.69076600  0.21404400  1
  H  H17  1  0.02431900  0.68833000  0.16925000  1
  H  H18  1  0.02485700  0.29990300  0.16897400  1
  H  H19  1  0.52431900  0.18833000  0.16925000  1
  H  H20  1  0.52485700  0.79990300  0.16897400  1
  H  H21  1  0.09875500  0.68815900  0.20031000  1
  H  H22  1  0.10280500  0.30288300  0.21027700  1
  H  H23  1  0.59875500  0.18815900  0.20031000  1
  H  H24  1  0.60280500  0.80288300  0.21027700  1
  H  H25  1  0.19034100  0.56196800  0.11528000  1
  H  H26  1  0.69034100  0.06196800  0.11528000  1
  H  H27  1  0.30369700  0.56266000  0.23173100  1
  H  H28  1  0.80369600  0.06266000  0.23173100  1
  H  H29  1  0.30468900  0.43111400  0.43385400  1
  H  H30  1  0.30208200  0.36669300  0.37282500  1
  H  H31  1  0.80468900  0.93111400  0.43385400  1
  H  H32  1  0.80208200  0.86669300  0.37282500  1
  H  H33  1  0.19264300  0.43308800  0.32207700  1
  H  H34  1  0.19004300  0.36933800  0.26033200  1
  H  H35  1  0.69264300  0.93308800  0.32207700  1
  H  H36  1  0.69004300  0.86933800  0.26033200  1
  H  H37  1  0.79994900  0.47004900  0.70749900  1
  H  H38  1  0.29994900  0.97004900  0.70749900  1
  H  H39  1  0.68720600  0.47274600  0.59515000  1
  H  H40  1  0.18720500  0.97274600  0.59515000  1
  H  H41  1  0.68847500  0.48636300  0.83421400  1
  H  H42  1  0.69434000  0.57096100  0.82331700  1
  H  H43  1  0.18847500  0.98636300  0.83421400  1
  H  H44  1  0.19434000  0.07096100  0.82331700  1
  H  H45  1  0.07893900  0.93355200  0.88907000  1
  H  H46  1  0.57893900  0.43355200  0.88907000  1
  H  H47  1  0.57702500  0.43363500  0.77374500  1
  H  H48  1  0.07702500  0.93363500  0.77374500  1
  H  H49  1  0.36848900  0.55262800  0.56290900  1
  H  H50  1  0.42259000  0.62067900  0.62080000  1
  H  H51  1  0.86848900  0.05262800  0.56290900  1
  H  H52  1  0.92259000  0.12067900  0.62080000  1
  H  H53  1  0.86704400  0.04946600  0.67337400  1
  H  H54  1  0.92170600  0.11703100  0.73201200  1
  H  H55  1  0.36704400  0.54946600  0.67337400  1
  H  H56  1  0.42170600  0.61703100  0.73201200  1
  H  H57  1  0.05883800  0.91911900  0.25621100  1
  H  H58  1  0.55883800  0.41911900  0.25621100  1
  H  H59  1  0.55859500  0.41847100  0.36922300  1
  H  H60  1  0.05859500  0.91847100  0.36922300  1
  H  H61  1  0.43617100  0.62691900  0.24229900  1
  H  H62  1  0.37061900  0.56989300  0.17873900  1
  H  H63  1  0.93617100  0.12691900  0.24229900  1
  H  H64  1  0.87061900  0.06989300  0.17873900  1
  H  H65  1  0.93317700  0.12404800  0.12725800  1
  H  H66  1  0.86711800  0.06759400  0.06304700  1
  H  H67  1  0.43317700  0.62404800  0.12725800  1
  H  H68  1  0.36711800  0.56759400  0.06304700  1
  H  H69  1  0.85568300  0.45431400  0.00701300  1
  H  H70  1  0.77970100  0.42197200  0.92487700  1
  H  H71  1  0.75160800  0.48817200  0.99058200  1
  H  H72  1  0.83244600  0.50759100  0.07854200  1
  H  H73  1  0.85839500  0.39586500  0.11070400  1
  H  H74  1  0.77712600  0.37731100  0.02460900  1
  H  H75  1  0.84103800  0.45638300  0.18853100  1
  H  H76  1  0.81519900  0.37763800  0.17082400  1
  H  H77  1  0.75954500  0.43848200  0.10191900  1
  H  H78  1  0.86710400  0.56930500  0.01444900  1
  H  H79  1  0.79852600  0.59728600  0.98154600  1
  H  H80  1  0.76212100  0.63844400  0.84130000  1
  H  H81  1  0.83487500  0.61416700  0.88249900  1
  H  H82  1  0.89198700  0.67941000  0.01184400  1
  H  H83  1  0.82165500  0.70178700  0.97889600  1
  H  H84  1  0.84810400  0.72323200  0.86858200  1
  H  H85  1  0.85856000  0.77984400  0.93950000  1
  H  H86  1  0.78239400  0.75032400  0.84502100  1
  H  H87  1  0.35568300  0.95431400  0.00701300  1
  H  H88  1  0.27970100  0.92197200  0.92487700  1
  H  H89  1  0.25160800  0.98817300  0.99058200  1
  H  H90  1  0.33244600  0.00759100  0.07854200  1
  H  H91  1  0.35839500  0.89586500  0.11070400  1
  H  H92  1  0.27712600  0.87731100  0.02460900  1
  H  H93  1  0.34103800  0.95638300  0.18853100  1
  H  H94  1  0.31519900  0.87763800  0.17082400  1
  H  H95  1  0.25954400  0.93848200  0.10191900  1
  H  H96  1  0.36710400  0.06930500  0.01444900  1
  H  H97  1  0.29852600  0.09728600  0.98154600  1
  H  H98  1  0.26212100  0.13844400  0.84130000  1
  H  H99  1  0.33487500  0.11416700  0.88249900  1
  H  H100  1  0.39198700  0.17941000  0.01184300  1
  H  H101  1  0.32165500  0.20178700  0.97889500  1
  H  H102  1  0.34810400  0.22323200  0.86858200  1
  H  H103  1  0.35856000  0.27984400  0.93950000  1
  H  H104  1  0.28239400  0.25032400  0.84502100  1
  C  C1  1  0.11535700  0.49570500  0.11376200  1
  C  C2  1  0.61535700  0.99570500  0.11376200  1
  C  C3  1  0.99409200  0.61210400  0.99525200  1
  C  C4  1  0.99950800  0.37557500  0.99989000  1
  C  C5  1  0.49409200  0.11210400  0.99525200  1
  C  C6  1  0.49950800  0.87557500  0.99989000  1
  C  C7  1  0.87892500  0.49149400  0.88209400  1
  C  C8  1  0.37892500  0.99149400  0.88209400  1
  C  C9  1  0.01709300  0.71343300  0.06571800  1
  C  C10  1  0.02682200  0.27504200  0.07447900  1
  C  C11  1  0.51709300  0.21343300  0.06571800  1
  C  C12  1  0.52682200  0.77504200  0.07447900  1
  C  C13  1  0.99165300  0.67940100  0.99303100  1
  C  C14  1  0.00159000  0.30831100  0.00123100  1
  C  C15  1  0.49165300  0.17940100  0.99303100  1
  C  C16  1  0.50159000  0.80831100  0.00123100  1
  C  C17  1  0.96361400  0.71208100  0.91695000  1
  C  C18  1  0.97738000  0.27490400  0.92759400  1
  C  C19  1  0.46361400  0.21208100  0.91695000  1
  C  C20  1  0.47738000  0.77490400  0.92759400  1
  C  C21  1  0.96147000  0.77640000  0.91606900  1
  C  C22  1  0.97737300  0.21064300  0.92884900  1
  C  C23  1  0.46147000  0.27640000  0.91606900  1
  C  C24  1  0.47737300  0.71064300  0.92884900  1
  C  C25  1  0.98968300  0.80870400  0.99224100  1
  C  C26  1  0.00429900  0.17911400  0.00496800  1
  C  C27  1  0.48968300  0.30870400  0.99224100  1
  C  C28  1  0.50429900  0.67911400  0.00496800  1
  C  C29  1  0.01741800  0.77452200  0.06574000  1
  C  C30  1  0.02941500  0.21396000  0.07677500  1
  C  C31  1  0.51741800  0.27452200  0.06574000  1
  C  C32  1  0.52941500  0.71396000  0.07677500  1
  C  C33  1  0.05237600  0.78021500  0.15980000  1
  C  C34  1  0.05922000  0.20925400  0.16843800  1
  C  C35  1  0.55237600  0.28021500  0.15980000  1
  C  C36  1  0.55922000  0.70925400  0.16843800  1
  C  C37  1  0.05231300  0.70825500  0.16001500  1
  C  C38  1  0.05667500  0.28116900  0.16614600  1
  C  C39  1  0.55231300  0.20825500  0.16001500  1
  C  C40  1  0.55667500  0.78116900  0.16614600  1
  C  C41  1  0.21669600  0.45897400  0.25344200  1
  C  C42  1  0.71669600  0.95897400  0.25344200  1
  C  C43  1  0.18252200  0.49533200  0.17981100  1
  C  C44  1  0.68252200  0.99533200  0.17981100  1
  C  C45  1  0.21487700  0.53205300  0.17170900  1
  C  C46  1  0.71487700  0.03205300  0.17170900  1
  C  C47  1  0.27918900  0.53266100  0.23802400  1
  C  C48  1  0.77918900  0.03266100  0.23802400  1
  C  C49  1  0.31170300  0.49415900  0.31069300  1
  C  C50  1  0.81170300  0.99415900  0.31069300  1
  C  C51  1  0.27772100  0.45717200  0.31408700  1
  C  C52  1  0.77772100  0.95717200  0.31408700  1
  C  C53  1  0.28328200  0.41129300  0.37003600  1
  C  C54  1  0.78328200  0.91129300  0.37003600  1
  C  C55  1  0.21136900  0.41289800  0.29816100  1
  C  C56  1  0.71136900  0.91289800  0.29816100  1
  C  C57  1  0.77882700  0.50530500  0.83475000  1
  C  C58  1  0.27882700  0.00530500  0.83475000  1
  C  C59  1  0.81147900  0.49196200  0.81529200  1
  C  C60  1  0.31147900  0.99196200  0.81529200  1
  C  C61  1  0.77723100  0.48111500  0.72719300  1
  C  C62  1  0.27723100  0.98111500  0.72719300  1
  C  C63  1  0.71306400  0.48280900  0.66292500  1
  C  C64  1  0.21306400  0.98280900  0.66292500  1
  C  C65  1  0.68224900  0.49790600  0.68516900  1
  C  C66  1  0.18224900  0.99790600  0.68516900  1
  C  C67  1  0.71761800  0.50948300  0.77215900  1
  C  C68  1  0.21761800  0.00948300  0.77215900  1
  C  C69  1  0.71220500  0.52386900  0.83313500  1
  C  C70  1  0.21220500  0.02386900  0.83313500  1
  C  C71  1  0.78412300  0.51885300  0.90728700  1
  C  C72  1  0.28412300  0.01885300  0.90728700  1
  C  C73  1  0.00074800  0.99415400  0.88562000  1
  C  C74  1  0.50074800  0.49415400  0.88562000  1
  C  C75  1  0.99198900  0.87585200  0.99524600  1
  C  C76  1  0.00207800  0.11209600  0.00587900  1
  C  C77  1  0.49198900  0.37585200  0.99524600  1
  C  C78  1  0.50207800  0.61209600  0.00587900  1
  C  C79  1  0.99345300  0.99312800  0.11451000  1
  C  C80  1  0.49345300  0.49312800  0.11451000  1
  C  C81  1  0.49496500  0.49434400  0.37965000  1
  C  C82  1  0.99496500  0.99434400  0.37965000  1
  C  C83  1  0.37885200  0.49473000  0.38110200  1
  C  C84  1  0.87885200  0.99473000  0.38110200  1
  C  C85  1  0.49952200  0.49743200  0.62072100  1
  C  C86  1  0.99952200  0.99743200  0.62072100  1
  C  C87  1  0.61521100  0.49728400  0.61961300  1
  C  C88  1  0.11521100  0.99728400  0.61961300  1
  C  C89  1  0.96155600  0.03004500  0.74488700  1
  C  C90  1  0.46155600  0.53004500  0.74488700  1
  C  C91  1  0.00269900  0.99572200  0.82039200  1
  C  C92  1  0.50269900  0.49572200  0.82039200  1
  C  C93  1  0.04562400  0.96179600  0.83109300  1
  C  C94  1  0.54562400  0.46179600  0.83109300  1
  C  C95  1  0.54432600  0.46160300  0.76545400  1
  C  C96  1  0.04432600  0.96160200  0.76545400  1
  C  C97  1  0.50226800  0.49786700  0.69069400  1
  C  C98  1  0.00226800  0.99786700  0.69069400  1
  C  C99  1  0.46249600  0.53239100  0.68480100  1
  C  C100  1  0.96249600  0.03239100  0.68480100  1
  C  C101  1  0.40928700  0.57495500  0.62576900  1
  C  C102  1  0.90928700  0.07495500  0.62576900  1
  C  C103  1  0.90849100  0.07266800  0.69685300  1
  C  C104  1  0.40849100  0.57266800  0.69685300  1
  C  C105  1  0.95673600  0.03110300  0.17830200  1
  C  C106  1  0.45673600  0.53110300  0.17830200  1
  C  C107  1  0.99234700  0.99168000  0.18055500  1
  C  C108  1  0.49234700  0.49168000  0.18055500  1
  C  C109  1  0.02985700  0.95128100  0.25126400  1
  C  C110  1  0.52985700  0.45128100  0.25126400  1
  C  C111  1  0.52954800  0.45078000  0.31518900  1
  C  C112  1  0.02954800  0.95078000  0.31518900  1
  C  C113  1  0.49430900  0.49304600  0.31176000  1
  C  C114  1  0.99430900  0.99304600  0.31176000  1
  C  C115  1  0.45898900  0.53290600  0.24168600  1
  C  C116  1  0.95898900  0.03290600  0.24168600  1
  C  C117  1  0.41449000  0.58445800  0.20174800  1
  C  C118  1  0.91449000  0.08445800  0.20174800  1
  C  C119  1  0.91232000  0.08272800  0.12762600  1
  C  C120  1  0.41232000  0.58272800  0.12762600  1
  C  C121  1  0.80643400  0.46305700  0.96663800  1
  C  C122  1  0.79899600  0.47257800  0.02811200  1
  C  C123  1  0.81138500  0.41237000  0.07407000  1
  C  C124  1  0.80644600  0.42196800  0.13800700  1
  C  C125  1  0.81742100  0.57912700  0.95699000  1
  C  C126  1  0.81126900  0.62869400  0.90125600  1
  C  C127  1  0.84185400  0.68749800  0.95482200  1
  C  C128  1  0.83205900  0.73852800  0.89817600  1
  C  C129  1  0.30643400  0.96305700  0.96663800  1
  C  C130  1  0.29899600  0.97257800  0.02811200  1
  C  C131  1  0.31138500  0.91237000  0.07407000  1
  C  C132  1  0.30644600  0.92196800  0.13800700  1
  C  C133  1  0.31742100  0.07912700  0.95699000  1
  C  C134  1  0.31126900  0.12869400  0.90125500  1
  C  C135  1  0.34185400  0.18749800  0.95482200  1
  C  C136  1  0.33205900  0.23852800  0.89817600  1
  O  O1  1  0.08902400  0.49113500  0.14106400  1
  O  O2  1  0.58902400  0.99113500  0.14106400  1
  O  O3  1  0.08439300  0.50002100  0.03032100  1
  O  O4  1  0.58439300  0.00002100  0.03032100  1
  O  O5  1  0.00152400  0.58310600  0.05536400  1
  O  O6  1  0.00218800  0.40388200  0.05591300  1
  O  O7  1  0.50152400  0.08310600  0.05536400  1
  O  O8  1  0.50218800  0.90388200  0.05591300  1
  O  O9  1  0.99390400  0.58384100  0.94170500  1
  O  O10  1  0.00052300  0.40479100  0.94804100  1
  O  O11  1  0.49390400  0.08384100  0.94170500  1
  O  O12  1  0.50052300  0.90479100  0.94804100  1
  O  O13  1  0.91001100  0.49075900  0.96560500  1
  O  O14  1  0.41001100  0.99075900  0.96560500  1
  O  O15  1  0.90553000  0.49337600  0.85512600  1
  O  O16  1  0.40553000  0.99337600  0.85512600  1
  O  O17  1  0.94689000  0.99896200  0.85759900  1
  O  O18  1  0.44689000  0.49896200  0.85759900  1
  O  O19  1  0.05308800  0.99401200  0.96944600  1
  O  O20  1  0.55308800  0.49401200  0.96944600  1
  O  O21  1  0.94031700  0.90681000  0.93771900  1
  O  O22  1  0.94791000  0.08582600  0.94603000  1
  O  O23  1  0.44031700  0.40681000  0.93771900  1
  O  O24  1  0.44791000  0.58582600  0.94603000  1
  O  O25  1  0.04628000  0.90214500  0.04957700  1
  O  O26  1  0.05412400  0.08118200  0.05808700  1
  O  O27  1  0.54628000  0.40214500  0.04957700  1
  O  O28  1  0.55412400  0.58118200  0.05808700  1
  O  O29  1  0.94140100  0.99854900  0.03107800  1
  O  O30  1  0.44140100  0.49854900  0.03107800  1
  O  O31  1  0.04739100  0.99365500  0.14264000  1
  O  O32  1  0.54739100  0.49365500  0.14264000  1
  O  O33  1  0.49393600  0.54801000  0.40655700  1
  O  O34  1  0.49722600  0.44153000  0.41132000  1
  O  O35  1  0.99393600  0.04801000  0.40655700  1
  O  O36  1  0.99722600  0.94153000  0.41132000  1
  O  O37  1  0.40657100  0.54803700  0.40409100  1
  O  O38  1  0.40840900  0.44192500  0.41143000  1
  O  O39  1  0.90657100  0.04803700  0.40409100  1
  O  O40  1  0.90840900  0.94192500  0.41143000  1
  O  O41  1  0.49320400  0.54994300  0.58497300  1
  O  O42  1  0.50402600  0.44423100  0.59719500  1
  O  O43  1  0.99320400  0.04994300  0.58497300  1
  O  O44  1  0.00402600  0.94423100  0.59719500  1
  O  O45  1  0.58570800  0.55005500  0.58806200  1
  O  O46  1  0.58743900  0.44383700  0.58733700  1
  O  O47  1  0.08570800  0.05005500  0.58806200  1
  O  O48  1  0.08743900  0.94383700  0.58733700  1
