# Generated by REPEAT Assigner based on pymatgen
data_DB0-m3_o1480_o159_f0_fsc.sym.76_sqe
_audit_creation_date              2022-05-24
_audit_creation_method            REPEAT_Assigner
_cell_length_a                    8.518643
_cell_length_b                    10.697802
_cell_length_c                    13.431894
_cell_angle_alpha                 97.625667
_cell_angle_beta                  90.095563
_cell_angle_gamma                 90.008396
_cell_volume                      1213.231613
_symmetry_space_group_name_H-M    P1
_symmetry_Int_Tables_number       1
loop_
    _symmetry_equiv_pos_site_id
    _symmetry_equiv_pos_as_xyz
    1  x,y,z
loop_
    _atom_site_type_symbol
    _atom_site_label
    _atom_site_fract_x
    _atom_site_fract_y
    _atom_site_fract_z
    _atom_type_partial_charge
    C   C1   0.982878  0.681678  0.038030  -0.089674
    C   C2   0.123933  0.738753  0.024503  -0.054010
    C   C3   0.126967  0.858940  0.999378  -0.385254
    C   C4   0.844454  0.740779  0.019852  -0.102338
    C   C5   0.846166  0.864739  0.999382  -0.249414
    C   C6   0.988250  0.926287  0.993005  0.490936
    C   C7   0.987848  0.052076  0.976062  -0.354399
    C   C8   0.125623  0.121858  0.977612  -0.064311
    C   C9   0.122263  0.243900  0.957351  -0.124861
    C   C10  0.707500  0.927868  0.985918  0.320564
    N   N1   0.709636  0.049301  0.969296  -0.679736
    C   C11  0.845650  0.112113  0.963962  0.647999
    C   C12  0.843333  0.238115  0.949081  -0.311760
    C   C13  0.982290  0.300636  0.940264  -0.049890
    H   H1   0.595668  0.881366  0.990533  0.041726
    H   H2   0.980904  0.584239  0.051077  0.115213
    H   H3   0.980596  0.399314  0.930867  0.128857
    H   H4   0.240337  0.894032  0.981710  0.174726
    H   H5   0.238276  0.087095  0.997196  0.093616
    O   O1   0.314066  0.624822  0.922346  -0.688969
    O   O2   0.321989  0.616992  0.093315  -0.746432
    C   C14  0.265078  0.661195  0.013979  0.883249
    O   O3   0.317092  0.356039  0.058932  -0.672451
    O   O4   0.316539  0.363774  0.887387  -0.706741
    C   C15  0.263631  0.320368  0.967754  0.802657
    O   O5   0.654754  0.354902  0.054358  -0.609683
    O   O6   0.645245  0.361731  0.883334  -0.682746
    C   C16  0.701243  0.315762  0.962028  0.782757
    O   O7   0.651917  0.623932  0.918589  -0.709199
    O   O8   0.651356  0.617252  0.089615  -0.772660
    C   C17  0.703590  0.662193  0.009672  0.889241
    Zn  Zn1  0.487554  0.483420  0.099154  1.057875
    Zn  Zn2  0.481399  0.496642  0.878028  1.008035
    C   C18  0.472318  0.392067  0.686709  -0.247957
    N   N2   0.477268  0.501837  0.748128  0.157309
    C   C19  0.476471  0.611954  0.710194  -0.155565
    C   C20  0.472239  0.614026  0.607616  -0.133977
    C   C21  0.469385  0.501741  0.542249  -0.059944
    C   C22  0.469530  0.390324  0.583944  0.338399
    C   C23  0.464685  0.603066  0.389098  -0.330363
    C   C24  0.471757  0.496720  0.437450  0.251547
    C   C25  0.486107  0.381334  0.378199  -0.160657
    C   C26  0.476703  0.271410  0.421291  0.011752
    C   C27  0.467749  0.275975  0.523596  -0.366751
    C   C28  0.469583  0.591658  0.285744  -0.041963
    N   N3   0.491733  0.479028  0.229466  -0.043259
    C   C29  0.512589  0.375416  0.275706  0.402004
    H   H6   0.479972  0.699747  0.760326  0.160298
    H   H7   0.476519  0.180481  0.375294  0.124772
    H   H8   0.464055  0.189043  0.556383  0.169816
    H   H9   0.475326  0.705249  0.582441  0.136013
    H   H10  0.449104  0.696550  0.428243  0.168649
    H   H11  0.472459  0.304276  0.718288  0.188843
    H   H12  0.460314  0.676255  0.250395  0.164104
    O   O9   0.579605  0.269008  0.225335  -0.360170
    C   C30  0.730354  0.267094  0.267955  0.070202
    H   H13  0.729889  0.215819  0.334113  0.014116
    H   H14  0.771599  0.365105  0.290657  0.006079
    C   C31  0.845993  0.199855  0.194292  0.349164
    H   H15  0.791533  0.112163  0.156563  -0.002145
    H   H16  0.880814  0.263624  0.140003  0.005567
    C   C32  0.991930  0.166113  0.249694  -0.475723
    H   H17  0.040852  0.252221  0.293996  0.080778
    H   H18  0.080639  0.125043  0.194465  0.117359
    H   H19  0.962630  0.095897  0.300571  0.078778
