# Generated by REPEAT Assigner based on pymatgen
data_DB0-m2_o17_o23_f0_nbo.sym.99
_audit_creation_date              2022-05-24
_audit_creation_method            REPEAT_Assigner
_cell_length_a                    43.273885
_cell_length_b                    29.883485
_cell_length_c                    29.620185
_cell_angle_alpha                 90.000000
_cell_angle_beta                  132.609227
_cell_angle_gamma                 90.000000
_cell_volume                      28191.336216
_symmetry_space_group_name_H-M    P1
_symmetry_Int_Tables_number       1
loop_
    _symmetry_equiv_pos_site_id
    _symmetry_equiv_pos_as_xyz
    1  x,y,z
loop_
    _atom_site_type_symbol
    _atom_site_label
    _atom_site_fract_x
    _atom_site_fract_y
    _atom_site_fract_z
    _atom_type_partial_charge
    C   C1    0.497528  0.492548  0.912450  0.724342
    C   C2    0.724309  0.528889  0.256240  0.706217
    C   C3    0.978723  0.966362  0.183810  0.072555
    C   C4    0.547046  0.438254  0.817140  0.306642
    C   C5    0.452954  0.438253  0.182860  0.306882
    C   C6    0.047046  0.938254  0.817140  0.306662
    C   C7    0.952954  0.938253  0.182860  0.306334
    C   C8    0.547687  0.441876  0.771381  -0.417007
    C   C9    0.452313  0.441876  0.228619  -0.416934
    C   C10   0.047687  0.941876  0.771381  -0.417020
    C   C11   0.952313  0.941876  0.228619  -0.416516
    C   C12   0.470287  0.522742  0.814928  -0.236566
    C   C13   0.775690  0.028889  0.743759  0.707116
    C   C14   0.529713  0.522742  0.185071  -0.236349
    C   C15   0.970287  0.022742  0.814928  -0.236561
    C   C16   0.029713  0.022742  0.185071  -0.236403
    C   C17   0.496189  0.492952  0.862255  -0.075335
    C   C18   0.503810  0.492951  0.137744  -0.075382
    C   C19   0.996189  0.992952  0.862255  -0.075345
    C   C20   0.003810  0.992951  0.137744  -0.075459
    C   C21   0.521215  0.464273  0.862625  -0.149615
    C   C22   0.478785  0.464273  0.137375  -0.149350
    C   C23   0.021215  0.964273  0.862625  -0.149609
    C   C24   0.224309  0.028889  0.256240  0.706199
    C   C25   0.978785  0.964273  0.137375  -0.149398
    C   C26   0.000000  0.590193  0.500000  0.716060
    C   C27   0.500000  0.090193  0.500000  0.715973
    C   C28   0.080752  0.503788  0.582294  0.887070
    C   C29   0.919247  0.503788  0.417705  0.886992
    C   C30   0.580752  0.003788  0.582294  0.887065
    C   C31   0.419247  0.003788  0.417705  0.887052
    C   C32   0.000000  0.418386  0.500000  0.727409
    C   C33   0.500000  0.918386  0.500000  0.727439
    C   C34   0.500000  0.418854  0.500000  0.772778
    C   C35   0.272554  0.450056  0.765874  0.487464
    C   C36   0.000000  0.918853  0.500000  0.772762
    C   C37   0.497942  0.504220  0.583146  0.847942
    C   C38   0.502058  0.504220  0.416854  0.848413
    C   C39   0.997942  0.004220  0.583146  0.847952
    C   C40   0.002058  0.004220  0.416854  0.848395
    C   C41   0.500000  0.588400  0.500000  0.672094
    C   C42   0.000000  0.088400  0.500000  0.672148
    C   C43   0.476892  0.346856  0.508892  -0.282362
    C   C44   0.523108  0.346856  0.491108  -0.282353
    C   C45   0.976892  0.846856  0.508892  -0.282402
    C   C46   0.727445  0.450056  0.234125  0.488372
    C   C47   0.023108  0.846856  0.491108  -0.282344
    C   C48   0.500000  0.369990  0.500000  -0.010083
    C   C49   0.000000  0.869990  0.500000  -0.009997
    C   C50   0.522342  0.300705  0.489740  0.232986
    C   C51   0.477658  0.300705  0.510260  0.232946
    C   C52   0.022342  0.800705  0.489740  0.232895
    C   C53   0.977658  0.800705  0.510260  0.232936
    C   C54   0.500000  0.277626  0.500000  -0.024969
    C   C55   0.000000  0.777626  0.500000  -0.024873
    C   C56   0.543873  0.277592  0.478041  -0.241814
    C   C57   0.772554  0.950056  0.765874  0.487411
    C   C58   0.456127  0.277592  0.521959  -0.241743
    C   C59   0.043873  0.777592  0.478041  -0.241745
    C   C60   0.956127  0.777592  0.521959  -0.241702
    C   C61   0.042829  0.731505  0.476215  -0.231463
    C   C62   0.957170  0.731505  0.523784  -0.231468
    C   C63   0.542829  0.231505  0.476215  -0.231299
    C   C64   0.457170  0.231505  0.523784  -0.231397
    C   C65   0.021006  0.708391  0.487403  0.239672
    C   C66   0.978994  0.708391  0.512596  0.239416
    C   C67   0.521006  0.208391  0.487403  0.239308
    C   C68   0.227445  0.950056  0.234125  0.488365
    C   C69   0.478994  0.208391  0.512596  0.239333
    C   C70   0.000000  0.731469  0.500000  -0.033888
    C   C71   0.500000  0.231469  0.500000  -0.033672
    C   C72   0.020230  0.662238  0.486068  -0.299833
    C   C73   0.979769  0.662238  0.513932  -0.299645
    C   C74   0.520230  0.162238  0.486068  -0.299566
    C   C75   0.479769  0.162238  0.513932  -0.299721
    C   C76   0.000000  0.639082  0.500000  0.048049
    C   C77   0.500000  0.139082  0.500000  0.048088
    C   C78   0.525021  0.661245  0.554907  0.183605
    C   C79   0.225193  0.454113  0.713316  0.256944
    C   C80   0.474979  0.661245  0.445092  0.183365
    C   C81   0.025021  0.161245  0.554907  0.183499
    C   C82   0.974979  0.161245  0.445092  0.183290
    C   C83   0.500000  0.637813  0.500000  -0.129892
    C   C84   0.000000  0.137813  0.500000  -0.129832
    C   C85   0.476429  0.707645  0.445320  0.130197
    C   C86   0.523571  0.707645  0.554680  0.130013
    C   C87   0.976429  0.207645  0.445320  0.130314
    C   C88   0.023571  0.207645  0.554680  0.130189
    C   C89   0.500000  0.730744  0.500000  -0.193484
    C   C90   0.774806  0.454113  0.286683  0.256525
    C   C91   0.000000  0.230744  0.500000  -0.193634
    C   C92   0.454774  0.731068  0.391010  -0.311801
    C   C93   0.545226  0.731068  0.608990  -0.311486
    C   C94   0.954774  0.231068  0.391010  -0.311848
    C   C95   0.045226  0.231068  0.608990  -0.311554
    C   C96   0.954621  0.277275  0.390701  0.337796
    C   C97   0.045379  0.277275  0.609298  0.337628
    C   C98   0.454621  0.777275  0.390701  0.337764
    C   C99   0.545379  0.777275  0.609298  0.337611
    C   C100  0.977746  0.300230  0.445492  -0.109441
    C   C101  0.725193  0.954113  0.713316  0.256980
    C   C102  0.022254  0.300230  0.554507  -0.109502
    C   C103  0.477746  0.800230  0.445492  -0.109413
    C   C104  0.522254  0.800230  0.554507  -0.109478
    C   C105  0.000000  0.277023  0.500000  0.195959
    C   C106  0.500000  0.777023  0.500000  0.195901
    C   C107  0.978472  0.346484  0.445802  -0.029529
    C   C108  0.021528  0.346484  0.554197  -0.029418
    C   C109  0.478472  0.846484  0.445802  -0.029529
    C   C110  0.521528  0.846484  0.554197  -0.029415
    C   C111  0.000000  0.369530  0.500000  -0.121118
    C   C112  0.502471  0.492548  0.087549  0.724336
    C   C113  0.274806  0.954113  0.286683  0.256546
    C   C114  0.500000  0.869530  0.500000  -0.121147
    C   C115  0.297385  0.603518  0.793651  0.891734
    C   C116  0.330036  0.638901  0.821938  -0.542063
    C   C117  0.702614  0.603518  0.206349  0.891708
    C   C118  0.669963  0.638901  0.178061  -0.541918
    C   C119  0.797385  0.103518  0.793651  0.891745
    C   C120  0.830036  0.138901  0.821938  -0.542067
    C   C121  0.202614  0.103518  0.206349  0.891717
    C   C122  0.169963  0.138901  0.178061  -0.541917
    C   C123  0.462526  0.602208  0.588080  0.972428
    C   C124  0.126159  0.503254  0.628331  -0.283191
    C   C125  0.436661  0.634620  0.536360  -0.572179
    C   C126  0.537474  0.602208  0.411920  0.971676
    C   C127  0.563339  0.634619  0.463640  -0.571820
    C   C128  0.962526  0.102208  0.588080  0.972413
    C   C129  0.936661  0.134620  0.536360  -0.572221
    C   C130  0.037474  0.102208  0.411920  0.971657
    C   C131  0.063339  0.134619  0.463640  -0.571793
    C   C132  0.403525  0.624427  0.630295  0.791299
    C   C133  0.365357  0.647064  0.574714  -0.601196
    C   C134  0.596475  0.624426  0.369704  0.791378
    C   C135  0.873840  0.503254  0.371668  -0.282944
    C   C136  0.634644  0.647063  0.425286  -0.601197
    C   C137  0.903525  0.124427  0.630295  0.791309
    C   C138  0.865357  0.147064  0.574714  -0.601195
    C   C139  0.096475  0.124426  0.369704  0.791376
    C   C140  0.134644  0.147063  0.425286  -0.601196
    C   C141  0.583064  0.368435  0.858974  0.801511
    C   C142  0.618304  0.343640  0.915344  -0.606222
    C   C143  0.416936  0.368434  0.141026  0.801398
    C   C144  0.381696  0.343640  0.084656  -0.606111
    C   C145  0.083064  0.868435  0.858974  0.801522
    C   C146  0.626159  0.003254  0.628331  -0.283202
    C   C147  0.118304  0.843640  0.915344  -0.606230
    C   C148  0.916936  0.868434  0.141026  0.801379
    C   C149  0.881696  0.843640  0.084656  -0.606087
    C   C150  0.591446  0.637465  0.645249  0.869563
    C   C151  0.617420  0.613440  0.704921  -0.582022
    C   C152  0.408555  0.637465  0.354750  0.869219
    C   C153  0.382581  0.613440  0.295079  -0.581426
    C   C154  0.091446  0.137465  0.645249  0.869658
    C   C155  0.117420  0.113440  0.704921  -0.582072
    C   C156  0.908555  0.137465  0.354750  0.869237
    C   C157  0.373840  0.003254  0.371668  -0.283004
    C   C158  0.882581  0.113440  0.295079  -0.581440
    C   C159  0.895629  0.287959  0.283902  0.876836
    C   C160  0.878909  0.310570  0.226377  -0.624772
    C   C161  0.104371  0.287960  0.716098  0.876634
    C   C162  0.121091  0.310570  0.773623  -0.625002
    C   C163  0.395629  0.787959  0.283902  0.876826
    C   C164  0.378909  0.810570  0.226377  -0.624760
    C   C165  0.604371  0.787960  0.716098  0.876642
    C   C166  0.621091  0.810570  0.773623  -0.625009
    C   C167  0.311537  0.395291  0.761900  0.879133
    C   C168  0.290544  0.495919  0.794749  0.111491
    C   C169  0.330426  0.382378  0.736527  -0.524019
    C   C170  0.688462  0.395291  0.238099  0.878783
    C   C171  0.669573  0.382378  0.263472  -0.523855
    C   C172  0.811537  0.895291  0.761900  0.879172
    C   C173  0.830426  0.882378  0.736527  -0.523997
    C   C174  0.188462  0.895291  0.238099  0.878785
    C   C175  0.169573  0.882378  0.263472  -0.523850
    C   C176  0.180661  0.389622  0.678731  0.882973
    C   C177  0.158539  0.359043  0.688599  -0.622524
    C   C178  0.819339  0.389622  0.321268  0.882768
    C   C179  0.709455  0.495919  0.205250  0.112158
    C   C180  0.841461  0.359043  0.311399  -0.622291
    C   C181  0.680661  0.889622  0.678731  0.882965
    C   C182  0.658539  0.859043  0.688599  -0.622521
    C   C183  0.319339  0.889622  0.321268  0.882753
    C   C184  0.341461  0.859043  0.311399  -0.622296
    C   C185  0.790544  0.995919  0.794749  0.111575
    C   C186  0.209455  0.995919  0.205250  0.112161
    C   C187  0.228270  0.535053  0.698879  -0.384092
    C   C188  0.997528  0.992548  0.912450  0.724346
    C   C189  0.771730  0.535053  0.301121  -0.383389
    C   C190  0.728270  0.035053  0.698879  -0.384102
    C   C191  0.271730  0.035053  0.301121  -0.383386
    C   C192  0.210468  0.500434  0.713450  0.325242
    C   C193  0.789531  0.500434  0.286549  0.324703
    C   C194  0.710468  0.000434  0.713450  0.325202
    C   C195  0.289531  0.000434  0.286549  0.324645
    C   C196  0.226279  0.510435  0.776482  -0.315337
    C   C197  0.773720  0.510436  0.223518  -0.315468
    C   C198  0.726279  0.010435  0.776482  -0.315315
    C   C199  0.002471  0.992548  0.087549  0.724494
    C   C200  0.273720  0.010436  0.223518  -0.315440
    C   C201  0.273948  0.507860  0.824910  0.023318
    C   C202  0.726051  0.507860  0.175090  0.023017
    C   C203  0.773948  0.007860  0.824910  0.023292
    C   C204  0.226051  0.007860  0.175090  0.023005
    C   C205  0.164190  0.502270  0.666797  -0.084730
    C   C206  0.835810  0.502270  0.333203  -0.084736
    C   C207  0.664190  0.002270  0.666797  -0.084707
    C   C208  0.335810  0.002270  0.333203  -0.084678
    C   C209  0.336865  0.494130  0.841146  -0.174260
    C   C210  0.420364  0.492624  0.923575  0.826725
    C   C211  0.663135  0.494130  0.158853  -0.174356
    C   C212  0.836865  0.994130  0.841146  -0.174335
    C   C213  0.163135  0.994130  0.158853  -0.174357
    C   C214  0.374919  0.493168  0.878901  -0.235782
    C   C215  0.625080  0.493168  0.121098  -0.235489
    C   C216  0.874919  0.993168  0.878901  -0.235705
    C   C217  0.125080  0.993168  0.121098  -0.235481
    C   C218  0.522724  0.474456  0.679099  -0.090487
    C   C219  0.477276  0.474455  0.320902  -0.090583
    C   C220  0.022724  0.974456  0.679099  -0.090580
    C   C221  0.579635  0.492624  0.076424  0.826121
    C   C222  0.977276  0.974455  0.320902  -0.090625
    C   C223  0.496752  0.503680  0.631078  -0.372776
    C   C224  0.503248  0.503680  0.368922  -0.372703
    C   C225  0.996752  0.003680  0.631078  -0.372707
    C   C226  0.003248  0.003680  0.368922  -0.372619
    C   C227  0.470020  0.531532  0.628525  0.542954
    C   C228  0.529980  0.531532  0.371475  0.543031
    C   C229  0.970020  0.031532  0.628525  0.542905
    C   C230  0.029980  0.031532  0.371475  0.543008
    C   C231  0.468663  0.528973  0.674058  -0.308208
    C   C232  0.920364  0.992624  0.923575  0.826659
    C   C233  0.531337  0.528973  0.325942  -0.308474
    C   C234  0.968663  0.028973  0.674058  -0.308181
    C   C235  0.031337  0.028973  0.325942  -0.308496
    C   C236  0.495047  0.499086  0.722101  0.060673
    C   C237  0.504953  0.499085  0.277899  0.060717
    C   C238  0.995047  0.999086  0.722101  0.060651
    C   C239  0.004953  0.999085  0.277899  0.060908
    C   C240  0.521735  0.471938  0.724226  0.178728
    C   C241  0.478265  0.471938  0.275774  0.178555
    C   C242  0.021735  0.971938  0.724226  0.178773
    C   C243  0.079635  0.992624  0.076424  0.826097
    C   C244  0.978265  0.971938  0.275774  0.178312
    C   C245  0.442013  0.556176  0.673031  0.517200
    C   C246  0.557987  0.556176  0.326969  0.517537
    C   C247  0.942013  0.056176  0.673031  0.517196
    C   C248  0.057987  0.056176  0.326969  0.517494
    C   C249  0.442726  0.553248  0.720196  -0.528527
    C   C250  0.557274  0.553248  0.279804  -0.528929
    C   C251  0.942726  0.053248  0.720196  -0.528530
    C   C252  0.057274  0.053248  0.279804  -0.528841
    C   C253  0.469580  0.524161  0.767976  0.360798
    C   C254  0.275690  0.528889  0.743759  0.707139
    C   C255  0.530420  0.524160  0.232024  0.360690
    C   C256  0.969580  0.024161  0.767976  0.360795
    C   C257  0.030420  0.024160  0.232024  0.360659
    C   C258  0.495330  0.496537  0.768751  -0.116441
    C   C259  0.504670  0.496537  0.231249  -0.116069
    C   C260  0.995330  0.996537  0.768751  -0.116432
    C   C261  0.004670  0.996537  0.231249  -0.116241
    C   C262  0.521277  0.466362  0.816190  0.072766
    C   C263  0.478723  0.466362  0.183810  0.072166
    C   C264  0.021277  0.966362  0.816190  0.072749
    Cu  Cu1   0.500000  0.536189  0.000000  0.985000
    Cu  Cu2   0.540875  0.503464  0.541643  0.961273
    Cu  Cu3   0.959125  0.003464  0.458357  0.961315
    Cu  Cu4   0.040875  0.003464  0.541643  0.961276
    Cu  Cu5   0.000000  0.036189  0.000000  0.985007
    Cu  Cu6   0.500000  0.448926  0.000000  1.003925
    Cu  Cu7   0.000000  0.948926  0.000000  1.003938
    Cu  Cu8   0.000968  0.504253  0.455989  1.010512
    Cu  Cu9   0.999032  0.504253  0.544010  1.010440
    Cu  Cu10  0.500968  0.004253  0.455989  1.010479
    Cu  Cu11  0.499032  0.004253  0.544010  1.010426
    Cu  Cu12  0.459125  0.503464  0.458357  0.961300
    H   H1    0.215212  0.529242  0.651766  0.063593
    H   H2    0.721154  0.427158  0.199347  0.007735
    H   H3    0.929182  0.120254  0.495411  0.158966
    H   H4    0.954279  0.166327  0.549508  0.126600
    H   H5    0.092949  0.141384  0.474542  0.176804
    H   H6    0.070819  0.120255  0.504590  0.158880
    H   H7    0.045722  0.166327  0.450492  0.126591
    H   H8    0.349403  0.624693  0.534481  0.150173
    H   H9    0.374534  0.678584  0.566676  0.191448
    H   H10   0.343735  0.654734  0.581633  0.179467
    H   H11   0.650596  0.624692  0.465518  0.150208
    H   H12   0.625466  0.678584  0.433324  0.191303
    H   H13   0.778845  0.927158  0.800652  0.007867
    H   H14   0.656265  0.654734  0.418366  0.179541
    H   H15   0.849403  0.124693  0.534481  0.150172
    H   H16   0.874534  0.178584  0.566676  0.191446
    H   H17   0.843735  0.154734  0.581633  0.179466
    H   H18   0.150596  0.124692  0.465518  0.150209
    H   H19   0.125466  0.178584  0.433324  0.191303
    H   H20   0.156265  0.154734  0.418366  0.179540
    H   H21   0.632658  0.364759  0.956178  0.156438
    H   H22   0.642265  0.335439  0.913169  0.173447
    H   H23   0.606214  0.312302  0.918652  0.202024
    H   H24   0.221154  0.927158  0.199347  0.007734
    H   H25   0.367342  0.364759  0.043822  0.156412
    H   H26   0.357735  0.335438  0.086831  0.173453
    H   H27   0.393786  0.312302  0.081348  0.202002
    H   H28   0.132658  0.864759  0.956178  0.156439
    H   H29   0.142265  0.835439  0.913169  0.173449
    H   H30   0.106214  0.812302  0.918652  0.202025
    H   H31   0.867342  0.864759  0.043822  0.156398
    H   H32   0.857735  0.835438  0.086831  0.173452
    H   H33   0.893786  0.812302  0.081348  0.201995
    H   H34   0.596658  0.599147  0.710767  0.141873
    H   H35   0.217585  0.449819  0.669589  0.024142
    H   H36   0.639820  0.637199  0.742787  0.181495
    H   H37   0.634998  0.586081  0.705502  0.165757
    H   H38   0.403343  0.599146  0.289233  0.141846
    H   H39   0.360180  0.637199  0.257213  0.181343
    H   H40   0.365003  0.586081  0.294498  0.165501
    H   H41   0.096658  0.099147  0.710767  0.141895
    H   H42   0.139820  0.137199  0.742787  0.181500
    H   H43   0.134998  0.086081  0.705502  0.165762
    H   H44   0.903343  0.099146  0.289233  0.141847
    H   H45   0.860180  0.137199  0.257213  0.181347
    H   H46   0.782414  0.449819  0.330410  0.024309
    H   H47   0.865003  0.086081  0.294498  0.165505
    H   H48   0.902286  0.335134  0.237025  0.153868
    H   H49   0.849293  0.328144  0.205626  0.184760
    H   H50   0.872724  0.285267  0.193696  0.187931
    H   H51   0.097713  0.335134  0.762974  0.154019
    H   H52   0.150707  0.328145  0.794373  0.184785
    H   H53   0.127275  0.285267  0.806303  0.187954
    H   H54   0.402286  0.835134  0.237025  0.153868
    H   H55   0.349293  0.828144  0.205626  0.184755
    H   H56   0.372724  0.785267  0.193696  0.187928
    H   H57   0.717585  0.949819  0.669589  0.024138
    H   H58   0.597713  0.835134  0.762974  0.154023
    H   H59   0.650707  0.828145  0.794373  0.184784
    H   H60   0.627275  0.785267  0.806303  0.187955
    H   H61   0.323344  0.408515  0.704057  0.133146
    H   H62   0.317068  0.349952  0.712134  0.166190
    H   H63   0.364927  0.379145  0.774518  0.163000
    H   H64   0.676656  0.408514  0.295942  0.133066
    H   H65   0.682931  0.349952  0.287865  0.166104
    H   H66   0.635072  0.379144  0.225481  0.163119
    H   H67   0.823344  0.908515  0.704057  0.133136
    H   H68   0.282414  0.949819  0.330410  0.024305
    H   H69   0.817068  0.849952  0.712134  0.166185
    H   H70   0.864927  0.879145  0.774518  0.162989
    H   H71   0.176656  0.908514  0.295942  0.133065
    H   H72   0.182931  0.849952  0.287865  0.166103
    H   H73   0.135072  0.879144  0.225481  0.163118
    H   H74   0.166580  0.368298  0.731754  0.145926
    H   H75   0.168402  0.324054  0.691810  0.211008
    H   H76   0.124134  0.362062  0.649614  0.195690
    H   H77   0.833419  0.368298  0.268244  0.146041
    H   H78   0.831597  0.324054  0.308189  0.210909
    H   H79   0.287744  0.539369  0.851079  0.040676
    H   H80   0.875865  0.362062  0.350385  0.195494
    H   H81   0.666580  0.868298  0.731754  0.145927
    H   H82   0.668402  0.824054  0.691810  0.211005
    H   H83   0.624134  0.862062  0.649614  0.195688
    H   H84   0.333419  0.868298  0.268244  0.146044
    H   H85   0.331597  0.824054  0.308189  0.210912
    H   H86   0.375865  0.862062  0.350385  0.195497
    H   H87   0.712255  0.539369  0.148920  0.040848
    H   H88   0.787744  0.039369  0.851079  0.040678
    H   H89   0.784788  0.529242  0.348233  0.063458
    H   H90   0.212255  0.039369  0.148920  0.040850
    H   H91   0.283243  0.481502  0.858466  0.007032
    H   H92   0.716756  0.481502  0.141533  0.007022
    H   H93   0.783243  0.981502  0.858466  0.007038
    H   H94   0.216756  0.981502  0.141533  0.007026
    H   H95   0.216014  0.544391  0.776564  0.128657
    H   H96   0.783986  0.544391  0.223435  0.128777
    H   H97   0.716014  0.044391  0.776564  0.128654
    H   H98   0.283986  0.044391  0.223435  0.128772
    H   H99   0.218504  0.568918  0.699793  0.133324
    H   H100  0.715212  0.029242  0.651766  0.063599
    H   H101  0.781496  0.568918  0.300206  0.133213
    H   H102  0.718504  0.068918  0.699793  0.133327
    H   H103  0.281496  0.068918  0.300206  0.133215
    H   H104  0.213017  0.485898  0.787548  0.069560
    H   H105  0.786982  0.485899  0.212451  0.069516
    H   H106  0.713017  0.985898  0.787548  0.069556
    H   H107  0.286982  0.985899  0.212451  0.069512
    H   H108  0.543331  0.452464  0.680857  0.138802
    H   H109  0.456669  0.452463  0.319143  0.138991
    H   H110  0.043331  0.952464  0.680857  0.138850
    H   H111  0.284788  0.029242  0.348233  0.063460
    H   H112  0.956669  0.952463  0.319143  0.139023
    H   H113  0.421301  0.572763  0.719294  0.213463
    H   H114  0.578698  0.572762  0.280705  0.213589
    H   H115  0.921301  0.072763  0.719294  0.213463
    H   H116  0.078698  0.072762  0.280705  0.213565
    H   H117  0.450060  0.544748  0.814021  0.152681
    H   H118  0.549940  0.544748  0.185980  0.152565
    H   H119  0.950060  0.044748  0.814021  0.152683
    H   H120  0.049940  0.044748  0.185980  0.152595
    H   H121  0.541536  0.441247  0.900368  0.123599
    H   H122  0.281982  0.512858  0.716966  -0.085791
    H   H123  0.458463  0.441247  0.099631  0.123569
    H   H124  0.041536  0.941247  0.900368  0.123589
    H   H125  0.958463  0.941247  0.099631  0.123560
    H   H126  0.569189  0.422080  0.772739  0.192443
    H   H127  0.430811  0.422080  0.227262  0.192425
    H   H128  0.069189  0.922080  0.772739  0.192432
    H   H129  0.930811  0.922080  0.227262  0.192345
    H   H130  0.459211  0.364868  0.516699  0.157397
    H   H131  0.540789  0.364867  0.483302  0.157402
    H   H132  0.959211  0.864868  0.516699  0.157403
    H   H133  0.718017  0.512857  0.283033  -0.085649
    H   H134  0.040789  0.864867  0.483302  0.157399
    H   H135  0.561328  0.295455  0.469724  0.154674
    H   H136  0.438672  0.295455  0.530276  0.154665
    H   H137  0.061328  0.795455  0.469724  0.154673
    H   H138  0.938672  0.795455  0.530276  0.154660
    H   H139  0.059498  0.713641  0.466522  0.147198
    H   H140  0.940501  0.713641  0.533477  0.147256
    H   H141  0.559498  0.213641  0.466522  0.147169
    H   H142  0.440501  0.213641  0.533477  0.147241
    H   H143  0.036588  0.644267  0.475920  0.155117
    H   H144  0.781982  0.012858  0.716966  -0.085784
    H   H145  0.963411  0.644267  0.524080  0.155155
    H   H146  0.536588  0.144267  0.475920  0.155043
    H   H147  0.463411  0.144267  0.524080  0.155194
    H   H148  0.438984  0.713375  0.348590  0.163173
    H   H149  0.561016  0.713375  0.651409  0.162983
    H   H150  0.938984  0.213375  0.348590  0.163177
    H   H151  0.061016  0.213375  0.651409  0.163009
    H   H152  0.961271  0.365132  0.403626  0.096184
    H   H153  0.038728  0.365132  0.596373  0.095951
    H   H154  0.461271  0.865132  0.403626  0.096188
    H   H155  0.218017  0.012857  0.283033  -0.085643
    H   H156  0.538728  0.865132  0.596373  0.095956
    H   H157  0.352100  0.630039  0.816210  0.134407
    H   H158  0.347515  0.641521  0.871496  0.171495
    H   H159  0.314829  0.671398  0.799200  0.159841
    H   H160  0.647899  0.630039  0.183790  0.134465
    H   H161  0.652485  0.641521  0.128504  0.171517
    H   H162  0.685170  0.671398  0.200800  0.159775
    H   H163  0.852100  0.130039  0.816210  0.134406
    H   H164  0.847515  0.141521  0.871496  0.171498
    H   H165  0.814829  0.171398  0.799200  0.159840
    H   H166  0.278845  0.427158  0.800652  0.007858
    H   H167  0.147899  0.130039  0.183790  0.134462
    H   H168  0.152485  0.141521  0.128504  0.171517
    H   H169  0.185170  0.171398  0.200800  0.159774
    H   H170  0.407052  0.641383  0.525458  0.176916
    H   H171  0.429182  0.620254  0.495411  0.158957
    H   H172  0.454279  0.666327  0.549508  0.126587
    H   H173  0.592949  0.641384  0.474542  0.176810
    H   H174  0.570819  0.620255  0.504590  0.158888
    H   H175  0.545722  0.666327  0.450492  0.126599
    H   H176  0.907052  0.141383  0.525458  0.176933
    O   O1    0.486144  0.529340  0.922493  -0.590630
    O   O2    0.559466  0.529349  0.044012  -0.624387
    O   O3    0.684142  0.370790  0.201233  -0.590692
    O   O4    0.789976  0.934116  0.743745  -0.610864
    O   O5    0.815857  0.870790  0.798765  -0.590953
    O   O6    0.210024  0.934116  0.256254  -0.611175
    O   O7    0.184142  0.870790  0.201233  -0.590693
    O   O8    0.205689  0.422214  0.720167  -0.541605
    O   O9    0.175706  0.385055  0.633269  -0.592149
    O   O10   0.794310  0.422214  0.279832  -0.541480
    O   O11   0.824293  0.385055  0.366730  -0.592262
    O   O12   0.705689  0.922214  0.720167  -0.541605
    O   O13   0.940533  0.029349  0.955987  -0.624390
    O   O14   0.675706  0.885055  0.633269  -0.592147
    O   O15   0.294310  0.922214  0.279832  -0.541474
    O   O16   0.324293  0.885055  0.366730  -0.592257
    O   O17   0.059466  0.029349  0.044012  -0.624382
    O   O18   0.439826  0.455774  0.929415  -0.583693
    O   O19   0.560173  0.455774  0.070584  -0.583660
    O   O20   0.939826  0.955774  0.929415  -0.583683
    O   O21   0.060173  0.955774  0.070584  -0.583653
    O   O22   0.000407  0.569334  0.461406  -0.600493
    O   O23   0.999593  0.569334  0.538593  -0.600741
    O   O24   0.500407  0.069334  0.461406  -0.600460
    O   O25   0.513855  0.529340  0.077507  -0.590592
    O   O26   0.499593  0.069334  0.538593  -0.600726
    O   O27   0.061883  0.504571  0.524207  -0.644773
    O   O28   0.938116  0.504571  0.475792  -0.644730
    O   O29   0.561883  0.004571  0.524207  -0.644766
    O   O30   0.438116  0.004571  0.475792  -0.644733
    O   O31   0.060200  0.507178  0.600250  -0.619134
    O   O32   0.939799  0.507178  0.399749  -0.619100
    O   O33   0.560200  0.007178  0.600250  -0.619124
    O   O34   0.439799  0.007178  0.399749  -0.619109
    O   O35   0.997862  0.439272  0.459044  -0.636431
    O   O36   0.986144  0.029340  0.922493  -0.590615
    O   O37   0.002137  0.439272  0.540955  -0.636377
    O   O38   0.497862  0.939272  0.459044  -0.636435
    O   O39   0.502137  0.939272  0.540955  -0.636384
    O   O40   0.465186  0.439768  0.477684  -0.626211
    O   O41   0.534814  0.439768  0.522316  -0.626232
    O   O42   0.965186  0.939768  0.477684  -0.626229
    O   O43   0.034814  0.939768  0.522316  -0.626236
    O   O44   0.463853  0.516534  0.527384  -0.630279
    O   O45   0.536148  0.516533  0.472616  -0.630167
    O   O46   0.963853  0.016534  0.527384  -0.630295
    O   O47   0.013855  0.029340  0.077507  -0.590625
    O   O48   0.036148  0.016533  0.472616  -0.630179
    O   O49   0.532719  0.490564  0.597548  -0.623193
    O   O50   0.467282  0.490564  0.402452  -0.623575
    O   O51   0.032719  0.990564  0.597548  -0.623227
    O   O52   0.967282  0.990564  0.402452  -0.623594
    O   O53   0.466006  0.567142  0.452296  -0.590725
    O   O54   0.533994  0.567142  0.547704  -0.590618
    O   O55   0.966006  0.067142  0.452296  -0.590757
    O   O56   0.033994  0.067142  0.547704  -0.590616
    O   O57   0.298376  0.568395  0.765698  -0.609415
    O   O58   0.510319  0.455777  0.945572  -0.634232
    O   O59   0.269773  0.607637  0.794494  -0.601609
    O   O60   0.701624  0.568395  0.234302  -0.609215
    O   O61   0.730226  0.607637  0.205505  -0.601773
    O   O62   0.798376  0.068395  0.765698  -0.609411
    O   O63   0.769773  0.107637  0.794494  -0.601614
    O   O64   0.201624  0.068395  0.234302  -0.609210
    O   O65   0.230226  0.107637  0.205505  -0.601777
    O   O66   0.446650  0.561719  0.582961  -0.483386
    O   O67   0.497632  0.612602  0.635395  -0.626906
    O   O68   0.553350  0.561718  0.417039  -0.483191
    O   O69   0.489680  0.455777  0.054427  -0.634296
    O   O70   0.502368  0.612602  0.364605  -0.626811
    O   O71   0.946650  0.061719  0.582961  -0.483365
    O   O72   0.997632  0.112602  0.635395  -0.626891
    O   O73   0.053350  0.061718  0.417039  -0.483184
    O   O74   0.002368  0.112602  0.364605  -0.626807
    O   O75   0.414046  0.583469  0.625037  -0.423499
    O   O76   0.426470  0.644326  0.679141  -0.523834
    O   O77   0.585954  0.583469  0.374963  -0.423449
    O   O78   0.573530  0.644326  0.320859  -0.523881
    O   O79   0.914046  0.083469  0.625037  -0.423501
    O   O80   0.010319  0.955777  0.945572  -0.634228
    O   O81   0.926470  0.144326  0.679141  -0.523838
    O   O82   0.085954  0.083469  0.374963  -0.423437
    O   O83   0.073530  0.144326  0.320859  -0.523881
    O   O84   0.572596  0.409420  0.864236  -0.355371
    O   O85   0.562100  0.350179  0.809116  -0.534398
    O   O86   0.427403  0.409420  0.135764  -0.355392
    O   O87   0.437900  0.350179  0.190884  -0.534299
    O   O88   0.072596  0.909420  0.864236  -0.355373
    O   O89   0.062100  0.850179  0.809116  -0.534402
    O   O90   0.927403  0.909420  0.135764  -0.355251
    O   O91   0.989680  0.955777  0.054427  -0.634344
    O   O92   0.937900  0.850179  0.190884  -0.534293
    O   O93   0.549335  0.638734  0.608368  -0.288783
    O   O94   0.608155  0.655326  0.629419  -0.585578
    O   O95   0.450666  0.638734  0.391632  -0.288284
    O   O96   0.391845  0.655326  0.370581  -0.585745
    O   O97   0.049335  0.138734  0.608368  -0.288868
    O   O98   0.108155  0.155326  0.629419  -0.585600
    O   O99   0.950666  0.138734  0.391632  -0.288272
    O   O100  0.891845  0.155326  0.370581  -0.585756
    O   O101  0.933403  0.300335  0.337858  -0.411835
    O   O102  0.440533  0.529349  0.955987  -0.624376
    O   O103  0.873769  0.260948  0.282296  -0.560263
    O   O104  0.066596  0.300335  0.662142  -0.411544
    O   O105  0.126231  0.260948  0.717703  -0.560265
    O   O106  0.433403  0.800335  0.337858  -0.411830
    O   O107  0.373769  0.760948  0.282296  -0.560260
    O   O108  0.566596  0.800335  0.662142  -0.411551
    O   O109  0.626231  0.760948  0.717703  -0.560260
    O   O110  0.289976  0.434116  0.743745  -0.610850
    O   O111  0.315857  0.370790  0.798765  -0.590937
    O   O112  0.710024  0.434116  0.256254  -0.611178
