data_DB0-m29_o96_o1490_f0_pts.sym.85_repeat
_audit_creation_date              2024-02-24
_audit_creation_method            'Materials Studio'
_symmetry_space_group_name_H-M    'P1'
_symmetry_Int_Tables_number       1
_symmetry_cell_setting            triclinic
loop_
_symmetry_equiv_pos_as_xyz
  x,y,z
_cell_length_a                    17.3733
_cell_length_b                    11.9834
_cell_length_c                    19.0632
_cell_angle_alpha                 88.7706
_cell_angle_beta                  90.6177
_cell_angle_gamma                 108.7467
loop_
_atom_site_label
_atom_site_type_symbol
_atom_site_fract_x
_atom_site_fract_y
_atom_site_fract_z
_atom_site_U_iso_or_equiv
_atom_site_adp_type
_atom_site_occupancy
C1     C     0.22365   0.00913   0.10278   0.00000  Uiso   1.00
C2     C     0.16870   0.97199   0.15541   0.00000  Uiso   1.00
C3     C     0.09397   0.96735   0.12843   0.00000  Uiso   1.00
N1     N     0.10103   0.99720   0.05952   0.00000  Uiso   1.00
C4     C     0.18059   0.02201   0.04354   0.00000  Uiso   1.00
C5     C     0.02611   0.94401   0.16624   0.00000  Uiso   1.00
C6     C     0.94939   0.95670   0.14006   0.00000  Uiso   1.00
C7     C     0.89249   0.98048   0.18180   0.00000  Uiso   1.00
C8     C     0.82974   0.98433   0.13980   0.00000  Uiso   1.00
C9     C     0.84967   0.96361   0.07216   0.00000  Uiso   1.00
N2     N     0.92256   0.94503   0.07308   0.00000  Uiso   1.00
C10    C     0.79979   0.96375   0.00915   0.00000  Uiso   1.00
C11    C     0.83077   0.98994   0.94461   0.00000  Uiso   1.00
C12    C     0.78785   0.00440   0.88557   0.00000  Uiso   1.00
C13    C     0.84269   0.04121   0.83281   0.00000  Uiso   1.00
C14    C     0.91729   0.04376   0.85947   0.00000  Uiso   1.00
N3     N     0.91015   0.01334   0.92833   0.00000  Uiso   1.00
C15    C     0.98495   0.06483   0.82145   0.00000  Uiso   1.00
C16    C     0.06131   0.05062   0.84787   0.00000  Uiso   1.00
C17    C     0.11770   0.02400   0.80672   0.00000  Uiso   1.00
C18    C     0.18028   0.02040   0.84907   0.00000  Uiso   1.00
C19    C     0.16100   0.04458   0.91613   0.00000  Uiso   1.00
N4     N     0.08855   0.06453   0.91472   0.00000  Uiso   1.00
C20    C     0.21145   0.04727   0.97901   0.00000  Uiso   1.00
H1     H     0.02919   0.92573   0.22172   0.00000  Uiso   1.00
H2     H     0.73621   0.95306   0.01693   0.00000  Uiso   1.00
H3     H     0.98187   0.08250   0.76586   0.00000  Uiso   1.00
H4     H     0.27515   0.05880   0.97128   0.00000  Uiso   1.00
H5     H     0.95065   0.91909   0.03140   0.00000  Uiso   1.00
H6     H     0.06119   0.09298   0.95592   0.00000  Uiso   1.00
C21    C     0.11704   0.00191   0.73637   0.00000  Uiso   1.00
C22    C     0.18326   0.97796   0.70895   0.00000  Uiso   1.00
C23    C     0.24869   0.97570   0.75145   0.00000  Uiso   1.00
C24    C     0.24704   0.99595   0.82304   0.00000  Uiso   1.00
C25    C     0.30543   0.02809   0.11404   0.00000  Uiso   1.00
C26    C     0.32907   0.00343   0.18068   0.00000  Uiso   1.00
C27    C     0.27171   0.96102   0.23345   0.00000  Uiso   1.00
C28    C     0.19089   0.94675   0.22158   0.00000  Uiso   1.00
C29    C     0.89321   0.00040   0.25245   0.00000  Uiso   1.00
C30    C     0.82671   0.02224   0.28071   0.00000  Uiso   1.00
C31    C     0.76088   0.02394   0.23872   0.00000  Uiso   1.00
C32    C     0.76245   0.00599   0.16678   0.00000  Uiso   1.00
C33    C     0.70606   0.98554   0.87443   0.00000  Uiso   1.00
C34    C     0.68203   0.01019   0.80789   0.00000  Uiso   1.00
C35    C     0.73934   0.05362   0.75517   0.00000  Uiso   1.00
C36    C     0.82030   0.06756   0.76686   0.00000  Uiso   1.00
H7     H     0.06695   0.00350   0.70274   0.00000  Uiso   1.00
H8     H     0.29708   0.99490   0.85688   0.00000  Uiso   1.00
H9     H     0.34984   0.06032   0.07294   0.00000  Uiso   1.00
H10    H     0.29006   0.94272   0.28562   0.00000  Uiso   1.00
H11    H     0.14765   0.91604   0.26365   0.00000  Uiso   1.00
H12    H     0.94360   0.99895   0.28572   0.00000  Uiso   1.00
H13    H     0.71218   0.00728   0.13330   0.00000  Uiso   1.00
H14    H     0.66170   0.95193   0.91543   0.00000  Uiso   1.00
H15    H     0.72069   0.07176   0.70308   0.00000  Uiso   1.00
H16    H     0.86352   0.09821   0.72477   0.00000  Uiso   1.00
H17    H     0.18345   0.96215   0.65338   0.00000  Uiso   1.00
H18    H     0.82646   0.03623   0.33649   0.00000  Uiso   1.00
O1     O     0.62212   0.02775   0.23656   0.00000  Uiso   1.00
C37    C     0.68904   0.03855   0.27240   0.00000  Uiso   1.00
O2     O     0.56363   0.80046   0.32451   0.00000  Uiso   1.00
O3     O     0.68866   0.05042   0.34065   0.00000  Uiso   1.00
O4     O     0.51005   0.91708   0.38642   0.00000  Uiso   1.00
C38    C     0.52367   0.81626   0.37942   0.00000  Uiso   1.00
Fe1    Fe    0.53288   0.02102   0.30187   0.00000  Uiso   1.00
O5     O     0.42819   0.95546   0.24887   0.00000  Uiso   1.00
O6     O     0.47092   0.11921   0.17815   0.00000  Uiso   1.00
C39    C     0.41399   0.02289   0.19887   0.00000  Uiso   1.00
O7     O     0.56703   0.18733   0.33582   0.00000  Uiso   1.00
O8     O     0.43086   0.14194   0.34427   0.00000  Uiso   1.00
C40    C     0.50372   0.21310   0.35913   0.00000  Uiso   1.00
C41    C     0.51612   0.21040   0.48480   0.00000  Uiso   1.00
C42    C     0.51093   0.25393   0.54995   0.00000  Uiso   1.00
C43    C     0.50830   0.36712   0.55622   0.00000  Uiso   1.00
C44    C     0.51278   0.27512   0.42557   0.00000  Uiso   1.00
C45    C     0.50530   0.38613   0.43127   0.00000  Uiso   1.00
C46    C     0.50611   0.43590   0.49658   0.00000  Uiso   1.00
C47    C     0.50255   0.55133   0.49996   0.00000  Uiso   1.00
C48    C     0.50362   0.60752   0.56395   0.00000  Uiso   1.00
C49    C     0.50077   0.72069   0.56526   0.00000  Uiso   1.00
N5     N     0.49178   0.44183   0.37312   0.00000  Uiso   1.00
C50    C     0.48574   0.55070   0.37444   0.00000  Uiso   1.00
C51    C     0.49868   0.61249   0.43727   0.00000  Uiso   1.00
C52    C     0.50626   0.73280   0.43983   0.00000  Uiso   1.00
C53    C     0.50400   0.78259   0.50390   0.00000  Uiso   1.00
H19    H     0.51777   0.12176   0.47884   0.00000  Uiso   1.00
H20    H     0.50969   0.87464   0.50774   0.00000  Uiso   1.00
H21    H     0.50435   0.39588   0.60853   0.00000  Uiso   1.00
H22    H     0.50805   0.56832   0.61436   0.00000  Uiso   1.00
O9     O     0.57865   0.04712   0.73837   0.00000  Uiso   1.00
O10    O     0.54205   0.88729   0.81231   0.00000  Uiso   1.00
C54    C     0.59637   0.98481   0.78961   0.00000  Uiso   1.00
O11    O     0.44627   0.79859   0.66030   0.00000  Uiso   1.00
O12    O     0.57986   0.87429   0.63635   0.00000  Uiso   1.00
C55    C     0.51117   0.78790   0.62982   0.00000  Uiso   1.00
O13    O     0.50141   0.21371   0.67499   0.00000  Uiso   1.00
O14    O     0.38451   0.95753   0.75495   0.00000  Uiso   1.00
C56    C     0.32027   0.95902   0.71826   0.00000  Uiso   1.00
O15    O     0.48880   0.06268   0.60077   0.00000  Uiso   1.00
C57    C     0.50216   0.17516   0.61116   0.00000  Uiso   1.00
O16    O     0.32310   0.95582   0.64962   0.00000  Uiso   1.00
Fe2    Fe    0.47352   0.96735   0.68865   0.00000  Uiso   1.00
N6     N     0.45461   0.59279   0.31429   0.00000  Uiso   1.00
C58    C     0.44646   0.52144   0.25481   0.00000  Uiso   1.00
C59    C     0.37078   0.47014   0.22496   0.00000  Uiso   1.00
C60    C     0.36303   0.40395   0.16543   0.00000  Uiso   1.00
C61    C     0.43087   0.39009   0.13494   0.00000  Uiso   1.00
C62    C     0.50665   0.44305   0.16372   0.00000  Uiso   1.00
C63    C     0.51456   0.50917   0.22329   0.00000  Uiso   1.00
H23    H     0.40330   0.61446   0.32512   0.00000  Uiso   1.00
H24    H     0.31713   0.48074   0.24820   0.00000  Uiso   1.00
H25    H     0.30367   0.36315   0.14253   0.00000  Uiso   1.00
H26    H     0.42471   0.33835   0.08820   0.00000  Uiso   1.00
H27    H     0.55996   0.43321   0.13940   0.00000  Uiso   1.00
H28    H     0.57434   0.55193   0.24492   0.00000  Uiso   1.00
