# generated using pymatgen
data_Cu3H24(C11O4)4
_symmetry_space_group_name_H-M   'P 1'
_cell_length_a   35.21143300
_cell_length_b   35.21143300
_cell_length_c   28.73796200
_cell_angle_alpha   90.00000000
_cell_angle_beta   90.00000000
_cell_angle_gamma   90.00000000
_symmetry_Int_Tables_number   1
_chemical_formula_structural   Cu3H24(C11O4)4
_chemical_formula_sum   'Cu12 H96 C176 O64'
_cell_volume   35630.61889574
_cell_formula_units_Z   4
loop_
 _symmetry_equiv_pos_site_id
 _symmetry_equiv_pos_as_xyz
  1  'x, y, z'
loop_
 _atom_site_type_symbol
 _atom_site_label
 _atom_site_symmetry_multiplicity
 _atom_site_fract_x
 _atom_site_fract_y
 _atom_site_fract_z
 _atom_site_occupancy
  Cu  Cu1  1  0.96290900  0.50000100  0.49999700  1
  Cu  Cu2  1  0.50000400  0.03709400  0.49999800  1
  Cu  Cu3  1  0.03709600  0.50000100  0.49999700  1
  Cu  Cu4  1  0.50000400  0.96290700  0.49999800  1
  Cu  Cu5  1  0.46291000  0.00000000  0.99999800  1
  Cu  Cu6  1  0.00000200  0.53709500  0.99999700  1
  Cu  Cu7  1  0.53709700  0.00000000  0.99999800  1
  Cu  Cu8  1  0.00000200  0.46290700  0.99999700  1
  Cu  Cu9  1  0.00000400  0.00000100  0.45458900  1
  Cu  Cu10  1  0.00000400  0.00000100  0.54540500  1
  Cu  Cu11  1  0.50000200  0.50000000  0.95459000  1
  Cu  Cu12  1  0.50000200  0.50000000  0.04540600  1
  H  H1  1  0.02156300  0.11817900  0.56939700  1
  H  H2  1  0.11818200  0.97844300  0.56940000  1
  H  H3  1  0.97844400  0.88182300  0.56940000  1
  H  H4  1  0.88182600  0.02156100  0.56939800  1
  H  H5  1  0.02156100  0.88182300  0.43059700  1
  H  H6  1  0.11818200  0.02155700  0.43059600  1
  H  H7  1  0.97844600  0.11817900  0.43059400  1
  H  H8  1  0.88182600  0.97844300  0.43059600  1
  H  H9  1  0.52155800  0.61817800  0.06940000  1
  H  H10  1  0.61818000  0.47844400  0.06940000  1
  H  H11  1  0.47844600  0.38182200  0.06940000  1
  H  H12  1  0.38182400  0.52155600  0.06940000  1
  H  H13  1  0.52156000  0.38182300  0.93059600  1
  H  H14  1  0.61817900  0.52155900  0.93059600  1
  H  H15  1  0.47844400  0.61817800  0.93059600  1
  H  H16  1  0.38182400  0.47844200  0.93059600  1
  H  H17  1  0.05675900  0.31201200  0.52539000  1
  H  H18  1  0.31201500  0.94324500  0.52539200  1
  H  H19  1  0.94324700  0.68799100  0.52539300  1
  H  H20  1  0.68799300  0.05675600  0.52539100  1
  H  H21  1  0.05675800  0.68799100  0.47460500  1
  H  H22  1  0.31201400  0.05675600  0.47460400  1
  H  H23  1  0.94324700  0.31201100  0.47460200  1
  H  H24  1  0.68799400  0.94324500  0.47460300  1
  H  H25  1  0.55675900  0.81201000  0.02539200  1
  H  H26  1  0.81201200  0.44324500  0.02539100  1
  H  H27  1  0.44324800  0.18799000  0.02539200  1
  H  H28  1  0.18799200  0.55675600  0.02539100  1
  H  H29  1  0.55675900  0.18799000  0.97460300  1
  H  H30  1  0.81201200  0.55675700  0.97460300  1
  H  H31  1  0.44324700  0.81201100  0.97460300  1
  H  H32  1  0.18799100  0.44324500  0.97460300  1
  H  H33  1  0.05717500  0.38127900  0.52554100  1
  H  H34  1  0.38128300  0.94282800  0.52554200  1
  H  H35  1  0.94283000  0.61872200  0.52554200  1
  H  H36  1  0.61872600  0.05717300  0.52554200  1
  H  H37  1  0.05717500  0.61872200  0.47445300  1
  H  H38  1  0.38128200  0.05717400  0.47445400  1
  H  H39  1  0.94282900  0.38127900  0.47445300  1
  H  H40  1  0.61872600  0.94282700  0.47445300  1
  H  H41  1  0.55717600  0.88127800  0.02554200  1
  H  H42  1  0.88128000  0.44282800  0.02554100  1
  H  H43  1  0.44283100  0.11872200  0.02554200  1
  H  H44  1  0.11872400  0.55717400  0.02554100  1
  H  H45  1  0.55717600  0.11872200  0.97445300  1
  H  H46  1  0.88128000  0.55717400  0.97445300  1
  H  H47  1  0.44283000  0.88127900  0.97445300  1
  H  H48  1  0.11872400  0.44282800  0.97445300  1
  H  H49  1  0.03165800  0.17316400  0.60969100  1
  H  H50  1  0.00308700  0.21318500  0.59321400  1
  H  H51  1  0.07696100  0.19399200  0.56099500  1
  H  H52  1  0.17316600  0.96834700  0.60969400  1
  H  H53  1  0.21318700  0.99691800  0.59321700  1
  H  H54  1  0.19399400  0.92304400  0.56099900  1
  H  H55  1  0.96834700  0.82683900  0.60969400  1
  H  H56  1  0.99691800  0.78681800  0.59321800  1
  H  H57  1  0.92304500  0.80601100  0.56099800  1
  H  H58  1  0.82684100  0.03165700  0.60969200  1
  H  H59  1  0.78682000  0.00308600  0.59321500  1
  H  H60  1  0.80601400  0.07695900  0.56099300  1
  H  H61  1  0.03165600  0.82683800  0.39030300  1
  H  H62  1  0.00308600  0.78681700  0.40678100  1
  H  H63  1  0.07696000  0.80601200  0.43899900  1
  H  H64  1  0.17316700  0.03165100  0.39030100  1
  H  H65  1  0.21318800  0.00308200  0.40678000  1
  H  H66  1  0.19399300  0.07695600  0.43899500  1
  H  H67  1  0.96835100  0.17316300  0.39029900  1
  H  H68  1  0.99692100  0.21318500  0.40677700  1
  H  H69  1  0.92304700  0.19398900  0.43899300  1
  H  H70  1  0.82684100  0.96834800  0.39030100  1
  H  H71  1  0.78682000  0.99691700  0.40677900  1
  H  H72  1  0.80601600  0.92304400  0.43899800  1
  H  H73  1  0.53165200  0.67316300  0.10969500  1
  H  H74  1  0.50308400  0.71318500  0.09321600  1
  H  H75  1  0.57695800  0.69398700  0.06100100  1
  H  H76  1  0.67316400  0.46835100  0.10969500  1
  H  H77  1  0.71318600  0.49692000  0.09321600  1
  H  H78  1  0.69399000  0.42304600  0.06099900  1
  H  H79  1  0.46835300  0.32683800  0.10969500  1
  H  H80  1  0.49692200  0.28681600  0.09321600  1
  H  H81  1  0.42304800  0.30601200  0.06099900  1
  H  H82  1  0.32683900  0.53165000  0.10969500  1
  H  H83  1  0.28681800  0.50308200  0.09321600  1
  H  H84  1  0.30601400  0.57695600  0.06100100  1
  H  H85  1  0.53165500  0.32683800  0.89030100  1
  H  H86  1  0.50308600  0.28681600  0.90677900  1
  H  H87  1  0.57696000  0.30601300  0.93899700  1
  H  H88  1  0.67316400  0.53165400  0.89030100  1
  H  H89  1  0.71318500  0.50308400  0.90677900  1
  H  H90  1  0.69399000  0.57695800  0.93899700  1
  H  H91  1  0.46835000  0.67316300  0.89030100  1
  H  H92  1  0.49691900  0.71318400  0.90677900  1
  H  H93  1  0.42304600  0.69398900  0.93899900  1
  H  H94  1  0.32684000  0.46834800  0.89030100  1
  H  H95  1  0.28681800  0.49691700  0.90677900  1
  H  H96  1  0.30601300  0.42304400  0.93899800  1
  C  C1  1  0.00000200  0.42799700  0.49999700  1
  C  C2  1  0.42800000  0.00000100  0.49999800  1
  C  C3  1  0.00000200  0.57200500  0.49999700  1
  C  C4  1  0.57200800  0.00000000  0.49999800  1
  C  C5  1  0.50000300  0.92799600  0.99999800  1
  C  C6  1  0.92799800  0.50000100  0.99999700  1
  C  C7  1  0.50000400  0.07200400  0.99999800  1
  C  C8  1  0.07200600  0.50000100  0.99999700  1
  C  C9  1  0.00000200  0.50000100  0.41193800  1
  C  C10  1  0.50000400  0.00000000  0.41193800  1
  C  C11  1  0.00000200  0.50000100  0.58805700  1
  C  C12  1  0.50000400  0.00000000  0.58805700  1
  C  C13  1  0.50000400  0.00000000  0.91193800  1
  C  C14  1  0.00000200  0.50000100  0.91193800  1
  C  C15  1  0.50000300  0.00000000  0.08805700  1
  C  C16  1  0.00000200  0.50000100  0.08805700  1
  C  C17  1  0.00000200  0.50000100  0.36202200  1
  C  C18  1  0.50000500  0.00000000  0.36202200  1
  C  C19  1  0.00000200  0.50000100  0.63797300  1
  C  C20  1  0.50000500  0.00000000  0.63797300  1
  C  C21  1  0.50000400  0.00000100  0.86202200  1
  C  C22  1  0.00000200  0.50000000  0.86202200  1
  C  C23  1  0.50000400  0.00000000  0.13797300  1
  C  C24  1  0.00000200  0.50000100  0.13797300  1
  C  C25  1  0.00000200  0.50000200  0.32009400  1
  C  C26  1  0.50000500  0.00000000  0.32009500  1
  C  C27  1  0.00000200  0.50000100  0.67990000  1
  C  C28  1  0.50000500  0.00000100  0.67990100  1
  C  C29  1  0.50000400  0.00000100  0.82009500  1
  C  C30  1  0.00000200  0.50000100  0.82009400  1
  C  C31  1  0.50000400  0.00000000  0.17990100  1
  C  C32  1  0.00000200  0.50000200  0.17990000  1
  C  C33  1  0.00000200  0.50000200  0.27096200  1
  C  C34  1  0.50000500  0.00000000  0.27096300  1
  C  C35  1  0.00000200  0.50000100  0.72903200  1
  C  C36  1  0.50000500  0.00000100  0.72903300  1
  C  C37  1  0.50000500  0.00000100  0.77096300  1
  C  C38  1  0.00000200  0.50000100  0.77096200  1
  C  C39  1  0.50000400  0.00000000  0.22903300  1
  C  C40  1  0.00000200  0.50000200  0.22903200  1
  C  C41  1  0.01218500  0.17250300  0.53890800  1
  C  C42  1  0.17250600  0.98781900  0.53891100  1
  C  C43  1  0.98782100  0.82749900  0.53891100  1
  C  C44  1  0.82750200  0.01218300  0.53890900  1
  C  C45  1  0.01218400  0.82749900  0.46108700  1
  C  C46  1  0.17250600  0.01218000  0.46108500  1
  C  C47  1  0.98782300  0.17250300  0.46108300  1
  C  C48  1  0.82750200  0.98782000  0.46108400  1
  C  C49  1  0.51218200  0.67250200  0.03891100  1
  C  C50  1  0.67250400  0.48782100  0.03891100  1
  C  C51  1  0.48782300  0.32749800  0.03891100  1
  C  C52  1  0.32750000  0.51218000  0.03891100  1
  C  C53  1  0.51218400  0.32749900  0.96108500  1
  C  C54  1  0.67250400  0.51218200  0.96108500  1
  C  C55  1  0.48782100  0.67250200  0.96108500  1
  C  C56  1  0.32750000  0.48781900  0.96108500  1
  C  C57  1  0.01199500  0.13328900  0.53886700  1
  C  C58  1  0.13329100  0.98801000  0.53887000  1
  C  C59  1  0.98801100  0.86671400  0.53887000  1
  C  C60  1  0.86671600  0.01199300  0.53886800  1
  C  C61  1  0.01199400  0.86671300  0.46112700  1
  C  C62  1  0.13329200  0.01199000  0.46112600  1
  C  C63  1  0.98801400  0.13328800  0.46112400  1
  C  C64  1  0.86671600  0.98801100  0.46112500  1
  C  C65  1  0.51199200  0.63328800  0.03887000  1
  C  C66  1  0.63328900  0.48801100  0.03887000  1
  C  C67  1  0.48801300  0.36671300  0.03887000  1
  C  C68  1  0.36671400  0.51199000  0.03887000  1
  C  C69  1  0.51199400  0.36671300  0.96112600  1
  C  C70  1  0.63328900  0.51199200  0.96112600  1
  C  C71  1  0.48801100  0.63328800  0.96112600  1
  C  C72  1  0.36671400  0.48800900  0.96112600  1
  C  C73  1  0.00000500  0.11353900  0.49999600  1
  C  C74  1  0.11354200  0.00000000  0.49999800  1
  C  C75  1  0.00000300  0.88646300  0.49999900  1
  C  C76  1  0.88646600  0.00000200  0.49999700  1
  C  C77  1  0.50000100  0.61353900  0.99999800  1
  C  C78  1  0.61354000  0.50000100  0.99999800  1
  C  C79  1  0.50000300  0.38646200  0.99999800  1
  C  C80  1  0.38646400  0.50000000  0.99999800  1
  C  C81  1  0.00000400  0.19215400  0.49999600  1
  C  C82  1  0.19215700  0.00000000  0.49999800  1
  C  C83  1  0.00000300  0.80784800  0.49999900  1
  C  C84  1  0.80785100  0.00000200  0.49999700  1
  C  C85  1  0.50000200  0.69215300  0.99999800  1
  C  C86  1  0.69215400  0.50000100  0.99999700  1
  C  C87  1  0.50000400  0.30784800  0.99999800  1
  C  C88  1  0.30784900  0.50000000  0.99999800  1
  C  C89  1  0.00000400  0.23295500  0.49999600  1
  C  C90  1  0.23295800  0.00000000  0.49999800  1
  C  C91  1  0.00000300  0.76704700  0.49999900  1
  C  C92  1  0.76705000  0.00000100  0.49999700  1
  C  C93  1  0.50000200  0.73295400  0.99999700  1
  C  C94  1  0.73295600  0.50000100  0.99999700  1
  C  C95  1  0.50000400  0.26704700  0.99999800  1
  C  C96  1  0.26704800  0.50000000  0.99999700  1
  C  C97  1  0.00000300  0.26715600  0.49999600  1
  C  C98  1  0.26715900  0.00000100  0.49999800  1
  C  C99  1  0.00000300  0.73284600  0.49999900  1
  C  C100  1  0.73284900  0.00000100  0.49999700  1
  C  C101  1  0.50000300  0.76715500  0.99999700  1
  C  C102  1  0.76715700  0.50000100  0.99999700  1
  C  C103  1  0.50000400  0.23284500  0.99999700  1
  C  C104  1  0.23284700  0.50000000  0.99999700  1
  C  C105  1  0.03181300  0.32740500  0.51421700  1
  C  C106  1  0.32740700  0.96819000  0.51421900  1
  C  C107  1  0.96819200  0.67259800  0.51421900  1
  C  C108  1  0.67260100  0.03181100  0.51421800  1
  C  C109  1  0.03181300  0.67259800  0.48577800  1
  C  C110  1  0.32740700  0.03181100  0.48577700  1
  C  C111  1  0.96819200  0.32740400  0.48577600  1
  C  C112  1  0.67260100  0.96819000  0.48577700  1
  C  C113  1  0.53181400  0.82740300  0.01421800  1
  C  C114  1  0.82740500  0.46819000  0.01421800  1
  C  C115  1  0.46819300  0.17259700  0.01421800  1
  C  C116  1  0.17259900  0.53181100  0.01421800  1
  C  C117  1  0.53181400  0.17259700  0.98577600  1
  C  C118  1  0.82740500  0.53181100  0.98577600  1
  C  C119  1  0.46819300  0.82740400  0.98577700  1
  C  C120  1  0.17259900  0.46819000  0.98577600  1
  C  C121  1  0.03189500  0.36655200  0.51422200  1
  C  C122  1  0.36655500  0.96810800  0.51422300  1
  C  C123  1  0.96811000  0.63345000  0.51422300  1
  C  C124  1  0.63345300  0.03189300  0.51422300  1
  C  C125  1  0.03189500  0.63345000  0.48577300  1
  C  C126  1  0.36655500  0.03189300  0.48577300  1
  C  C127  1  0.96811000  0.36655200  0.48577200  1
  C  C128  1  0.63345300  0.96810800  0.48577300  1
  C  C129  1  0.53189600  0.86655100  0.01422300  1
  C  C130  1  0.86655300  0.46810800  0.01422200  1
  C  C131  1  0.46811100  0.13345000  0.01422300  1
  C  C132  1  0.13345100  0.53189300  0.01422200  1
  C  C133  1  0.53189600  0.13344900  0.98577200  1
  C  C134  1  0.86655300  0.53189400  0.98577200  1
  C  C135  1  0.46811000  0.86655100  0.98577200  1
  C  C136  1  0.13345100  0.46810800  0.98577200  1
  C  C137  1  0.00000200  0.38636300  0.49999700  1
  C  C138  1  0.38636600  0.00000100  0.49999800  1
  C  C139  1  0.00000300  0.61364000  0.49999800  1
  C  C140  1  0.61364300  0.00000000  0.49999800  1
  C  C141  1  0.50000300  0.88636200  0.99999800  1
  C  C142  1  0.88636300  0.50000100  0.99999700  1
  C  C143  1  0.50000400  0.11363900  0.99999800  1
  C  C144  1  0.11364000  0.50000100  0.99999700  1
  C  C145  1  0.00000300  0.30785600  0.49999600  1
  C  C146  1  0.30785900  0.00000100  0.49999800  1
  C  C147  1  0.00000300  0.69214600  0.49999900  1
  C  C148  1  0.69214900  0.00000100  0.49999700  1
  C  C149  1  0.50000300  0.80785500  0.99999700  1
  C  C150  1  0.80785600  0.50000100  0.99999700  1
  C  C151  1  0.50000300  0.19214600  0.99999700  1
  C  C152  1  0.19214700  0.50000100  0.99999700  1
  C  C153  1  0.07189400  0.00000000  0.49999800  1
  C  C154  1  0.00000300  0.92811100  0.49999800  1
  C  C155  1  0.92811400  0.00000200  0.49999700  1
  C  C156  1  0.00000400  0.07189100  0.49999600  1
  C  C157  1  0.57189200  0.50000100  0.99999800  1
  C  C158  1  0.50000200  0.42811000  0.99999800  1
  C  C159  1  0.42811200  0.50000000  0.99999800  1
  C  C160  1  0.50000100  0.57189000  0.99999800  1
  C  C161  1  0.02549500  0.19336800  0.58110500  1
  C  C162  1  0.19337100  0.97451100  0.58110800  1
  C  C163  1  0.97451100  0.80663500  0.58110800  1
  C  C164  1  0.80663700  0.02549300  0.58110600  1
  C  C165  1  0.02549300  0.80663400  0.41889000  1
  C  C166  1  0.19337100  0.02548900  0.41888800  1
  C  C167  1  0.97451400  0.19336800  0.41888600  1
  C  C168  1  0.80663700  0.97451100  0.41888800  1
  C  C169  1  0.52549100  0.69336700  0.08110800  1
  C  C170  1  0.69336900  0.47451300  0.08110800  1
  C  C171  1  0.47451500  0.30663300  0.08110800  1
  C  C172  1  0.30663500  0.52548800  0.08110800  1
  C  C173  1  0.52549300  0.30663400  0.91888800  1
  C  C174  1  0.69336800  0.52549100  0.91888800  1
  C  C175  1  0.47451200  0.69336700  0.91888800  1
  C  C176  1  0.30663500  0.47451000  0.91888800  1
  O  O1  1  0.96871400  0.44584800  0.48706600  1
  O  O2  1  0.44585100  0.03128900  0.48706700  1
  O  O3  1  0.03129100  0.55415400  0.48706600  1
  O  O4  1  0.55415700  0.96871200  0.48706700  1
  O  O5  1  0.96871400  0.55415400  0.51292800  1
  O  O6  1  0.44585100  0.96871200  0.51292900  1
  O  O7  1  0.03129000  0.44584800  0.51292800  1
  O  O8  1  0.55415700  0.03128800  0.51292900  1
  O  O9  1  0.46871500  0.94584700  0.98706700  1
  O  O10  1  0.94584900  0.53128900  0.98706600  1
  O  O11  1  0.53129200  0.05415300  0.98706700  1
  O  O12  1  0.05415500  0.46871300  0.98706600  1
  O  O13  1  0.46871500  0.05415300  0.01292900  1
  O  O14  1  0.94584900  0.46871300  0.01292800  1
  O  O15  1  0.53129200  0.94584700  0.01292900  1
  O  O16  1  0.05415500  0.53128900  0.01292800  1
  O  O17  1  0.96867800  0.51056700  0.43364300  1
  O  O18  1  0.51057000  0.03132500  0.43364400  1
  O  O19  1  0.03132700  0.48943500  0.43364300  1
  O  O20  1  0.48943800  0.96867600  0.43364300  1
  O  O21  1  0.96867800  0.48943500  0.56635200  1
  O  O22  1  0.51057000  0.96867600  0.56635200  1
  O  O23  1  0.03132700  0.51056700  0.56635200  1
  O  O24  1  0.48943800  0.03132500  0.56635200  1
  O  O25  1  0.46867900  0.01056600  0.93364300  1
  O  O26  1  0.01056800  0.53132500  0.93364300  1
  O  O27  1  0.53132800  0.98943500  0.93364400  1
  O  O28  1  0.98943600  0.46867600  0.93364300  1
  O  O29  1  0.46867900  0.98943400  0.06635200  1
  O  O30  1  0.01056800  0.46867700  0.06635200  1
  O  O31  1  0.53132800  0.01056600  0.06635200  1
  O  O32  1  0.98943600  0.53132600  0.06635100  1
  O  O33  1  0.05402800  0.01061100  0.46170600  1
  O  O34  1  0.01061400  0.94597700  0.46170700  1
  O  O35  1  0.94598000  0.98939100  0.46170600  1
  O  O36  1  0.98939400  0.05402500  0.46170500  1
  O  O37  1  0.05402800  0.98939100  0.53828900  1
  O  O38  1  0.01061400  0.05402500  0.53828800  1
  O  O39  1  0.94598000  0.01061200  0.53828800  1
  O  O40  1  0.98939300  0.94597800  0.53828900  1
  O  O41  1  0.55402600  0.51061100  0.96170700  1
  O  O42  1  0.51061200  0.44597700  0.96170700  1
  O  O43  1  0.44597800  0.48939000  0.96170700  1
  O  O44  1  0.48939100  0.55402400  0.96170700  1
  O  O45  1  0.55402600  0.48939000  0.03828900  1
  O  O46  1  0.51061200  0.55402400  0.03828900  1
  O  O47  1  0.44597800  0.51061000  0.03828900  1
  O  O48  1  0.48939200  0.44597600  0.03828900  1
  O  O49  1  0.05847600  0.21362000  0.57075700  1
  O  O50  1  0.21362200  0.94152900  0.57076100  1
  O  O51  1  0.94152900  0.78638300  0.57076000  1
  O  O52  1  0.78638600  0.05847500  0.57075800  1
  O  O53  1  0.05847500  0.78638300  0.42923700  1
  O  O54  1  0.21362200  0.05847100  0.42923400  1
  O  O55  1  0.94153200  0.21361800  0.42923300  1
  O  O56  1  0.78638700  0.94152800  0.42923500  1
  O  O57  1  0.55847400  0.71361700  0.07076200  1
  O  O58  1  0.71361900  0.44153000  0.07076200  1
  O  O59  1  0.44153200  0.28638300  0.07076300  1
  O  O60  1  0.28638500  0.55847100  0.07076200  1
  O  O61  1  0.55847600  0.28638400  0.92923400  1
  O  O62  1  0.71361800  0.55847400  0.92923400  1
  O  O63  1  0.44153000  0.71361700  0.92923400  1
  O  O64  1  0.28638500  0.44152800  0.92923400  1
