data_DB0-m3_o11_o28_f0_pcu.sym.33_repeat
_audit_creation_date              2024-02-23
_audit_creation_method            'Materials Studio'
_symmetry_space_group_name_H-M    'P1'
_symmetry_Int_Tables_number       1
_symmetry_cell_setting            triclinic
loop_
_symmetry_equiv_pos_as_xyz
  x,y,z
_cell_length_a                    23.4254
_cell_length_b                    11.1419
_cell_length_c                    9.9057
_cell_angle_alpha                 89.9974
_cell_angle_beta                  89.9814
_cell_angle_gamma                 90.0113
loop_
_atom_site_label
_atom_site_type_symbol
_atom_site_fract_x
_atom_site_fract_y
_atom_site_fract_z
_atom_site_U_iso_or_equiv
_atom_site_adp_type
_atom_site_occupancy
O1     O     0.49487   0.32384   0.62075   0.00000  Uiso   1.00
O2     O     0.49721   0.32028   0.38831   0.00000  Uiso   1.00
C1     C     0.49416   0.26613   0.50558   0.00000  Uiso   1.00
O3     O     0.41576   0.51469   0.60992   0.00000  Uiso   1.00
O4     O     0.41722   0.50948   0.37756   0.00000  Uiso   1.00
C2     C     0.38975   0.51520   0.49282   0.00000  Uiso   1.00
Zn1    Zn    0.50006   0.50296   0.65323   0.00000  Uiso   1.00
Zn2    Zn    0.50252   0.49791   0.34616   0.00000  Uiso   1.00
O5     O     0.50669   0.68029   0.61164   0.00000  Uiso   1.00
O6     O     0.50738   0.67742   0.37809   0.00000  Uiso   1.00
O7     O     0.58539   0.49065   0.62227   0.00000  Uiso   1.00
O8     O     0.58695   0.48841   0.38898   0.00000  Uiso   1.00
C3     C     0.50871   0.73453   0.49436   0.00000  Uiso   1.00
C4     C     0.61283   0.48607   0.50656   0.00000  Uiso   1.00
C5     C     0.88138   0.58197   0.44294   0.00000  Uiso   1.00
N1     N     0.85474   0.49075   0.50684   0.00000  Uiso   1.00
C6     C     0.88514   0.40373   0.56852   0.00000  Uiso   1.00
C7     C     0.94420   0.40672   0.56683   0.00000  Uiso   1.00
C8     C     0.97186   0.49897   0.50144   0.00000  Uiso   1.00
C9     C     0.94035   0.58722   0.43910   0.00000  Uiso   1.00
C10    C     0.97578   0.31777   0.62918   0.00000  Uiso   1.00
C11    C     0.03458   0.32176   0.62614   0.00000  Uiso   1.00
C12    C     0.06225   0.41471   0.56072   0.00000  Uiso   1.00
C13    C     0.03074   0.50295   0.49836   0.00000  Uiso   1.00
C14    C     0.05841   0.59518   0.43293   0.00000  Uiso   1.00
C15    C     0.02682   0.68413   0.37060   0.00000  Uiso   1.00
C16    C     0.96803   0.68017   0.37369   0.00000  Uiso   1.00
C17    C     0.12123   0.41997   0.55689   0.00000  Uiso   1.00
N2     N     0.14787   0.51113   0.49290   0.00000  Uiso   1.00
C18    C     0.11747   0.59813   0.43117   0.00000  Uiso   1.00
O9     O     0.85034   0.66940   0.38511   0.00000  Uiso   1.00
O10    O     0.85783   0.31225   0.62895   0.00000  Uiso   1.00
H1     H     0.95523   0.24422   0.68110   0.00000  Uiso   1.00
H2     H     0.05822   0.25122   0.67585   0.00000  Uiso   1.00
O11    O     0.15227   0.33259   0.61481   0.00000  Uiso   1.00
O12    O     0.14479   0.68952   0.37060   0.00000  Uiso   1.00
H3     H     0.04737   0.75767   0.31866   0.00000  Uiso   1.00
H4     H     0.94438   0.75072   0.32399   0.00000  Uiso   1.00
C19    C     0.23848   0.52162   0.61212   0.00000  Uiso   1.00
H5     H     0.21574   0.52498   0.70703   0.00000  Uiso   1.00
C20    C     0.29729   0.52316   0.61212   0.00000  Uiso   1.00
H6     H     0.31933   0.52666   0.70783   0.00000  Uiso   1.00
C21    C     0.32714   0.51898   0.49169   0.00000  Uiso   1.00
C22    C     0.29735   0.51494   0.37120   0.00000  Uiso   1.00
H7     H     0.31959   0.51121   0.27570   0.00000  Uiso   1.00
C23    C     0.23844   0.51363   0.37150   0.00000  Uiso   1.00
H8     H     0.21566   0.50815   0.27680   0.00000  Uiso   1.00
C24    C     0.20877   0.51602   0.49202   0.00000  Uiso   1.00
C25    C     0.76413   0.48767   0.62810   0.00000  Uiso   1.00
H9     H     0.78687   0.49285   0.72287   0.00000  Uiso   1.00
C26    C     0.70521   0.48616   0.62831   0.00000  Uiso   1.00
H10    H     0.68296   0.48945   0.72381   0.00000  Uiso   1.00
C27    C     0.67545   0.48255   0.50776   0.00000  Uiso   1.00
C28    C     0.70534   0.47895   0.38736   0.00000  Uiso   1.00
H11    H     0.68334   0.47571   0.29159   0.00000  Uiso   1.00
C29    C     0.76415   0.48059   0.38745   0.00000  Uiso   1.00
H12    H     0.78691   0.47759   0.29255   0.00000  Uiso   1.00
C30    C     0.79383   0.48580   0.50762   0.00000  Uiso   1.00
C31    C     0.49740   0.93532   0.39579   0.00000  Uiso   1.00
C32    C     0.51446   0.86529   0.49727   0.00000  Uiso   1.00
H13    H     0.48295   0.89459   0.30251   0.00000  Uiso   1.00
H14    H     0.53249   0.90403   0.58748   0.00000  Uiso   1.00
C33    C     0.50149   0.06776   0.40225   0.00000  Uiso   1.00
C34    C     0.48814   0.13524   0.51072   0.00000  Uiso   1.00
H15    H     0.51451   0.11251   0.31015   0.00000  Uiso   1.00
C35    C     0.53658   0.56184   0.92500   0.00000  Uiso   1.00
N3     N     0.49796   0.50858   0.85500   0.00000  Uiso   1.00
H16    H     0.57202   0.60481   0.87387   0.00000  Uiso   1.00
H17    H     0.46150   0.48301   0.90488   0.00000  Uiso   1.00
C36    C     0.53238   0.57185   0.07367   0.00000  Uiso   1.00
N4     N     0.50540   0.49354   0.14441   0.00000  Uiso   1.00
H18    H     0.55465   0.64439   0.12403   0.00000  Uiso   1.00
H19    H     0.49123   0.41824   0.09488   0.00000  Uiso   1.00
N5     N     0.46337   0.08555   0.63040   0.00000  Uiso   1.00
H20    H     0.49535   0.05498   0.69500   0.00000  Uiso   1.00
H21    H     0.43430   0.01806   0.60563   0.00000  Uiso   1.00
