# generated using pymatgen
data_Fe2H20C37N2O19
_symmetry_space_group_name_H-M   'P 1'
_cell_length_a   15.39257300
_cell_length_b   14.03773000
_cell_length_c   13.30848400
_cell_angle_alpha   93.08450300
_cell_angle_beta   102.05263000
_cell_angle_gamma   112.62773300
_symmetry_Int_Tables_number   1
_chemical_formula_structural   Fe2H20C37N2O19
_chemical_formula_sum   'Fe2 H20 C37 N2 O19'
_cell_volume   2566.96362812
_cell_formula_units_Z   1
loop_
 _symmetry_equiv_pos_site_id
 _symmetry_equiv_pos_as_xyz
  1  'x, y, z'
loop_
 _atom_site_type_symbol
 _atom_site_label
 _atom_site_symmetry_multiplicity
 _atom_site_fract_x
 _atom_site_fract_y
 _atom_site_fract_z
 _atom_site_occupancy
  Fe  Fe1  1  0.49643600  0.00272400  0.77915700  1
  Fe  Fe2  1  0.50026100  0.99689300  0.23102500  1
  H  H1  1  0.81456700  0.95327000  0.89242800  1
  H  H2  1  0.99941300  0.90749500  0.06958600  1
  H  H3  1  0.98045400  0.05037800  0.90878600  1
  H  H4  1  0.06517900  0.00673700  0.77914900  1
  H  H5  1  0.21859100  0.01098800  0.75270600  1
  H  H6  1  0.16311000  0.00588300  0.10249100  1
  H  H7  1  0.45593100  0.60439800  0.30546200  1
  H  H8  1  0.46019700  0.61892500  0.62859500  1
  H  H9  1  0.49688000  0.37410900  0.69098000  1
  H  H10  1  0.43851200  0.86408500  0.46394900  1
  H  H11  1  0.52127900  0.12248800  0.53118600  1
  H  H12  1  0.82583700  0.93203000  0.33020000  1
  H  H13  1  0.70473400  0.90980300  0.28403100  1
  H  H14  1  0.81892900  0.11159000  0.28373600  1
  H  H15  1  0.60455500  0.50313900  0.40186900  1
  H  H16  1  0.51995800  0.39899700  0.29975800  1
  H  H17  1  0.66968900  0.43760000  0.29182000  1
  H  H18  1  0.03371100  0.01327500  0.21579600  1
  H  H19  1  0.95502200  0.93033800  0.28376600  1
  H  H20  1  0.02175600  0.14604800  0.27656400  1
  C  C1  1  0.79069900  0.97051800  0.17401800  1
  C  C2  1  0.87809200  0.97676200  0.15343100  1
  C  C3  1  0.88397500  0.96609800  0.05095700  1
  C  C4  1  0.80778900  0.96041800  0.97126300  1
  C  C5  1  0.72371500  0.96332800  0.99030000  1
  C  C6  1  0.71299300  0.96394600  0.09229200  1
  C  C7  1  0.96906900  0.95540600  0.02631200  1
  C  C8  1  0.01187700  0.00550900  0.95588600  1
  C  C9  1  0.12014500  0.00645700  0.84453300  1
  C  C10  1  0.20646800  0.00829600  0.82981600  1
  C  C11  1  0.27902900  0.01133200  0.91254300  1
  C  C12  1  0.26358000  0.00883800  0.01226200  1
  C  C13  1  0.17513300  0.00467700  0.02549800  1
  C  C14  1  0.10351500  0.00359500  0.94201100  1
  C  C15  1  0.49783600  0.18242100  0.70326000  1
  C  C16  1  0.37054200  0.02053400  0.88968700  1
  C  C17  1  0.65064000  0.96816500  0.90038400  1
  C  C18  1  0.45828300  0.81173100  0.65206500  1
  C  C19  1  0.52634300  0.18744500  0.35006300  1
  C  C20  1  0.33553200  0.00586700  0.10394600  1
  C  C21  1  0.62096500  0.95695900  0.11534700  1
  C  C22  1  0.45797100  0.79553700  0.28711100  1
  C  C23  1  0.44389300  0.73785500  0.37472900  1
  C  C24  1  0.45062800  0.64298700  0.37502000  1
  C  C25  1  0.45491200  0.59858600  0.46501600  1
  C  C26  1  0.45449900  0.65100500  0.55667400  1
  C  C27  1  0.44820100  0.74688300  0.55628200  1
  C  C28  1  0.44046600  0.78807200  0.46452300  1
  C  C29  1  0.51102600  0.34172600  0.62374300  1
  C  C30  1  0.51750000  0.24676200  0.62149100  1
  C  C31  1  0.52581900  0.20124300  0.53258800  1
  C  C32  1  0.53221000  0.25060700  0.44571500  1
  C  C33  1  0.53886800  0.35296800  0.45195000  1
  C  C34  1  0.52135400  0.39556700  0.53993200  1
  C  C35  1  0.77862400  0.96457500  0.28364700  1
  C  C36  1  0.57764800  0.41899600  0.37274700  1
  C  C37  1  0.96653700  0.99829600  0.24140400  1
  N  N1  1  0.46467900  0.50248100  0.46139300  1
  N  N2  1  0.50966300  0.49093400  0.54578900  1
  O  O1  1  0.56044100  0.14263900  0.74089100  1
  O  O2  1  0.45040700  0.10403700  0.93053900  1
  O  O3  1  0.40731700  0.13604900  0.70842100  1
  O  O4  1  0.36855600  0.95630400  0.81300600  1
  O  O5  1  0.58117500  0.99650100  0.91335000  1
  O  O6  1  0.66039500  0.95296600  0.80599300  1
  O  O7  1  0.47828200  0.91121000  0.64862900  1
  O  O8  1  0.45338300  0.77369300  0.73964400  1
  O  O9  1  0.53335400  0.09797500  0.35984600  1
  O  O10  1  0.49876800  0.20965800  0.25745000  1
  O  O11  1  0.42110000  0.01123300  0.09692000  1
  O  O12  1  0.31276400  0.99454200  0.19354700  1
  O  O13  1  0.52785600  0.79874300  0.24413400  1
  O  O14  1  0.62431400  0.01935600  0.19459800  1
  O  O15  1  0.42046400  0.86506900  0.27415200  1
  O  O16  1  0.53745400  0.88394300  0.06289200  1
  O  O17  1  0.79819300  0.06324700  0.33394100  1
  O  O18  1  0.65660000  0.40241500  0.35288800  1
  O  O19  1  0.98547100  0.08688700  0.30960900  1
