# Generated by REPEAT Assigner based on pymatgen
data_DB0-m29_o99_o109_f0_pts.sym.88
_audit_creation_date              2022-05-24
_audit_creation_method            REPEAT_Assigner
_cell_length_a                    15.835830
_cell_length_b                    11.688842
_cell_length_c                    15.953810
_cell_angle_alpha                 89.335632
_cell_angle_beta                  99.255243
_cell_angle_gamma                 88.359815
_cell_volume                      2913.059072
_symmetry_space_group_name_H-M    P1
_symmetry_Int_Tables_number       1
loop_
    _symmetry_equiv_pos_site_id
    _symmetry_equiv_pos_as_xyz
    1  x,y,z
loop_
    _atom_site_type_symbol
    _atom_site_label
    _atom_site_fract_x
    _atom_site_fract_y
    _atom_site_fract_z
    _atom_type_partial_charge
    C   C1   0.206676  0.015389  0.867497  -0.103051
    H   H1   0.215206  0.005729  0.802051  0.131836
    C   C2   0.125987  0.010861  0.887805  -0.184087
    H   H2   0.071956  0.996955  0.838653  0.142476
    C   C3   0.114007  0.019800  0.970799  0.241074
    C   C4   0.183108  0.035114  0.034971  -0.040758
    C   C5   0.264952  0.049605  0.013541  -0.167059
    C   C6   0.276018  0.035619  0.929050  0.052854
    C   C7   0.028819  0.008395  0.989685  -0.115707
    C   C8   0.957809  0.998103  0.006392  -0.169326
    C   C9   0.803638  0.980615  0.965747  -0.210650
    H   H3   0.813812  0.985058  0.900473  0.158754
    C   C10  0.722006  0.972251  0.986018  0.027119
    C   C11  0.712199  0.969203  0.071784  -0.040641
    C   C12  0.784485  0.972368  0.134436  -0.045986
    C   C13  0.864611  0.980733  0.112087  -0.300229
    H   H4   0.920812  0.984341  0.160312  0.191500
    C   C14  0.874045  0.985946  0.028249  0.335933
    O   O1   0.517962  0.135545  0.761765  -0.597028
    C   C15  0.466858  0.159032  0.690024  0.728252
    O   O2   0.412364  0.121516  0.924831  -0.471137
    O   O3   0.412812  0.083360  0.655473  -0.575404
    O   O4   0.379414  0.961802  0.847620  -0.546883
    C   C16  0.359836  0.038689  0.901393  0.628653
    Fe  Fe1  0.492194  0.988930  0.813903  1.421182
    O   O5   0.569533  0.973918  0.926413  -0.473287
    O   O6   0.665608  0.977724  0.836430  -0.530183
    C   C17  0.649666  0.972999  0.914582  0.519938
    O   O7   0.505812  0.878908  0.721006  -0.534118
    O   O8   0.487079  0.758247  0.827828  -0.509698
    C   C18  0.498205  0.774038  0.748814  0.513264
    O   O9   0.479345  0.123390  0.276509  -0.595681
    O   O10  0.516490  0.240889  0.175567  -0.526981
    C   C19  0.498725  0.226169  0.252418  0.683237
    O   O11  0.411505  0.007885  0.077638  -0.511497
    O   O12  0.335923  0.140006  0.140750  -0.517243
    C   C20  0.340220  0.067358  0.079429  0.632986
    O   O13  0.595904  0.915846  0.342115  -0.612163
    O   O14  0.602072  0.044457  0.145112  -0.461395
    C   C21  0.627841  0.962885  0.098330  0.657866
    O   O15  0.480631  0.863185  0.247127  -0.599603
    C   C22  0.539418  0.839923  0.313311  0.781290
    O   O16  0.582092  0.871509  0.082346  -0.502815
    Fe  Fe2  0.494534  0.008677  0.186896  1.380795
    C   C23  0.503887  0.323939  0.310656  -0.017496
    C   C24  0.525026  0.428778  0.282176  -0.151391
    C   C25  0.530097  0.523336  0.334213  0.172283
    C   C26  0.548703  0.629626  0.302565  -0.023183
    C   C27  0.542678  0.725234  0.351415  -0.086545
    C   C28  0.489923  0.312017  0.393233  -0.081849
    C   C29  0.498306  0.404550  0.448775  0.022767
    C   C30  0.515160  0.511829  0.417660  -0.042560
    C   C31  0.516709  0.607583  0.469132  0.123427
    C   C32  0.482300  0.285032  0.571064  -0.167580
    C   C33  0.487726  0.392373  0.533953  0.062721
    C   C34  0.487673  0.488117  0.585060  0.059483
    C   C35  0.466288  0.273734  0.652546  -0.045181
    C   C36  0.453415  0.369307  0.699340  0.037817
    C   C37  0.527428  0.714364  0.433096  -0.185508
    C   C38  0.503450  0.595773  0.553728  -0.023036
    C   C39  0.507510  0.688936  0.608563  -0.102444
    C   C40  0.472443  0.475949  0.668432  0.017456
    C   C41  0.479582  0.569474  0.721300  -0.106441
    C   C42  0.495623  0.675712  0.691567  0.057976
    H   H5   0.469841  0.229425  0.410860  0.144259
    H   H6   0.494105  0.206092  0.540464  0.141828
    H   H7   0.519828  0.794173  0.463928  0.154869
    H   H8   0.522921  0.773467  0.590700  0.143100
    H   H9   0.534009  0.435685  0.217014  0.137331
    H   H10  0.477115  0.560430  0.787946  0.105418
    C   C43  0.576920  0.642313  0.217300  0.293668
    O   O17  0.506400  0.638182  0.152639  -0.525166
    H   H11  0.624794  0.574047  0.208948  -0.032544
    H   H12  0.610330  0.723072  0.211508  -0.031529
    H   H13  0.530405  0.610291  0.102763  0.383530
    C   C44  0.414679  0.354596  0.779240  0.184965
    O   O18  0.345387  0.282433  0.763924  -0.587828
    H   H14  0.388827  0.435364  0.801530  0.045300
    H   H15  0.463211  0.317975  0.831188  0.074272
    H   H16  0.294818  0.334911  0.749398  0.376161
    C   C45  0.166715  0.025201  0.125274  0.427297
    O   O19  0.134140  0.918001  0.138564  -0.565153
    H   H17  0.119521  0.092952  0.136569  -0.067141
    H   H18  0.223965  0.033631  0.173648  -0.030268
    H   H19  0.103322  0.928679  0.187339  0.339237
    C   C46  0.778577  0.963216  0.226936  0.326032
    O   O20  0.752897  0.068598  0.256109  -0.548279
    H   H20  0.842202  0.938347  0.263386  -0.032788
    H   H21  0.733742  0.896173  0.239187  -0.017549
    H   H22  0.805306  0.097697  0.290542  0.353862
