# generated using pymatgen
data_ZnH8C19NClO4
_symmetry_space_group_name_H-M   'P 1'
_cell_length_a   12.78310800
_cell_length_b   8.55037500
_cell_length_c   15.04437700
_cell_angle_alpha   90.00000000
_cell_angle_beta   90.91354000
_cell_angle_gamma   90.00000000
_symmetry_Int_Tables_number   1
_chemical_formula_structural   ZnH8C19NClO4
_chemical_formula_sum   'Zn2 H16 C38 N2 Cl2 O8'
_cell_volume   1644.14691864
_cell_formula_units_Z   2
loop_
 _symmetry_equiv_pos_site_id
 _symmetry_equiv_pos_as_xyz
  1  'x, y, z'
loop_
 _atom_site_type_symbol
 _atom_site_label
 _atom_site_symmetry_multiplicity
 _atom_site_fract_x
 _atom_site_fract_y
 _atom_site_fract_z
 _atom_site_occupancy
  Zn  Zn1  1  0.88417700  0.51246200  0.50992900  1
  Zn  Zn2  1  0.11582300  0.51246200  0.49007100  1
  H  H1  1  0.04724600  0.01205500  0.56045100  1
  H  H2  1  0.95275400  0.01205500  0.43954900  1
  H  H3  1  0.99722400  0.26198000  0.79974500  1
  H  H4  1  0.99369700  0.76289400  0.19846800  1
  H  H5  1  0.00277600  0.26198000  0.20025500  1
  H  H6  1  0.00630300  0.76289400  0.80153200  1
  H  H7  1  0.83903000  0.01006100  0.90840600  1
  H  H8  1  0.16097000  0.01006100  0.09159400  1
  H  H9  1  0.58333700  0.77839400  0.07678000  1
  H  H10  1  0.52794600  0.97762900  0.18413200  1
  H  H11  1  0.64616800  0.19443000  0.22379200  1
  H  H12  1  0.81850300  0.21304000  0.15586700  1
  H  H13  1  0.41666300  0.77839400  0.92322000  1
  H  H14  1  0.47205400  0.97762800  0.81586800  1
  H  H15  1  0.35383200  0.19443000  0.77620700  1
  H  H16  1  0.18149700  0.21304000  0.84413300  1
  C  C1  1  0.02143800  0.15186100  0.67432700  1
  C  C2  1  0.97737200  0.87271200  0.32524900  1
  C  C3  1  0.97856300  0.15186100  0.32567300  1
  C  C4  1  0.02262800  0.87271200  0.67475100  1
  C  C5  1  0.00695000  0.15250700  0.76488100  1
  C  C6  1  0.98783500  0.87224700  0.23410300  1
  C  C7  1  0.99305000  0.15250700  0.23511900  1
  C  C8  1  0.01216500  0.87224700  0.76589700  1
  C  C9  1  0.01018300  0.01292700  0.81142500  1
  C  C10  1  0.98981700  0.01292700  0.18857500  1
  C  C11  1  0.03471500  0.01223800  0.63092200  1
  C  C12  1  0.96528500  0.01223800  0.36907800  1
  C  C13  1  0.90974500  0.01075900  0.94877200  1
  C  C14  1  0.09025500  0.01075900  0.05122700  1
  C  C15  1  0.90353800  0.01077400  0.04023300  1
  C  C16  1  0.09646200  0.01077400  0.95976700  1
  C  C17  1  0.99431800  0.01415500  0.09166400  1
  C  C18  1  0.00568200  0.01415500  0.90833600  1
  C  C19  1  0.54692500  0.51253600  0.50453100  1
  C  C20  1  0.45307500  0.51253600  0.49546800  1
  C  C21  1  0.65703200  0.51252400  0.51394800  1
  C  C22  1  0.34296800  0.51252400  0.48605200  1
  C  C23  1  0.01497800  0.73063100  0.62113200  1
  C  C24  1  0.98535600  0.29393900  0.37919700  1
  C  C25  1  0.98502300  0.73063100  0.37886800  1
  C  C26  1  0.01464400  0.29393900  0.62080300  1
  C  C27  1  0.80066000  0.00176100  0.08105700  1
  C  C28  1  0.73316900  0.88222000  0.05734900  1
  C  C29  1  0.63556400  0.87309500  0.09473600  1
  C  C30  1  0.60460100  0.98450900  0.15505900  1
  C  C31  1  0.67107500  0.10556400  0.17760600  1
  C  C32  1  0.76888800  0.11439800  0.14056100  1
  C  C33  1  0.19934000  0.00176100  0.91894200  1
  C  C34  1  0.26683100  0.88222000  0.94265000  1
  C  C35  1  0.36443600  0.87309500  0.90526400  1
  C  C36  1  0.39540000  0.98450900  0.84494000  1
  C  C37  1  0.32892500  0.10556400  0.82239300  1
  C  C38  1  0.23111300  0.11439800  0.85943900  1
  N  N1  1  0.74743200  0.51251000  0.51930500  1
  N  N2  1  0.25256800  0.51251000  0.48069400  1
  Cl  Cl1  1  0.77259700  0.73820000  0.98217600  1
  Cl  Cl2  1  0.22740300  0.73820000  0.01782300  1
  O  O1  1  0.09984000  0.68146800  0.58218400  1
  O  O2  1  0.90022200  0.34310200  0.41798300  1
  O  O3  1  0.90016000  0.68146800  0.41781600  1
  O  O4  1  0.09977800  0.34310200  0.58201700  1
  O  O5  1  0.92126100  0.67588400  0.60183800  1
  O  O6  1  0.07885600  0.34927500  0.39808200  1
  O  O7  1  0.07873900  0.67588400  0.39816100  1
  O  O8  1  0.92114400  0.34927500  0.60191800  1
