# generated using pymatgen
data_Fe2H40C73N4O17
_symmetry_space_group_name_H-M   'P 1'
_cell_length_a   16.16523700
_cell_length_b   16.34852900
_cell_length_c   21.44347200
_cell_angle_alpha   92.73792800
_cell_angle_beta   83.69938800
_cell_angle_gamma   66.04271000
_symmetry_Int_Tables_number   1
_chemical_formula_structural   Fe2H40C73N4O17
_chemical_formula_sum   'Fe2 H40 C73 N4 O17'
_cell_volume   5120.86709263
_cell_formula_units_Z   1
loop_
 _symmetry_equiv_pos_site_id
 _symmetry_equiv_pos_as_xyz
  1  'x, y, z'
loop_
 _atom_site_type_symbol
 _atom_site_label
 _atom_site_symmetry_multiplicity
 _atom_site_fract_x
 _atom_site_fract_y
 _atom_site_fract_z
 _atom_site_occupancy
  Fe  Fe1  1  0.53915300  0.96608000  0.09600200  1
  Fe  Fe2  1  0.52354300  0.03043000  0.87498900  1
  H  H1  1  0.98638000  0.93315400  0.87374400  1
  H  H2  1  0.21339100  0.99039400  0.89136900  1
  H  H3  1  0.08161000  0.96992700  0.90722100  1
  H  H4  1  0.85386400  0.93214200  0.83894400  1
  H  H5  1  0.22234800  0.00576700  0.11930500  1
  H  H6  1  0.08257200  0.98656100  0.13555600  1
  H  H7  1  0.94468000  0.96860000  0.15277300  1
  H  H8  1  0.81678500  0.95352000  0.11566600  1
  H  H9  1  0.43726600  0.22745000  0.45105600  1
  H  H10  1  0.41957800  0.50768200  0.73774000  1
  H  H11  1  0.43468700  0.65921800  0.72509500  1
  H  H12  1  0.58510100  0.76084800  0.52873100  1
  H  H13  1  0.60404600  0.72959200  0.40492300  1
  H  H14  1  0.53340000  0.52458300  0.24438300  1
  H  H15  1  0.53665700  0.36553700  0.25702700  1
  H  H16  1  0.40071900  0.26729200  0.57447300  1
  H  H17  1  0.44361800  0.59987900  0.48549900  1
  H  H18  1  0.52467700  0.43217500  0.49789300  1
  H  H19  1  0.65750600  0.17862700  0.35830400  1
  H  H20  1  0.40551400  0.20581900  0.23955600  1
  H  H21  1  0.38621800  0.32586900  0.31946800  1
  H  H22  1  0.29646200  0.40850500  0.68963600  1
  H  H23  1  0.29491800  0.31677700  0.77675300  1
  H  H24  1  0.58769000  0.20518500  0.75276400  1
  H  H25  1  0.58741600  0.29552900  0.66642700  1
  H  H26  1  0.38147300  0.76840600  0.35026800  1
  H  H27  1  0.37211300  0.87413700  0.27299400  1
  H  H28  1  0.64590900  0.70530600  0.18849900  1
  H  H29  1  0.65382000  0.59906700  0.26699100  1
  H  H30  1  0.38289200  0.85467400  0.60612500  1
  H  H31  1  0.60525200  0.65155900  0.67585000  1
  H  H32  1  0.67790100  0.05728800  0.27910000  1
  H  H33  1  0.39644500  0.96920900  0.67575800  1
  H  H34  1  0.72795800  0.81562000  0.73611700  1
  H  H35  1  0.70003900  0.77036900  0.66730700  1
  H  H36  1  0.80568500  0.66100000  0.76771600  1
  H  H37  1  0.77770300  0.61565900  0.69848000  1
  H  H38  1  0.86579100  0.67981900  0.62995500  1
  H  H39  1  0.93621500  0.60476400  0.68103400  1
  H  H40  1  0.89387200  0.72514600  0.69930200  1
  C  C1  1  0.93276800  0.93816900  0.91005200  1
  C  C2  1  0.28824300  0.00579400  0.96417200  1
  C  C3  1  0.21674200  0.99340600  0.94139300  1
  C  C4  1  0.14873400  0.98471800  0.98166600  1
  C  C5  1  0.07918100  0.97103300  0.95745500  1
  C  C6  1  0.00957400  0.96161000  0.99692600  1
  C  C7  1  0.85692600  0.93532700  0.88904900  1
  C  C8  1  0.78363700  0.94132000  0.93071100  1
  C  C9  1  0.93675700  0.94870200  0.97425700  1
  C  C10  1  0.86576100  0.94659500  0.01671200  1
  C  C11  1  0.78907100  0.94176300  0.99489800  1
  C  C12  1  0.29084800  0.00903000  0.02912900  1
  C  C13  1  0.22044200  0.00330700  0.06904800  1
  C  C14  1  0.15028600  0.99009700  0.04538000  1
  C  C15  1  0.08179600  0.98179100  0.08519800  1
  C  C16  1  0.01174900  0.96821400  0.06127400  1
  C  C17  1  0.94313700  0.96281700  0.10253700  1
  C  C18  1  0.87033900  0.95330900  0.08082300  1
  C  C19  1  0.71608700  0.93257200  0.03805400  1
  C  C20  1  0.50229400  0.86419300  0.18074300  1
  C  C21  1  0.36674800  0.01496500  0.05812500  1
  C  C22  1  0.55813900  0.05538400  0.20180800  1
  C  C23  1  0.51067400  0.94467000  0.76087000  1
  C  C24  1  0.70083400  0.94998700  0.90495000  1
  C  C25  1  0.44407600  0.19234000  0.81854000  1
  C  C26  1  0.35843000  0.01424000  0.91805500  1
  C  C27  1  0.43389700  0.53108800  0.69325100  1
  C  C28  1  0.44186300  0.61069100  0.68655000  1
  C  C29  1  0.46145600  0.61388500  0.62252200  1
  C  C30  1  0.44711200  0.48983100  0.63304800  1
  C  C31  1  0.48177000  0.67750800  0.59668300  1
  C  C32  1  0.50710100  0.67644900  0.52829400  1
  C  C33  1  0.55730000  0.72139000  0.50341300  1
  C  C34  1  0.56723300  0.70531200  0.43896000  1
  C  C35  1  0.52343100  0.65069900  0.42675200  1
  C  C36  1  0.52027900  0.61724500  0.36258600  1
  C  C37  1  0.52127500  0.53627400  0.34885800  1
  C  C38  1  0.52861500  0.49726100  0.28884000  1
  C  C39  1  0.53070100  0.41344000  0.29564000  1
  C  C40  1  0.52102500  0.40601600  0.35978800  1
  C  C41  1  0.51358000  0.33583400  0.38565100  1
  C  C42  1  0.48848200  0.33405400  0.45379900  1
  C  C43  1  0.45124900  0.27735700  0.47733700  1
  C  C44  1  0.43192800  0.29823800  0.54168900  1
  C  C45  1  0.45774700  0.36710300  0.55525800  1
  C  C46  1  0.44645400  0.40946800  0.61987200  1
  C  C47  1  0.60177400  0.18353000  0.33289200  1
  C  C48  1  0.61305900  0.11536600  0.28804600  1
  C  C49  1  0.54344800  0.12365000  0.25330800  1
  C  C50  1  0.46104500  0.19845200  0.26583100  1
  C  C51  1  0.44972600  0.26615200  0.31106400  1
  C  C52  1  0.52101100  0.25977300  0.34331200  1
  C  C53  1  0.36013700  0.36371100  0.70392700  1
  C  C54  1  0.35945400  0.31247900  0.75331400  1
  C  C55  1  0.44112800  0.25447700  0.77103400  1
  C  C56  1  0.52282200  0.24953100  0.73988700  1
  C  C57  1  0.52320500  0.30027900  0.69081000  1
  C  C58  1  0.44232600  0.35665800  0.67228300  1
  C  C59  1  0.43928000  0.75410600  0.31435600  1
  C  C60  1  0.43435700  0.81371900  0.27041000  1
  C  C61  1  0.50827100  0.79696100  0.22483800  1
  C  C62  1  0.58710400  0.71918300  0.22340600  1
  C  C63  1  0.59164600  0.65907800  0.26754700  1
  C  C64  1  0.51729800  0.67648000  0.31293900  1
  C  C65  1  0.43492800  0.83523900  0.63688600  1
  C  C66  1  0.44334000  0.89972500  0.67597900  1
  C  C67  1  0.50820600  0.87524100  0.71660800  1
  C  C68  1  0.56795600  0.78582900  0.71555100  1
  C  C69  1  0.55894600  0.72145800  0.67643100  1
  C  C70  1  0.49123100  0.74588800  0.63813700  1
  C  C71  1  0.71249900  0.76017200  0.71675000  1
  C  C72  1  0.79313600  0.67096800  0.71825300  1
  C  C73  1  0.87773500  0.67028500  0.67956100  1
  N  N1  1  0.46308300  0.54076300  0.58992800  1
  N  N2  1  0.48570300  0.63405400  0.48123100  1
  N  N3  1  0.51629300  0.48076000  0.39215600  1
  N  N4  1  0.49370400  0.38771300  0.50159100  1
  O  O1  1  0.63075900  0.99150000  0.04104600  1
  O  O2  1  0.42711300  0.93817500  0.18585900  1
  O  O3  1  0.73572600  0.86278400  0.07067100  1
  O  O4  1  0.57204600  0.85463200  0.13870900  1
  O  O5  1  0.45101900  0.95379300  0.04114700  1
  O  O6  1  0.34824600  0.07356100  0.10725800  1
  O  O7  1  0.49642000  0.06888000  0.16390000  1
  O  O8  1  0.63495400  0.98266300  0.19138400  1
  O  O9  1  0.53647700  0.92485200  0.81652600  1
  O  O10  1  0.47310100  0.02844600  0.74852900  1
  O  O11  1  0.62437600  0.02036600  0.92516100  1
  O  O12  1  0.70726400  0.90051300  0.85317300  1
  O  O13  1  0.35960500  0.99461300  0.85800700  1
  O  O14  1  0.52351200  0.12631400  0.82199700  1
  O  O15  1  0.41668500  0.04449500  0.93651000  1
  O  O16  1  0.36872000  0.19373700  0.84940200  1
  O  O17  1  0.63531600  0.76028300  0.75332700  1
