# Generated by REPEAT Assigner based on pymatgen
data_DB0-m2_o11_o13_f0_pcu.sym.18
_audit_creation_date              2022-05-24
_audit_creation_method            REPEAT_Assigner
_cell_length_a                    12.981734
_cell_length_b                    11.033185
_cell_length_c                    9.653832
_cell_angle_alpha                 90.020336
_cell_angle_beta                  95.379711
_cell_angle_gamma                 90.005950
_cell_volume                      1376.626447
_symmetry_space_group_name_H-M    P1
_symmetry_Int_Tables_number       1
loop_
    _symmetry_equiv_pos_site_id
    _symmetry_equiv_pos_as_xyz
    1  x,y,z
loop_
    _atom_site_type_symbol
    _atom_site_label
    _atom_site_fract_x
    _atom_site_fract_y
    _atom_site_fract_z
    _atom_type_partial_charge
    O   O1   0.489756  0.334172  0.637661  -0.501961
    O   O2   0.484438  0.334257  0.399414  -0.555239
    C   C1   0.491802  0.277026  0.518070  0.629846
    O   O3   0.331689  0.504621  0.615700  -0.527891
    O   O4   0.333875  0.501962  0.378379  -0.532486
    C   C2   0.284026  0.502079  0.490878  0.593943
    Cu  Cu1  0.482714  0.510641  0.657325  0.841554
    Cu  Cu2  0.484022  0.509668  0.380182  0.764974
    O   O5   0.475107  0.685961  0.636624  -0.639981
    O   O6   0.477703  0.686656  0.399568  -0.596961
    O   O7   0.631822  0.521868  0.658990  -0.529138
    O   O8   0.634240  0.509174  0.421561  -0.571006
    C   C3   0.474112  0.742846  0.519593  0.880680
    C   C4   0.682422  0.514802  0.547091  0.620646
    C   C5   0.796034  0.512650  0.563406  0.098160
    C   C6   0.169550  0.507600  0.474142  -0.089367
    C   C7   0.006857  0.507877  0.335049  -0.315484
    C   C8   0.114757  0.507312  0.343777  -0.060329
    C   C9   0.117271  0.510912  0.592670  -0.039817
    C   C10  0.010867  0.509197  0.583499  -0.087559
    C   C11  0.956265  0.508469  0.455175  0.317377
    C   C12  0.849600  0.512053  0.444978  -0.413822
    C   C13  0.852537  0.503387  0.693370  -0.142859
    C   C14  0.959498  0.509059  0.703510  0.288388
    H   H1   0.809941  0.510879  0.341890  0.183917
    H   H2   0.959081  0.505976  0.236519  0.176391
    H   H3   0.156546  0.503294  0.251030  0.098682
    H   H4   0.159164  0.509885  0.694186  0.098041
    C   C15  0.458308  0.946418  0.411018  0.697009
    C   C16  0.465302  0.873404  0.521712  -0.638381
    H   H5   0.453108  0.911807  0.622498  0.187701
    C   C17  0.441703  0.077337  0.433521  -0.499464
    C   C18  0.504882  0.142904  0.520582  0.216469
    H   H6   0.381648  0.125593  0.372748  0.157604
    C   C19  0.415077  0.452127  0.934356  0.392372
    N   N1   0.477837  0.510076  0.864215  -0.328639
    H   H7   0.505065  0.588171  0.908695  0.226169
    C   C20  0.410326  0.471442  0.085861  -0.243034
    N   N2   0.485583  0.509229  0.173560  0.121991
    H   H8   0.340902  0.439904  0.126467  0.167936
    O   O9   0.596398  0.092864  0.576212  -0.378393
    C   C21  0.595752  0.094031  0.721594  0.447304
    H   H9   0.517950  0.078607  0.753685  -0.019694
    H   H10  0.622177  0.180541  0.767664  0.003240
    C   C22  0.665274  0.996005  0.784212  -0.393207
    H   H11  0.746806  0.011870  0.763204  0.094782
    H   H12  0.661030  0.990328  0.898032  0.091564
    H   H13  0.634838  0.911203  0.737858  0.110702
    O   O10  0.347836  0.372893  0.869566  -0.290270
    C   C23  0.383703  0.259945  0.916367  0.442527
    H   H14  0.367546  0.243826  0.024650  -0.015828
    H   H15  0.466373  0.248798  0.901278  -0.111895
    C   C24  0.323210  0.171424  0.829517  -0.444144
    H   H16  0.335622  0.204290  0.724958  0.090346
    H   H17  0.348981  0.076362  0.854455  0.120219
    H   H18  0.243072  0.190074  0.851931  0.104633
    O   O11  0.578205  0.521210  0.122655  -0.255459
    C   C25  0.607681  0.643420  0.139673  0.431267
    H   H19  0.629629  0.665521  0.250198  -0.014940
    H   H20  0.543335  0.709245  0.115835  -0.006052
    C   C26  0.697829  0.664863  0.051135  -0.533065
    H   H21  0.677343  0.646080  0.937950  0.130389
    H   H22  0.713082  0.761495  0.072245  0.106416
    H   H23  0.769662  0.608634  0.077146  0.165485
    O   O12  0.804188  0.489969  0.813007  -0.157994
    C   C27  0.803653  0.365134  0.840590  0.298916
    H   H24  0.883081  0.329663  0.868869  -0.018480
    H   H25  0.768084  0.315692  0.748914  -0.041902
    C   C28  0.739944  0.340849  0.961027  -0.307436
    H   H26  0.659689  0.372731  0.934197  0.107513
    H   H27  0.738842  0.242317  0.982472  0.060446
    H   H28  0.774721  0.388831  0.054638  0.066892
    O   O13  0.014211  0.514118  0.831807  -0.393063
    C   C29  0.006339  0.634442  0.876449  0.464762
    H   H29  0.948378  0.639570  0.953652  -0.080031
    H   H30  0.982804  0.694608  0.787566  -0.047320
    C   C30  0.108947  0.680414  0.945440  -0.298670
    H   H31  0.167843  0.690503  0.869660  0.065840
    H   H32  0.094833  0.770397  0.991868  0.061393
    H   H33  0.138968  0.617076  0.028234  0.092051
    O   O14  0.461441  0.902312  0.277798  -0.423988
    C   C31  0.360970  0.912998  0.213469  0.396970
    H   H34  0.349514  0.005947  0.170939  -0.035546
    H   H35  0.304767  0.896310  0.291776  -0.074438
    C   C32  0.346256  0.824593  0.093186  -0.234899
    H   H36  0.343976  0.729496  0.130344  0.063146
    H   H37  0.273711  0.845570  0.030987  0.046440
    H   H38  0.408337  0.837818  0.023754  0.067036
