# Generated by REPEAT Assigner based on pymatgen
data_DB0-m9_o20_o22_f0_sra.sym.43
_audit_creation_date              2022-05-24
_audit_creation_method            REPEAT_Assigner
_cell_length_a                    6.698914
_cell_length_b                    14.722240
_cell_length_c                    19.860504
_cell_angle_alpha                 108.806377
_cell_angle_beta                  90.835476
_cell_angle_gamma                 91.120447
_cell_volume                      1853.328544
_symmetry_space_group_name_H-M    P1
_symmetry_Int_Tables_number       1
loop_
    _symmetry_equiv_pos_site_id
    _symmetry_equiv_pos_as_xyz
    1  x,y,z
loop_
    _atom_site_type_symbol
    _atom_site_label
    _atom_site_fract_x
    _atom_site_fract_y
    _atom_site_fract_z
    _atom_type_partial_charge
    O  O1   0.543917  0.436730  0.561925  -0.478218
    O  O2   0.194383  0.391574  0.410609  -0.613725
    O  O3   0.043620  0.569148  0.434422  -0.555384
    C  C1   0.367696  0.372941  0.381406  0.627008
    O  O4   0.202082  0.414616  0.553572  -0.566656
    O  O5   0.051525  0.593249  0.586013  -0.607685
    C  C2   0.376379  0.406094  0.579901  0.752930
    O  O6   0.536167  0.410648  0.410138  -0.606204
    O  O7   0.372229  0.562421  0.506958  -0.482780
    V  V1   0.094780  0.490111  0.495810  1.482610
    O  O8   0.711629  0.613807  0.584238  -0.601916
    C  C3   0.886628  0.630840  0.614361  0.592751
    O  O9   0.704039  0.589381  0.441182  -0.548376
    C  C4   0.877810  0.599303  0.415873  0.779785
    V  V2   0.595980  0.514658  0.499660  1.398015
    O  O10  0.866463  0.442338  0.488461  -0.479864
    C  C5   0.889297  0.650666  0.365280  -0.258251
    C  C6   0.900044  0.690998  0.321162  0.091652
    C  C7   0.912042  0.736487  0.268298  -0.018798
    C  C8   0.919897  0.774959  0.223013  -0.041875
    C  C9   0.924354  0.820945  0.170332  0.114308
    C  C10  0.921871  0.862072  0.126585  -0.278061
    C  C11  0.891224  0.871584  0.756995  -0.162162
    H  H1   0.767004  0.922595  0.770682  0.058619
    H  H2   0.033722  0.911537  0.757708  0.057038
    C  C12  0.853095  0.800018  0.683772  -0.079579
    H  H3   0.951961  0.817439  0.645092  0.034070
    H  H4   0.694620  0.802205  0.667556  0.040569
    H  H5   0.588091  0.792813  0.803288  0.100894
    H  H6   0.592623  0.662884  0.703412  -0.092610
    C  C13  0.726068  0.752059  0.802380  -0.486714
    C  C14  0.093524  0.759923  0.797729  -0.089023
    C  C15  0.905848  0.818333  0.810619  0.269925
    H  H7   0.090838  0.711092  0.830129  -0.000084
    H  H8   0.226951  0.808547  0.812897  0.034333
    C  C16  0.896432  0.701171  0.686814  0.109731
    C  C17  0.739711  0.673072  0.731550  0.484578
    C  C18  0.101330  0.702150  0.719760  -0.015705
    H  H9   0.210551  0.736037  0.693164  0.043994
    H  H10  0.145864  0.627840  0.713751  0.007819
    H  H11  0.725032  0.720426  0.846056  0.114040
    C  C19  0.509856  0.218760  0.314359  0.349425
    H  H12  0.666710  0.245845  0.324755  -0.042312
    C  C20  0.494947  0.138514  0.243925  -0.348092
    H  H13  0.395429  0.079996  0.248844  0.063003
    H  H14  0.645619  0.110530  0.228026  0.053694
    H  H15  0.609902  0.386739  0.284141  0.060245
    H  H16  0.683663  0.255575  0.189964  -0.017266
    C  C21  0.471487  0.346171  0.259747  -0.207622
    C  C22  0.173382  0.260881  0.282638  -0.209594
    C  C23  0.379035  0.299772  0.310310  0.156185
    H  H17  0.071404  0.320952  0.287332  0.059334
    H  H18  0.114940  0.215663  0.313353  0.068855
    C  C24  0.407513  0.178235  0.188861  0.206115
    C  C25  0.521134  0.268785  0.191209  0.025505
    C  C26  0.190264  0.201423  0.205340  0.173175
    H  H19  0.100365  0.133994  0.194594  -0.028277
    H  H20  0.133933  0.242436  0.171265  -0.014087
    H  H21  0.363319  0.395766  0.248458  0.036152
    H  H22  0.476227  0.291473  0.145198  0.034400
    C  C27  0.383369  0.357932  0.632515  -0.193409
    C  C28  0.385126  0.320931  0.678689  0.059070
    C  C29  0.385310  0.279613  0.734022  0.028784
    C  C30  0.386617  0.244364  0.781181  -0.101319
    C  C31  0.392376  0.201180  0.835441  0.189237
    C  C32  0.403955  0.161016  0.879611  -0.371586
    O  O11  0.235750  0.062294  0.097478  -0.620578
    O  O12  0.596545  0.059760  0.922179  -0.584216
    O  O13  0.771632  0.896170  0.927152  -0.461374
    C  C33  0.429347  0.107309  0.928106  0.870898
    O  O14  0.549634  0.118593  0.072466  -0.601954
    O  O15  0.731171  0.952967  0.073939  -0.533377
    C  C34  0.412493  0.105784  0.117293  0.591215
    O  O16  0.282989  0.106982  0.972685  -0.503442
    O  O17  0.408544  0.939310  0.985316  -0.590660
    V  V3   0.687217  0.014401  0.000548  1.440620
    O  O18  0.037586  0.893494  0.023543  -0.535892
    C  C35  0.908536  0.914701  0.076874  0.789299
    O  O19  0.090463  0.939553  0.896115  -0.619913
    C  C36  0.921722  0.889453  0.882660  0.585153
    V  V4   0.186118  0.993043  0.995805  1.482123
    O  O20  0.915112  0.068237  0.013112  -0.578116
    C  C37  0.794980  0.581747  0.743327  0.341152
    O  O21  0.683535  0.511431  0.722130  -0.457548
    O  O22  0.972968  0.576650  0.778708  -0.393376
    H  H23  0.987159  0.510036  0.782275  0.357421
    C  C38  0.444669  0.182586  0.372705  0.524758
    O  O23  0.558694  0.188338  0.422389  -0.525597
    O  O24  0.255057  0.141266  0.370235  -0.541290
    H  H24  0.235564  0.120331  0.413535  0.404077
