# Generated by REPEAT Assigner based on pymatgen
data_DB0-m29_o81_o51_f0_pts.sym.99
_audit_creation_date              2022-05-24
_audit_creation_method            REPEAT_Assigner
_cell_length_a                    16.027993
_cell_length_b                    9.405062
_cell_length_c                    17.515587
_cell_angle_alpha                 89.208933
_cell_angle_beta                  84.466757
_cell_angle_gamma                 108.603642
_cell_volume                      2487.968264
_symmetry_space_group_name_H-M    P1
_symmetry_Int_Tables_number       1
loop_
    _symmetry_equiv_pos_site_id
    _symmetry_equiv_pos_as_xyz
    1  x,y,z
loop_
    _atom_site_type_symbol
    _atom_site_label
    _atom_site_fract_x
    _atom_site_fract_y
    _atom_site_fract_z
    _atom_type_partial_charge
    C   C1   0.889857  0.992692  0.889070  -0.284478
    C   C2   0.274130  0.949265  0.957415  -0.027348
    C   C3   0.193367  0.936500  0.930642  -0.154168
    C   C4   0.126878  0.967058  0.976973  0.083772
    C   C5   0.048842  0.963408  0.948077  -0.184974
    C   C6   0.982728  0.000123  0.993450  -0.003114
    C   C7   0.809080  0.987283  0.864166  0.113099
    C   C8   0.739930  0.987351  0.917967  -0.019659
    C   C9   0.902913  0.001522  0.966590  0.153211
    C   C10  0.835362  0.016379  0.018508  0.011593
    C   C11  0.752269  0.998778  0.995077  -0.051229
    C   C12  0.285531  0.986359  0.033218  0.077188
    C   C13  0.218240  0.013953  0.079200  -0.268373
    C   C14  0.139637  0.005269  0.051173  0.263777
    C   C15  0.074160  0.036659  0.097304  -0.291191
    C   C16  0.996190  0.032655  0.069080  0.203510
    C   C17  0.932398  0.063810  0.117436  -0.212596
    C   C18  0.852350  0.054114  0.092986  -0.045266
    H   H1   0.943838  0.996376  0.847474  0.148702
    H   H2   0.183013  0.909350  0.871848  0.144710
    H   H3   0.041392  0.927673  0.890375  0.149880
    H   H4   0.228694  0.046970  0.137296  0.157588
    H   H5   0.084061  0.065135  0.156064  0.162838
    H   H6   0.944209  0.093739  0.175715  0.147219
    H   H7   0.806187  0.084610  0.132965  0.108657
    O   O1   0.613926  0.040176  0.036138  -0.538333
    C   C19  0.675842  0.984172  0.051823  0.545303
    O   O2   0.498406  0.701697  0.111187  -0.415611
    O   O3   0.667275  0.909023  0.117303  -0.477112
    O   O4   0.507603  0.858954  0.209241  -0.534437
    C   C20  0.499971  0.724416  0.184877  0.498001
    Fe  Fe1  0.519088  0.003062  0.122259  1.463083
    O   O5   0.403809  0.911395  0.078331  -0.575567
    O   O6   0.409557  0.155199  0.084836  -0.473750
    C   C21  0.370350  0.018568  0.064314  0.609865
    O   O7   0.547005  0.207858  0.164960  -0.626088
    O   O8   0.446285  0.080417  0.263314  -0.524692
    C   C22  0.498383  0.207384  0.229653  0.594198
    O   O9   0.465394  0.768247  0.790510  -0.547433
    O   O10  0.555973  0.880550  0.683715  -0.516001
    C   C23  0.503971  0.758709  0.722041  0.556601
    O   O11  0.632285  0.063670  0.854365  -0.607670
    O   O12  0.589383  0.831456  0.913369  -0.494091
    C   C24  0.651241  0.960095  0.893822  0.650232
    O   O13  0.334745  0.925676  0.828952  -0.541919
    O   O14  0.511240  0.115398  0.738034  -0.505700
    C   C25  0.494819  0.235325  0.764101  0.555367
    O   O15  0.427470  0.961841  0.921187  -0.476975
    C   C26  0.347348  0.940352  0.901741  0.593237
    O   O16  0.481773  0.247344  0.838505  -0.507435
    Fe  Fe2  0.508126  0.978807  0.826075  1.409527
    C   C27  0.494207  0.358031  0.711497  0.084496
    C   C28  0.500527  0.343170  0.632902  -0.253984
    H   H8   0.502744  0.238539  0.609533  0.165254
    C   C29  0.502868  0.460996  0.583597  0.239081
    C   C30  0.504264  0.597175  0.613256  -0.240496
    H   H9   0.512784  0.694276  0.576109  0.153892
    C   C31  0.496559  0.611851  0.691517  0.119443
    C   C32  0.489389  0.491499  0.740623  -0.207204
    C   C33  0.508267  0.439830  0.500388  -0.177233
    C   C34  0.482339  0.522912  0.450619  -0.189674
    C   C35  0.490950  0.618154  0.317337  -0.284255
    H   H10  0.488652  0.723219  0.340087  0.182883
    C   C36  0.497663  0.601771  0.238756  0.148881
    C   C37  0.503297  0.468443  0.210655  -0.254452
    C   C38  0.497115  0.349862  0.260392  0.165148
    C   C39  0.487156  0.364333  0.338446  -0.300999
    H   H11  0.479309  0.267639  0.375658  0.160910
    C   C40  0.487686  0.500694  0.367444  0.272489
    H   H12  0.485799  0.505741  0.801809  0.175439
    H   H13  0.509536  0.454183  0.149512  0.211795
    H   H14  0.533843  0.352003  0.480524  0.138217
    H   H15  0.457039  0.611096  0.470493  0.131525
    C   C41  0.791079  0.975885  0.780881  -0.280816
    C   C42  0.866031  0.964169  0.723096  0.604639
    C   C43  0.874662  0.807878  0.728510  -0.378944
    C   C44  0.844931  0.991985  0.642679  -0.398984
    H   H16  0.774599  0.076920  0.763905  0.095383
    H   H17  0.732790  0.875545  0.775341  0.072020
    H   H18  0.929408  0.051567  0.731172  -0.108182
    H   H19  0.816482  0.725030  0.707054  0.087595
    H   H20  0.878430  0.773792  0.788467  0.065755
    H   H21  0.935427  0.806796  0.692737  0.064329
    H   H22  0.778683  0.914636  0.633049  0.090783
    H   H23  0.895572  0.973178  0.599887  0.075454
    H   H24  0.845721  0.109713  0.635163  0.073873
