# Generated by REPEAT Assigner based on pymatgen
data_DB0-m3_o160_o480_f0_fsc.sym.2_sqe
_audit_creation_date              2022-05-24
_audit_creation_method            REPEAT_Assigner
_cell_length_a                    8.514542
_cell_length_b                    10.887993
_cell_length_c                    13.393410
_cell_angle_alpha                 90.901693
_cell_angle_beta                  90.067117
_cell_angle_gamma                 90.014717
_cell_volume                      1241.498537
_symmetry_space_group_name_H-M    P1
_symmetry_Int_Tables_number       1
loop_
    _symmetry_equiv_pos_site_id
    _symmetry_equiv_pos_as_xyz
    1  x,y,z
loop_
    _atom_site_type_symbol
    _atom_site_label
    _atom_site_fract_x
    _atom_site_fract_y
    _atom_site_fract_z
    _atom_type_partial_charge
    C   C1   0.959299  0.477942  0.869856  0.180981
    C   C2   0.815846  0.539275  0.860123  -0.120781
    C   C3   0.677255  0.471244  0.852777  0.240993
    C   C4   0.681321  0.345468  0.861230  -0.418599
    C   C5   0.821233  0.284360  0.872479  0.198306
    C   C6   0.961972  0.349193  0.873447  0.000018
    C   C7   0.821150  0.157770  0.882778  -0.188428
    C   C8   0.959957  0.097778  0.897582  -0.093545
    C   C9   0.099719  0.157430  0.886493  -0.081407
    C   C10  0.102154  0.282545  0.873497  -0.210511
    C   C11  0.097321  0.547092  0.878425  -0.243466
    C   C12  0.095910  0.671477  0.861751  -0.077576
    C   C13  0.955850  0.728930  0.845975  -0.147924
    C   C14  0.816300  0.667297  0.854657  -0.071289
    H   H1   0.572795  0.294338  0.857891  0.171197
    H   H2   0.215402  0.323311  0.861986  0.108060
    H   H3   0.208294  0.507712  0.897895  0.112884
    H   H4   0.954363  0.826098  0.833681  0.124932
    H   H5   0.959442  0.000719  0.910437  0.122082
    O   O1   0.631295  0.031836  0.960583  -0.746822
    O   O2   0.622432  0.050748  0.789483  -0.726392
    C   C15  0.679474  0.081541  0.877676  0.912260
    O   O3   0.626484  0.795696  0.779647  -0.778809
    O   O4   0.624347  0.776883  0.951089  -0.734478
    C   C16  0.677088  0.745547  0.861859  0.934663
    O   O5   0.286993  0.796777  0.782673  -0.764337
    O   O6   0.296205  0.777736  0.954029  -0.698603
    C   C17  0.238391  0.747289  0.865990  0.899347
    O   O7   0.292110  0.032906  0.963379  -0.744964
    O   O8   0.294672  0.051774  0.792120  -0.721482
    C   C18  0.241508  0.082690  0.880925  0.875032
    Zn  Zn1  0.457085  0.922303  0.760685  1.048546
    Zn  Zn2  0.461522  0.906252  0.982571  1.039020
    C   C19  0.461653  0.799102  0.167712  -0.334204
    N   N1   0.464380  0.901830  0.113376  0.198360
    C   C20  0.466111  0.012709  0.158984  -0.167049
    C   C21  0.464606  0.023910  0.261314  -0.060976
    C   C22  0.460892  0.919899  0.319525  -0.314697
    C   C23  0.459927  0.806742  0.270958  0.690937
    C   C24  0.457945  0.034904  0.478404  -0.248915
    C   C25  0.458044  0.924998  0.423869  0.374250
    C   C26  0.455169  0.816156  0.475799  -0.262150
    C   C27  0.454560  0.704785  0.423793  0.587233
    N   N2   0.456747  0.702741  0.323482  -0.724846
    C   C28  0.456174  0.034097  0.581233  -0.100577
    N   N3   0.454296  0.927390  0.629915  0.126591
    C   C29  0.453375  0.819632  0.579353  -0.058693
    H   H6   0.467774  0.095002  0.114979  0.164161
    H   H7   0.452055  0.736338  0.621765  0.155231
    H   H8   0.466058  0.115851  0.291467  0.121453
    H   H9   0.459537  0.123709  0.444688  0.163213
    H   H10  0.459776  0.710193  0.130655  0.193009
    H   H11  0.457155  0.119979  0.622831  0.166673
    C   C30  0.522049  0.527425  0.829194  -0.434765
    H   H12  0.477353  0.581235  0.893990  0.151913
    H   H13  0.530319  0.581885  0.760303  0.130790
    H   H14  0.435583  0.454092  0.812603  0.112706
    C   C31  0.451323  0.585327  0.476401  -0.301521
    H   H15  0.557231  0.576547  0.524053  0.088121
    H   H16  0.343354  0.578939  0.522285  0.080596
    H   H17  0.450975  0.509410  0.420220  0.104246
