# generated using pymatgen
data_FeH16C34N3O11
_symmetry_space_group_name_H-M   'P 1'
_cell_length_a   14.27907900
_cell_length_b   23.65529800
_cell_length_c   13.36009100
_cell_angle_alpha   116.63689000
_cell_angle_beta   92.24494900
_cell_angle_gamma   76.32200700
_symmetry_Int_Tables_number   1
_chemical_formula_structural   FeH16C34N3O11
_chemical_formula_sum   'Fe2 H32 C68 N6 O22'
_cell_volume   3907.74010493
_cell_formula_units_Z   2
loop_
 _symmetry_equiv_pos_site_id
 _symmetry_equiv_pos_as_xyz
  1  'x, y, z'
loop_
 _atom_site_type_symbol
 _atom_site_label
 _atom_site_symmetry_multiplicity
 _atom_site_fract_x
 _atom_site_fract_y
 _atom_site_fract_z
 _atom_site_occupancy
  Fe  Fe1  1  0.51558900  0.00527000  0.29005700  1
  Fe  Fe2  1  0.48471800  0.98680900  0.71931000  1
  H  H1  1  0.85404500  0.05833700  0.38374600  1
  H  H2  1  0.81440400  0.89280900  0.64776000  1
  H  H3  1  0.99304800  0.88429300  0.63318800  1
  H  H4  1  0.15083000  0.92165700  0.61946100  1
  H  H5  1  0.32227500  0.97952000  0.97660500  1
  H  H6  1  0.18655800  0.09857100  0.36110000  1
  H  H7  1  0.67731400  0.01261500  0.03228100  1
  H  H8  1  0.07088100  0.94110900  0.93721000  1
  H  H9  1  0.92784900  0.05126700  0.07354400  1
  H  H10  1  0.21799000  0.31532100  0.81205600  1
  H  H11  1  0.22688000  0.50373400  0.78174500  1
  H  H12  1  0.65275700  0.79276500  0.52376100  1
  H  H13  1  0.97497000  0.72233400  0.62109100  1
  H  H14  1  0.07522000  0.64588800  0.66942500  1
  H  H15  1  0.13061800  0.58364400  0.73814700  1
  H  H16  1  0.37228200  0.20294300  0.49098400  1
  H  H17  1  0.08143100  0.26992800  0.35008000  1
  H  H18  1  0.86671700  0.41650600  0.29783400  1
  H  H19  1  0.71273800  0.76632600  0.14421200  1
  H  H20  1  0.76895400  0.49618700  0.25467900  1
  H  H21  1  0.78783500  0.67943100  0.19233000  1
  H  H22  1  0.98275100  0.34656100  0.30116400  1
  H  H23  1  0.30790000  0.31860700  0.98913900  1
  H  H24  1  0.41139800  0.25318100  0.90848300  1
  H  H25  1  0.39369500  0.19605400  0.02016800  1
  H  H26  1  0.40734400  0.27758800  0.10941700  1
  H  H27  1  0.28925300  0.26060100  0.09999700  1
  H  H28  1  0.92699200  0.18336500  0.36245100  1
  H  H29  1  0.02294300  0.20363200  0.45355200  1
  H  H30  1  0.93181900  0.19881000  0.60341900  1
  H  H31  1  0.86459300  0.25856100  0.56088200  1
  H  H32  1  0.83412300  0.18093300  0.51277500  1
  C  C1  1  0.75336800  0.94958000  0.82262200  1
  C  C2  1  0.82442400  0.91795400  0.73620600  1
  C  C3  1  0.90953500  0.92851200  0.78395800  1
  C  C4  1  0.79814300  0.97707400  0.92024000  1
  C  C5  1  0.99336300  0.90928200  0.72384100  1
  C  C6  1  0.08266300  0.92788400  0.76953900  1
  C  C7  1  0.15270700  0.93166900  0.70672400  1
  C  C8  1  0.22385500  0.95200500  0.77696600  1
  C  C9  1  0.19407500  0.95990600  0.88154700  1
  C  C10  1  0.24573400  0.98332100  0.98495500  1
  C  C11  1  0.20156400  0.01429500  0.08865700  1
  C  C12  1  0.24633400  0.04234800  0.18619800  1
  C  C13  1  0.17551600  0.07346600  0.27290300  1
  C  C14  1  0.09036800  0.06199200  0.22565400  1
  C  C15  1  0.00667100  0.07986100  0.28599000  1
  C  C16  1  0.92011600  0.05769600  0.23729900  1
  C  C17  1  0.85167900  0.05072400  0.29772800  1
  C  C18  1  0.77948700  0.03267900  0.22793000  1
  C  C19  1  0.80722300  0.02866300  0.12588900  1
  C  C20  1  0.75408100  0.00800100  0.02365700  1
  C  C21  1  0.69340500  0.02108200  0.26467600  1
  C  C22  1  0.60609800  0.88489500  0.27711300  1
  C  C23  1  0.34828600  0.04008200  0.20379400  1
  C  C24  1  0.42944800  0.09318100  0.50107700  1
  C  C25  1  0.24184800  0.37633000  0.67448800  1
  C  C26  1  0.18925500  0.29444200  0.52327400  1
  C  C27  1  0.35453200  0.20856400  0.57336900  1
  C  C28  1  0.38490200  0.15587500  0.59625900  1
  C  C29  1  0.30370700  0.22124700  0.78035100  1
  C  C30  1  0.26793500  0.27157000  0.75258300  1
  C  C31  1  0.29164000  0.26520400  0.64836500  1
  C  C32  1  0.13071500  0.40517600  0.55592700  1
  C  C33  1  0.18652900  0.42305900  0.64618600  1
  C  C34  1  0.18519600  0.48784200  0.70927500  1
  C  C35  1  0.13328400  0.34014700  0.49374700  1
  C  C36  1  0.35891700  0.16151800  0.70073300  1
  C  C37  1  0.64123600  0.83135200  0.30801000  1
  C  C38  1  0.01765800  0.56318800  0.55909000  1
  C  C39  1  0.94958200  0.47987600  0.41803200  1
  C  C40  1  0.95416200  0.54458800  0.47542700  1
  C  C41  1  0.02421300  0.62787600  0.60913000  1
  C  C42  1  0.96693300  0.67284200  0.58010100  1
  C  C43  1  0.90132300  0.65486900  0.50075000  1
  C  C44  1  0.89498400  0.59104100  0.44855200  1
  C  C45  1  0.82935300  0.57415800  0.36850100  1
  C  C46  1  0.77161200  0.62077600  0.34179600  1
  C  C47  1  0.84378500  0.70030100  0.47154900  1
  C  C48  1  0.66313500  0.78656900  0.43942700  1
  C  C49  1  0.62272900  0.83774600  0.41499600  1
  C  C50  1  0.69774200  0.77295600  0.22794500  1
  C  C51  1  0.73949400  0.72303400  0.25437400  1
  C  C52  1  0.72428900  0.73018000  0.36104900  1
  C  C53  1  0.07330400  0.51693600  0.59006500  1
  C  C54  1  0.07238700  0.45171300  0.52860900  1
  C  C55  1  0.01323700  0.43260700  0.44039400  1
  C  C56  1  0.12959500  0.53414600  0.68190300  1
  C  C57  1  0.07915200  0.32081000  0.40241700  1
  C  C58  1  0.88021400  0.46425900  0.34026200  1
  C  C59  1  0.82125900  0.51076400  0.31593300  1
  C  C60  1  0.02011200  0.36619600  0.37578600  1
  C  C61  1  0.65150600  0.95166100  0.80540500  1
  C  C62  1  0.57567000  0.90011000  0.50966900  1
  C  C63  1  0.30924000  0.96391300  0.73892300  1
  C  C64  1  0.38791200  0.10586800  0.72806500  1
  C  C65  1  0.34130000  0.26560500  0.95568500  1
  C  C66  1  0.35907400  0.24882200  0.05277400  1
  C  C67  1  0.96506600  0.17717300  0.43213800  1
  C  C68  1  0.89416800  0.20571000  0.53403500  1
  N  N1  1  0.89420700  0.96408800  0.89642400  1
  N  N2  1  0.10828500  0.94406500  0.87514000  1
  N  N3  1  0.10571400  0.02635300  0.11306100  1
  N  N4  1  0.89266300  0.04504700  0.13331900  1
  N  N5  1  0.24190200  0.31284900  0.61357300  1
  N  N6  1  0.77957000  0.68296000  0.39336100  1
  O  O1  1  0.61790400  0.01338700  0.20513100  1
  O  O2  1  0.64581200  0.88213300  0.18762000  1
  O  O3  1  0.69054600  0.02128400  0.36286600  1
  O  O4  1  0.53641500  0.93572800  0.33846300  1
  O  O5  1  0.40778300  0.98479800  0.18914200  1
  O  O6  1  0.37147400  0.09498000  0.26842900  1
  O  O7  1  0.49372400  0.09046400  0.43013800  1
  O  O8  1  0.39013000  0.04379500  0.47327400  1
  O  O9  1  0.29642900  0.39420100  0.76247600  1
  O  O10  1  0.85422100  0.76171500  0.51871200  1
  O  O11  1  0.18787900  0.23144700  0.46399200  1
  O  O12  1  0.70684400  0.60422100  0.26462800  1
  O  O13  1  0.59138300  0.00710200  0.82219200  1
  O  O14  1  0.62859300  0.89687300  0.73955500  1
  O  O15  1  0.50866300  0.90241400  0.57730000  1
  O  O16  1  0.61440600  0.94995500  0.54006800  1
  O  O17  1  0.33777700  0.10396700  0.80619900  1
  O  O18  1  0.38229000  0.97658800  0.80116300  1
  O  O19  1  0.46367400  0.05775900  0.67426000  1
  O  O20  1  0.31251300  0.96101700  0.63870100  1
  O  O21  1  0.27917100  0.23015400  0.88536400  1
  O  O22  1  0.00557400  0.11115400  0.40093700  1
