# generated using pymatgen
data_ZnH12C22BrNO4
_symmetry_space_group_name_H-M   'P 1'
_cell_length_a   13.39907600
_cell_length_b   8.55379000
_cell_length_c   13.43992100
_cell_angle_alpha   90.00000000
_cell_angle_beta   90.98468900
_cell_angle_gamma   90.00000000
_symmetry_Int_Tables_number   1
_chemical_formula_structural   ZnH12C22BrNO4
_chemical_formula_sum   'Zn2 H24 C44 Br2 N2 O8'
_cell_volume   1540.16060411
_cell_formula_units_Z   2
loop_
 _symmetry_equiv_pos_site_id
 _symmetry_equiv_pos_as_xyz
  1  'x, y, z'
loop_
 _atom_site_type_symbol
 _atom_site_label
 _atom_site_symmetry_multiplicity
 _atom_site_fract_x
 _atom_site_fract_y
 _atom_site_fract_z
 _atom_site_occupancy
  Zn  Zn1  1  0.88914900  0.52075500  0.50915300  1
  Zn  Zn2  1  0.11085200  0.52075300  0.49084600  1
  H  H1  1  0.00024900  0.27041700  0.83695800  1
  H  H2  1  0.99948500  0.77095500  0.16314300  1
  H  H3  1  0.99975100  0.27041700  0.16304200  1
  H  H4  1  0.00051500  0.77095500  0.83685700  1
  H  H5  1  0.04220300  0.02085600  0.56821900  1
  H  H6  1  0.95779700  0.02085600  0.43178100  1
  H  H7  1  0.24554100  0.54771100  0.63955800  1
  H  H8  1  0.75446000  0.54771100  0.36044200  1
  H  H9  1  0.39397800  0.53484900  0.73943000  1
  H  H10  1  0.53741100  0.69258200  0.31732500  1
  H  H11  1  0.60602200  0.53484900  0.26056900  1
  H  H12  1  0.46258900  0.69258200  0.68267500  1
  H  H13  1  0.51842400  0.34542100  0.68513800  1
  H  H14  1  0.42202700  0.50192300  0.24593200  1
  H  H15  1  0.48157600  0.34542100  0.31486200  1
  H  H16  1  0.57797300  0.50192300  0.75406800  1
  H  H17  1  0.26076400  0.23487400  0.30581300  1
  H  H18  1  0.19231900  0.20008100  0.13633700  1
  H  H19  1  0.16340000  0.69370900  0.10624800  1
  H  H20  1  0.23139300  0.72856500  0.27585300  1
  H  H21  1  0.73923600  0.23487400  0.69418700  1
  H  H22  1  0.80768100  0.20008100  0.86366300  1
  H  H23  1  0.83660000  0.69370900  0.89375200  1
  H  H24  1  0.76860700  0.72856500  0.72414700  1
  C  C1  1  0.01769300  0.16040000  0.69562500  1
  C  C2  1  0.98242500  0.88119700  0.30443800  1
  C  C3  1  0.98230700  0.16040000  0.30437500  1
  C  C4  1  0.01757600  0.88119600  0.69556100  1
  C  C5  1  0.00611800  0.16100600  0.79733700  1
  C  C6  1  0.99384800  0.88044600  0.20271700  1
  C  C7  1  0.99388200  0.16100600  0.20266300  1
  C  C8  1  0.00615300  0.88044600  0.79728300  1
  C  C9  1  0.00464200  0.02070200  0.84856600  1
  C  C10  1  0.99535900  0.02070200  0.15143400  1
  C  C11  1  0.02940500  0.02081500  0.64684000  1
  C  C12  1  0.97059600  0.02081500  0.35316000  1
  C  C13  1  0.00102800  0.02069000  0.95520300  1
  C  C14  1  0.99897200  0.02069000  0.04479700  1
  C  C15  1  0.01144700  0.73910400  0.63553800  1
  C  C16  1  0.98848700  0.30252100  0.36438200  1
  C  C17  1  0.98855400  0.73910400  0.36446200  1
  C  C18  1  0.01151300  0.30252100  0.63561800  1
  C  C19  1  0.29524100  0.50417600  0.39965200  1
  C  C20  1  0.70476000  0.50417600  0.60034800  1
  C  C21  1  0.28849100  0.53624900  0.57273400  1
  C  C22  1  0.71151000  0.53624900  0.42726600  1
  C  C23  1  0.39106100  0.53796300  0.58009100  1
  C  C24  1  0.60893900  0.53796300  0.41990900  1
  C  C25  1  0.44599300  0.52000600  0.49616500  1
  C  C26  1  0.55400800  0.52000600  0.50383500  1
  C  C27  1  0.39890200  0.50198700  0.40527800  1
  C  C28  1  0.60109800  0.50198700  0.59472200  1
  C  C29  1  0.44317100  0.56682700  0.67710500  1
  C  C30  1  0.55683000  0.56682700  0.32289500  1
  C  C31  1  0.53841700  0.47121400  0.68373400  1
  C  C32  1  0.46158300  0.47121400  0.31626600  1
  C  C33  1  0.24543200  0.48331000  0.30317300  1
  C  C34  1  0.23703600  0.33549500  0.26287500  1
  C  C35  1  0.19928400  0.31606600  0.16762600  1
  C  C36  1  0.17160300  0.44469000  0.11184700  1
  C  C37  1  0.18245000  0.59276000  0.15104900  1
  C  C38  1  0.21974100  0.61215300  0.24652200  1
  C  C39  1  0.75456800  0.48331000  0.69682700  1
  C  C40  1  0.76296500  0.33549500  0.73712500  1
  C  C41  1  0.80071600  0.31606600  0.83237400  1
  C  C42  1  0.82839700  0.44469000  0.88815300  1
  C  C43  1  0.81755100  0.59276000  0.84895100  1
  C  C44  1  0.78025900  0.61215300  0.75347800  1
  Br  Br1  1  0.12113100  0.41814000  0.97952900  1
  Br  Br2  1  0.87886900  0.41814000  0.02047100  1
  N  N1  1  0.24155200  0.52071700  0.48352600  1
  N  N2  1  0.75844800  0.52071700  0.51647400  1
  O  O1  1  0.09318600  0.69015900  0.59325800  1
  O  O2  1  0.90665600  0.35208400  0.40625100  1
  O  O3  1  0.90681400  0.69015900  0.40674200  1
  O  O4  1  0.09334400  0.35208400  0.59374900  1
  O  O5  1  0.92239500  0.68386700  0.61286500  1
  O  O6  1  0.07759400  0.35708200  0.38750200  1
  O  O7  1  0.07760500  0.68386800  0.38713500  1
  O  O8  1  0.92240600  0.35708100  0.61249800  1
