data_DB0-m18_o11_o110_f0_fsc_repeat
_audit_creation_date              2024-02-23
_audit_creation_method            'Materials Studio'
_symmetry_space_group_name_H-M    'P1'
_symmetry_Int_Tables_number       1
_symmetry_cell_setting            triclinic
loop_
_symmetry_equiv_pos_as_xyz
  x,y,z
_cell_length_a                    9.3111
_cell_length_b                    16.6482
_cell_length_c                    16.7847
_cell_angle_alpha                 90.0000
_cell_angle_beta                  98.8533
_cell_angle_gamma                 90.0000
loop_
_atom_site_label
_atom_site_type_symbol
_atom_site_fract_x
_atom_site_fract_y
_atom_site_fract_z
_atom_site_U_iso_or_equiv
_atom_site_adp_type
_atom_site_occupancy
O1     O     0.88779   0.91494   0.08199   0.00000  Uiso   1.00
O2     O     0.11221   0.91494   0.91801   0.00000  Uiso   1.00
O3     O     0.13417   0.90964   0.09042   0.00000  Uiso   1.00
O4     O     0.86583   0.90964   0.90958   0.00000  Uiso   1.00
C1     C     0.01363   0.88483   0.11404   0.00000  Uiso   1.00
C2     C     0.98638   0.88483   0.88596   0.00000  Uiso   1.00
Fe1    Fe    0.15801   0.99926   0.00541   0.00000  Uiso   1.00
Fe2    Fe    0.84199   0.99926   0.99459   0.00000  Uiso   1.00
O5     O     0.88983   0.08611   0.08526   0.00000  Uiso   1.00
O6     O     0.11017   0.08611   0.91474   0.00000  Uiso   1.00
O7     O     0.13573   0.08938   0.08956   0.00000  Uiso   1.00
O8     O     0.86427   0.08938   0.91044   0.00000  Uiso   1.00
C3     C     0.01743   0.11534   0.11518   0.00000  Uiso   1.00
C4     C     0.98257   0.11534   0.88482   0.00000  Uiso   1.00
C5     C     0.57871   0.06564   0.99883   0.00000  Uiso   1.00
C6     C     0.42129   0.06564   0.00117   0.00000  Uiso   1.00
N1     N     0.64716   0.99990   0.99105   0.00000  Uiso   1.00
N2     N     0.35284   0.99990   0.00895   0.00000  Uiso   1.00
H1     H     0.63673   0.12227   0.00369   0.00000  Uiso   1.00
H2     H     0.36327   0.12227   0.99631   0.00000  Uiso   1.00
H3     H     0.14138   0.42242   0.22872   0.00000  Uiso   1.00
H4     H     0.85862   0.42242   0.77129   0.00000  Uiso   1.00
C7     C     0.00389   0.75487   0.45942   0.00000  Uiso   1.00
C8     C     0.99611   0.75487   0.54058   0.00000  Uiso   1.00
C9     C     0.99259   0.67528   0.56350   0.00000  Uiso   1.00
C10    C     0.00741   0.67528   0.43650   0.00000  Uiso   1.00
N3     N     0.00000   0.62676   0.50000   0.00000  Uiso   1.00
C11    C     0.97773   0.65052   0.63768   0.00000  Uiso   1.00
C12    C     0.02227   0.65052   0.36232   0.00000  Uiso   1.00
C13    C     0.95597   0.56565   0.65891   0.00000  Uiso   1.00
C14    C     0.04403   0.56565   0.34109   0.00000  Uiso   1.00
C15    C     0.89891   0.54205   0.72644   0.00000  Uiso   1.00
C16    C     0.10109   0.54205   0.27356   0.00000  Uiso   1.00
C17    C     0.89659   0.45947   0.72603   0.00000  Uiso   1.00
C18    C     0.10341   0.45947   0.27397   0.00000  Uiso   1.00
C19    C     0.95233   0.43528   0.65827   0.00000  Uiso   1.00
C20    C     0.04767   0.43528   0.34173   0.00000  Uiso   1.00
N4     N     0.99103   0.50028   0.61835   0.00000  Uiso   1.00
N5     N     0.00897   0.50028   0.38165   0.00000  Uiso   1.00
C21    C     0.97071   0.35017   0.63671   0.00000  Uiso   1.00
C22    C     0.02929   0.35017   0.36329   0.00000  Uiso   1.00
C23    C     0.98893   0.32537   0.56303   0.00000  Uiso   1.00
C24    C     0.01107   0.32537   0.43697   0.00000  Uiso   1.00
C25    C     0.99364   0.24578   0.54028   0.00000  Uiso   1.00
C26    C     0.00636   0.24578   0.45973   0.00000  Uiso   1.00
N6     N     0.00000   0.37387   0.50000   0.00000  Uiso   1.00
H5     H     0.00940   0.80791   0.42286   0.00000  Uiso   1.00
H6     H     0.99060   0.80791   0.57714   0.00000  Uiso   1.00
H7     H     0.86289   0.57946   0.77204   0.00000  Uiso   1.00
H8     H     0.13712   0.57946   0.22796   0.00000  Uiso   1.00
H9     H     0.98593   0.19270   0.57649   0.00000  Uiso   1.00
H10    H     0.01407   0.19270   0.42352   0.00000  Uiso   1.00
H11    H     0.04910   0.50007   0.57031   0.00000  Uiso   1.00
H12    H     0.95090   0.50007   0.42970   0.00000  Uiso   1.00
C27    C     0.90110   0.25468   0.26692   0.00000  Uiso   1.00
C28    C     0.09890   0.25468   0.73308   0.00000  Uiso   1.00
H13    H     0.80139   0.27196   0.28786   0.00000  Uiso   1.00
H14    H     0.19861   0.27196   0.71214   0.00000  Uiso   1.00
C29    C     0.89780   0.19851   0.20659   0.00000  Uiso   1.00
C30    C     0.10220   0.19851   0.79341   0.00000  Uiso   1.00
C31    C     0.02456   0.17606   0.17902   0.00000  Uiso   1.00
C32    C     0.97544   0.17606   0.82098   0.00000  Uiso   1.00
C33    C     0.15504   0.21034   0.21301   0.00000  Uiso   1.00
C34    C     0.84496   0.21034   0.78699   0.00000  Uiso   1.00
H15    H     0.25542   0.19332   0.19271   0.00000  Uiso   1.00
H16    H     0.74458   0.19332   0.80729   0.00000  Uiso   1.00
C35    C     0.15778   0.26706   0.27346   0.00000  Uiso   1.00
C36    C     0.84222   0.26706   0.72654   0.00000  Uiso   1.00
H17    H     0.25985   0.29382   0.29989   0.00000  Uiso   1.00
H18    H     0.74014   0.29382   0.70011   0.00000  Uiso   1.00
C37    C     0.03041   0.28962   0.30003   0.00000  Uiso   1.00
C38    C     0.96959   0.28962   0.69997   0.00000  Uiso   1.00
C39    C     0.89322   0.74523   0.26472   0.00000  Uiso   1.00
C40    C     0.10678   0.74523   0.73528   0.00000  Uiso   1.00
H19    H     0.79304   0.72736   0.28478   0.00000  Uiso   1.00
H20    H     0.20696   0.72736   0.71522   0.00000  Uiso   1.00
C41    C     0.89054   0.80134   0.20423   0.00000  Uiso   1.00
C42    C     0.10946   0.80134   0.79577   0.00000  Uiso   1.00
H21    H     0.78730   0.82687   0.17810   0.00000  Uiso   1.00
H22    H     0.21270   0.82687   0.82190   0.00000  Uiso   1.00
C43    C     0.01807   0.82434   0.17790   0.00000  Uiso   1.00
C44    C     0.98193   0.82434   0.82210   0.00000  Uiso   1.00
C45    C     0.14844   0.79087   0.21322   0.00000  Uiso   1.00
C46    C     0.85156   0.79087   0.78678   0.00000  Uiso   1.00
H23    H     0.24951   0.80831   0.19397   0.00000  Uiso   1.00
H24    H     0.75049   0.80831   0.80603   0.00000  Uiso   1.00
C47    C     0.15060   0.73442   0.27372   0.00000  Uiso   1.00
C48    C     0.84940   0.73442   0.72628   0.00000  Uiso   1.00
H25    H     0.25268   0.70834   0.30111   0.00000  Uiso   1.00
H26    H     0.74732   0.70834   0.69889   0.00000  Uiso   1.00
C49    C     0.02273   0.71109   0.29905   0.00000  Uiso   1.00
C50    C     0.97727   0.71109   0.70095   0.00000  Uiso   1.00
H27    H     0.20571   0.17252   0.81833   0.00000  Uiso   1.00
H28    H     0.79429   0.17252   0.18167   0.00000  Uiso   1.00
