# generated using pymatgen
data_Zn3H29C51O12F
_symmetry_space_group_name_H-M   'P 1'
_cell_length_a   18.95150300
_cell_length_b   18.93518400
_cell_length_c   18.97882400
_cell_angle_alpha   109.32259200
_cell_angle_beta   109.79392800
_cell_angle_gamma   109.20321900
_symmetry_Int_Tables_number   1
_chemical_formula_structural   Zn3H29C51O12F
_chemical_formula_sum   'Zn6 H58 C102 O24 F2'
_cell_volume   5248.71856711
_cell_formula_units_Z   2
loop_
 _symmetry_equiv_pos_site_id
 _symmetry_equiv_pos_as_xyz
  1  'x, y, z'
loop_
 _atom_site_type_symbol
 _atom_site_label
 _atom_site_symmetry_multiplicity
 _atom_site_fract_x
 _atom_site_fract_y
 _atom_site_fract_z
 _atom_site_occupancy
  Zn  Zn1  1  0.50147000  0.42990300  0.43641700  1
  Zn  Zn2  1  0.50546800  0.57318000  0.57227000  1
  Zn  Zn3  1  0.92581900  0.42951400  0.00055700  1
  Zn  Zn4  1  0.06464300  0.56908300  0.00346700  1
  Zn  Zn5  1  0.93191600  0.00556900  0.43342600  1
  Zn  Zn6  1  0.06697000  0.00140000  0.57150300  1
  H  H1  1  0.71220700  0.41360800  0.61417900  1
  H  H2  1  0.72461800  0.36314100  0.74494700  1
  H  H3  1  0.80016500  0.40116100  0.71179300  1
  H  H4  1  0.79351100  0.55557600  0.67162500  1
  H  H5  1  0.89190000  0.55556100  0.77121700  1
  H  H6  1  0.68061000  0.58371500  0.80184700  1
  H  H7  1  0.61274400  0.47368200  0.75440500  1
  H  H8  1  0.71359000  0.46765600  0.85569000  1
  H  H9  1  0.78333600  0.58132400  0.90447800  1
  H  H10  1  0.89317000  0.63439500  0.85656700  1
  H  H11  1  0.15157800  0.18302500  0.22005900  1
  H  H12  1  0.45844900  0.43320600  0.67317600  1
  H  H13  1  0.46594800  0.44554300  0.80553300  1
  H  H14  1  0.34200800  0.34824500  0.80454600  1
  H  H15  1  0.21347700  0.23524800  0.67101200  1
  H  H16  1  0.07933900  0.05480300  0.34871900  1
  H  H17  1  0.05947900  0.05457400  0.21705600  1
  H  H18  1  0.26711500  0.30875000  0.35456400  1
  H  H19  1  0.45478000  0.51108500  0.16366800  1
  H  H20  1  0.26608800  0.46657700  0.42639900  1
  H  H21  1  0.15034600  0.47750600  0.44469400  1
  H  H22  1  0.05384200  0.50768900  0.35063500  1
  H  H23  1  0.06983800  0.52112500  0.23505300  1
  H  H24  1  0.20166200  0.46993800  0.04644900  1
  H  H25  1  0.32884500  0.48207500  0.03975600  1
  H  H26  1  0.45093700  0.52206100  0.29154400  1
  H  H27  1  0.83099500  0.53525200  0.45454100  1
  H  H28  1  0.54438700  0.70265100  0.47091400  1
  H  H29  1  0.54256900  0.83486100  0.49876700  1
  H  H30  1  0.66795600  0.96231900  0.53369200  1
  H  H31  1  0.79212100  0.95504200  0.53448700  1
  H  H32  1  0.91204400  0.76502500  0.44445000  1
  H  H33  1  0.92381600  0.63997500  0.43170500  1
  H  H34  1  0.72440000  0.55331400  0.48518900  1
  H  H35  1  0.01019000  0.16344600  0.95847700  1
  H  H36  1  0.96830000  0.42785900  0.76847400  1
  H  H37  1  0.98214700  0.44765900  0.65459100  1
  H  H38  1  0.01447900  0.35470500  0.56087000  1
  H  H39  1  0.02667900  0.23851200  0.57755700  1
  H  H40  1  0.96737900  0.04619400  0.70572500  1
  H  H41  1  0.97947100  0.03920100  0.83270900  1
  H  H42  1  0.02298600  0.29206900  0.95448400  1
  H  H43  1  0.70386200  0.56333700  0.04422300  1
  H  H44  1  0.15480100  0.69775100  0.24151700  1
  H  H45  1  0.28984000  0.82320200  0.35672500  1
  H  H46  1  0.29368500  0.95260900  0.44835000  1
  H  H47  1  0.16233600  0.95387300  0.42826600  1
  H  H48  1  0.83984200  0.77206300  0.29764900  1
  H  H49  1  0.70578600  0.65922300  0.16983600  1
  H  H50  1  0.83584000  0.57651000  0.04967400  1
  H  H51  1  0.79014100  0.65684000  0.63800200  1
  H  H52  1  0.81428600  0.80236000  0.67713200  1
  H  H53  1  0.83595000  0.84258900  0.91917400  1
  H  H54  1  0.81440900  0.69938300  0.88273900  1
  H  H55  1  0.58853700  0.34310800  0.72362100  1
  H  H56  1  0.44481700  0.21914800  0.63992400  1
  H  H57  1  0.45093800  0.17738700  0.40832600  1
  H  H58  1  0.59438300  0.30324000  0.49026400  1
  C  C1  1  0.38638800  0.38814300  0.51259900  1
  C  C2  1  0.62555000  0.50648500  0.62789000  1
  C  C3  1  0.61977800  0.61460100  0.49484400  1
  C  C4  1  0.38056700  0.49590100  0.38100900  1
  C  C5  1  0.68963400  0.41672400  0.66126800  1
  C  C6  1  0.75568100  0.41466000  0.73247400  1
  C  C7  1  0.78322900  0.57417000  0.72753200  1
  C  C8  1  0.67813200  0.52116200  0.77423500  1
  C  C9  1  0.69246800  0.50457600  0.69722300  1
  C  C10  1  0.80718800  0.50150400  0.81447500  1
  C  C11  1  0.85083300  0.57123400  0.79634300  1
  C  C12  1  0.74613100  0.51893600  0.84350700  1
  C  C13  1  0.40207900  0.38848600  0.66857500  1
  C  C14  1  0.40773500  0.39560000  0.74495200  1
  C  C15  1  0.33871300  0.34087400  0.74436700  1
  C  C16  1  0.26595300  0.27544800  0.66721700  1
  C  C17  1  0.26120000  0.26396400  0.58903500  1
  C  C18  1  0.32722600  0.32527700  0.58998500  1
  C  C19  1  0.19146200  0.19267200  0.51055900  1
  C  C20  1  0.18559300  0.18684600  0.43339800  1
  C  C21  1  0.24476000  0.25476600  0.43477500  1
  C  C22  1  0.31802400  0.32244600  0.51286700  1
  C  C23  1  0.12145100  0.11330000  0.35414600  1
  C  C24  1  0.11031000  0.11161800  0.27809500  1
  C  C25  1  0.16217900  0.18310200  0.27975100  1
  C  C26  1  0.22918000  0.25409400  0.35728700  1
  C  C27  1  0.22607100  0.48031900  0.38333700  1
  C  C28  1  0.15913800  0.48501800  0.39372500  1
  C  C29  1  0.10484900  0.50129100  0.34079500  1
  C  C30  1  0.11395800  0.50745400  0.27390600  1
  C  C31  1  0.17838800  0.49792000  0.25936000  1
  C  C32  1  0.23919900  0.49118600  0.31887800  1
  C  C33  1  0.18299200  0.49592900  0.18694000  1
  C  C34  1  0.25209500  0.49268800  0.17785700  1
  C  C35  1  0.31914600  0.49850800  0.24370100  1
  C  C36  1  0.31176400  0.49489100  0.31329300  1
  C  C37  1  0.25507600  0.48315600  0.10310100  1
  C  C38  1  0.32699800  0.48851200  0.09776600  1
  C  C39  1  0.39712900  0.50411000  0.16676600  1
  C  C40  1  0.39343400  0.50882100  0.23914500  1
  C  C41  1  0.60216400  0.75702000  0.48794300  1
  C  C42  1  0.59937000  0.83177200  0.50170000  1
  C  C43  1  0.66913000  0.90276800  0.52054300  1
  C  C44  1  0.73936200  0.89728600  0.51969400  1
  C  C45  1  0.74109300  0.82050800  0.50118500  1
  C  C46  1  0.67531600  0.75215500  0.49281100  1
  C  C47  1  0.80770400  0.81174300  0.49134800  1
  C  C48  1  0.80914200  0.73509400  0.47520400  1
  C  C49  1  0.75023300  0.67139000  0.47891900  1
  C  C50  1  0.68255200  0.67976900  0.48811100  1
  C  C51  1  0.86945300  0.72137500  0.45521600  1
  C  C52  1  0.87617700  0.64934600  0.44643900  1
  C  C53  1  0.82392100  0.59059400  0.45856600  1
  C  C54  1  0.76152800  0.60113100  0.47452100  1
  C  C55  1  0.99433500  0.37979300  0.88176000  1
  C  C56  1  0.87466400  0.50038500  0.88322600  1
  C  C57  1  0.99637300  0.61897400  0.12254800  1
  C  C58  1  0.11587300  0.49809600  0.12073400  1
  C  C59  1  0.00175700  0.88497800  0.38421400  1
  C  C60  1  0.12316600  0.12462600  0.50862800  1
  C  C61  1  0.99679900  0.12156000  0.62056100  1
  C  C62  1  0.87579400  0.88237400  0.49629000  1
  C  C63  1  0.98278900  0.38516300  0.72961900  1
  C  C64  1  0.98914300  0.39642700  0.66368600  1
  C  C65  1  0.00658100  0.34411100  0.61093900  1
  C  C66  1  0.01190200  0.27681600  0.62032400  1
  C  C67  1  0.00036100  0.26129800  0.68350900  1
  C  C68  1  0.99308100  0.32037900  0.74316000  1
  C  C69  1  0.99659000  0.18816300  0.68791200  1
  C  C70  1  0.99251000  0.17835300  0.75630800  1
  C  C71  1  0.99886300  0.24418800  0.82287600  1
  C  C72  1  0.99557000  0.31379600  0.81487900  1
  C  C73  1  0.98152500  0.10305500  0.75908400  1
  C  C74  1  0.98670900  0.09750600  0.83086600  1
  C  C75  1  0.00329700  0.16670100  0.90089600  1
  C  C76  1  0.00898800  0.23945800  0.89709600  1
  C  C77  1  0.15250200  0.75291000  0.27928400  1
  C  C78  1  0.23030100  0.82372700  0.34606400  1
  C  C79  1  0.23242000  0.89579400  0.39764100  1
  C  C80  1  0.15655500  0.89495800  0.38641500  1
  C  C81  1  0.07703800  0.82156600  0.32262400  1
  C  C82  1  0.07524100  0.75301200  0.26375600  1
  C  C83  1  0.99994900  0.81624100  0.31685100  1
  C  C84  1  0.92124400  0.74448700  0.24804000  1
  C  C85  1  0.91986300  0.68318900  0.18170300  1
  C  C86  1  0.99688600  0.68555600  0.19071900  1
  C  C87  1  0.84325800  0.73246600  0.24447800  1
  C  C88  1  0.76579500  0.66700300  0.17217300  1
  C  C89  1  0.76469800  0.61304600  0.10226500  1
  C  C90  1  0.84093500  0.62052800  0.10686400  1
  C  C91  1  0.79630200  0.66440600  0.75490000  1
  C  C92  1  0.79896200  0.69629700  0.69944400  1
  C  C93  1  0.81275800  0.77864500  0.72144800  1
  C  C94  1  0.82493100  0.83088800  0.79985400  1
  C  C95  1  0.82481600  0.80114100  0.85681800  1
  C  C96  1  0.81148200  0.71898300  0.83510800  1
  C  C97  1  0.60120800  0.33722700  0.61326900  1
  C  C98  1  0.55888500  0.31013300  0.65434400  1
  C  C99  1  0.47759700  0.23856700  0.60721400  1
  C  C100  1  0.43811600  0.19169800  0.51879800  1
  C  C101  1  0.48112400  0.21500300  0.47766800  1
  C  C102  1  0.56240800  0.28652000  0.52454800  1
  O  O1  1  0.41357500  0.36139300  0.45954100  1
  O  O2  1  0.41550100  0.47029000  0.56272800  1
  O  O3  1  0.59778500  0.45513500  0.54654600  1
  O  O4  1  0.59556200  0.55804300  0.65095700  1
  O  O5  1  0.58671200  0.53261500  0.44160900  1
  O  O6  1  0.59695200  0.64125100  0.55232000  1
  O  O7  1  0.40731000  0.44101700  0.35784600  1
  O  O8  1  0.41265900  0.55184200  0.46217900  1
  O  O9  1  0.93829500  0.35454100  0.90626000  1
  O  O10  1  0.04953300  0.46127700  0.91458200  1
  O  O11  1  0.84982900  0.44589500  0.90974200  1
  O  O12  1  0.95628400  0.55327000  0.91347400  1
  O  O13  1  0.94368100  0.53731200  0.09228800  1
  O  O14  1  0.04949200  0.64419900  0.09506000  1
  O  O15  1  0.03420600  0.44274600  0.08784000  1
  O  O16  1  0.14037400  0.55508700  0.09675200  1
  O  O17  1  0.95099900  0.91601800  0.36067600  1
  O  O18  1  0.05273100  0.91122000  0.46534000  1
  O  O19  1  0.04222200  0.09994900  0.45823600  1
  O  O20  1  0.14552600  0.09072900  0.55657400  1
  O  O21  1  0.94227000  0.09180000  0.53944000  1
  O  O22  1  0.05147400  0.09450200  0.64422800  1
  O  O23  1  0.85316200  0.91249200  0.44445300  1
  O  O24  1  0.95671100  0.91044700  0.55047300  1
  F  F1  1  0.83825900  0.91173100  0.82142300  1
  F  F2  1  0.35783300  0.12197700  0.47257300  1
