# Generated by REPEAT Assigner based on pymatgen
data_DB0-m29_o88_o109_f0_pts.sym.73
_audit_creation_date              2022-05-24
_audit_creation_method            REPEAT_Assigner
_cell_length_a                    15.451515
_cell_length_b                    11.605558
_cell_length_c                    15.929615
_cell_angle_alpha                 89.338402
_cell_angle_beta                  103.365928
_cell_angle_gamma                 98.882625
_cell_volume                      2744.981628
_symmetry_space_group_name_H-M    P1
_symmetry_Int_Tables_number       1
loop_
    _symmetry_equiv_pos_site_id
    _symmetry_equiv_pos_as_xyz
    1  x,y,z
loop_
    _atom_site_type_symbol
    _atom_site_label
    _atom_site_fract_x
    _atom_site_fract_y
    _atom_site_fract_z
    _atom_type_partial_charge
    C   C1   0.808388  0.989802  0.156473  0.061596
    C   C2   0.890619  0.987210  0.137523  -0.308552
    H   H1   0.949674  0.988554  0.189679  0.148736
    C   C3   0.898312  0.983384  0.053288  0.314894
    C   C4   0.821612  0.979232  0.987517  -0.284373
    H   H2   0.826054  0.970448  0.921546  0.175842
    C   C5   0.737922  0.980971  0.005040  0.021273
    C   C6   0.731304  0.986173  0.090864  0.002456
    C   C7   0.988226  0.979448  0.037273  -0.219634
    C   C8   0.010088  0.008634  0.962190  -0.205198
    H   H3   0.037814  0.952438  0.090325  0.164566
    H   H4   0.960725  0.035456  0.908907  0.164280
    C   C9   0.108466  0.000383  0.862868  -0.297726
    H   H5   0.048951  0.994140  0.810724  0.134526
    C   C10  0.191670  0.005869  0.844101  0.053666
    C   C11  0.269138  0.016486  0.910125  -0.026964
    C   C12  0.261741  0.021320  0.995829  0.013621
    C   C13  0.177333  0.018273  0.012850  -0.272137
    H   H6   0.172084  0.028041  0.078520  0.173064
    C   C14  0.100477  0.006957  0.946836  0.309687
    O   O1   0.532433  0.137940  0.775223  -0.622785
    C   C15  0.492663  0.150891  0.694171  0.578326
    O   O2   0.413767  0.122802  0.903589  -0.507167
    O   O3   0.439121  0.063317  0.648854  -0.476476
    O   O4   0.376593  0.938099  0.847156  -0.600905
    C   C16  0.356713  0.025027  0.887564  0.652238
    Fe  Fe1  0.496459  0.983544  0.821522  1.431224
    O   O5   0.577606  0.976927  0.939073  -0.449487
    O   O6   0.674564  0.986077  0.852242  -0.500889
    C   C17  0.660374  0.980191  0.930385  0.517501
    O   O7   0.503324  0.876238  0.726167  -0.544965
    O   O8   0.508655  0.750410  0.836374  -0.507554
    C   C18  0.508786  0.770492  0.755173  0.552171
    O   O9   0.498273  0.128466  0.274572  -0.554807
    O   O10  0.493464  0.254223  0.164353  -0.518273
    C   C19  0.493543  0.234311  0.245618  0.567274
    O   O11  0.421713  0.025983  0.062128  -0.463773
    O   O12  0.325189  0.022511  0.149029  -0.502565
    C   C20  0.339278  0.025376  0.070843  0.525341
    O   O13  0.567828  0.940703  0.350233  -0.468319
    O   O14  0.623291  0.066009  0.151969  -0.552728
    C   C21  0.644290  0.977485  0.114322  0.563301
    O   O15  0.469094  0.866434  0.226544  -0.593969
    C   C22  0.511745  0.853649  0.306714  0.545841
    O   O16  0.588329  0.878654  0.100774  -0.496844
    Fe  Fe2  0.504183  0.020478  0.179177  1.425373
    C   C23  0.490476  0.330703  0.303424  0.048847
    C   C24  0.484286  0.439908  0.271116  -0.179316
    C   C25  0.488793  0.532697  0.325594  0.215638
    C   C26  0.488166  0.641478  0.290960  -0.240694
    C   C27  0.502744  0.737990  0.343941  0.130122
    C   C28  0.496143  0.313841  0.390284  -0.122633
    C   C29  0.496304  0.406221  0.446159  0.033719
    C   C30  0.496246  0.517672  0.413314  -0.036624
    C   C31  0.504702  0.614505  0.467076  0.089153
    C   C32  0.492612  0.279904  0.569937  -0.169804
    C   C33  0.500152  0.390596  0.534258  0.087440
    C   C34  0.508286  0.487385  0.587981  -0.032773
    C   C35  0.502097  0.266920  0.657364  0.127955
    C   C36  0.515989  0.363427  0.710317  -0.221238
    C   C37  0.512642  0.725207  0.431431  -0.176386
    C   C38  0.508212  0.598849  0.555108  0.034437
    C   C39  0.507764  0.691178  0.610785  -0.121581
    C   C40  0.515316  0.472286  0.675647  0.192613
    C   C41  0.519169  0.565073  0.729964  -0.163241
    C   C42  0.512788  0.674270  0.697556  0.044382
    H   H7   0.503959  0.227594  0.412351  0.167786
    H   H8   0.478399  0.200426  0.532095  0.104882
    H   H9   0.527320  0.804748  0.469299  0.117647
    H   H10  0.499789  0.777326  0.588520  0.168061
    H   H11  0.479469  0.454654  0.203229  0.146482
    H   H12  0.482636  0.651548  0.222490  0.195526
    H   H13  0.521078  0.353328  0.778722  0.189730
    H   H14  0.523540  0.550281  0.797783  0.140610
    C   C43  0.803829  0.988778  0.247128  0.251807
    C   C44  0.799831  0.090546  0.289132  -0.292981
    C   C45  0.799527  0.089929  0.375649  0.036327
    C   C46  0.804164  0.987898  0.420528  -0.053895
    Br  Br1  0.804298  0.987110  0.540218  -0.071687
    C   C47  0.809427  0.886570  0.378960  0.000140
    C   C48  0.809766  0.887150  0.292476  -0.279072
    H   H15  0.797411  0.170975  0.254366  0.156061
    H   H16  0.796134  0.169598  0.408397  0.081429
    H   H17  0.813683  0.806746  0.414266  0.088239
    H   H18  0.814608  0.807772  0.260195  0.139687
    C   C49  0.195636  0.005870  0.753107  0.281270
    C   C50  0.235553  0.103915  0.718251  -0.325453
    C   C51  0.233826  0.105897  0.631313  0.038456
    C   C52  0.192165  0.010120  0.578871  -0.042109
    Br  Br2  0.189822  0.013044  0.458711  -0.074774
    C   C53  0.151364  0.912730  0.613221  -0.008579
    C   C54  0.152379  0.911000  0.700013  -0.255165
    H   H19  0.266845  0.180185  0.758645  0.140590
    H   H20  0.264898  0.182817  0.604200  0.075430
    H   H21  0.117991  0.837972  0.571986  0.086206
    H   H22  0.119476  0.834812  0.726425  0.136620
