# Generated by REPEAT Assigner based on pymatgen
data_DB0-m3_o4_o15_f0_nbo.sym.103
_audit_creation_date              2022-05-24
_audit_creation_method            REPEAT_Assigner
_cell_length_a                    18.899900
_cell_length_b                    19.004931
_cell_length_c                    19.005469
_cell_angle_alpha                 109.579659
_cell_angle_beta                  109.359123
_cell_angle_gamma                 109.357960
_cell_volume                      5262.668057
_symmetry_space_group_name_H-M    P1
_symmetry_Int_Tables_number       1
loop_
    _symmetry_equiv_pos_site_id
    _symmetry_equiv_pos_as_xyz
    1  x,y,z
loop_
    _atom_site_type_symbol
    _atom_site_label
    _atom_site_fract_x
    _atom_site_fract_y
    _atom_site_fract_z
    _atom_type_partial_charge
    O   O1   0.406318  0.346313  0.438629  -0.684224
    O   O2   0.399772  0.448437  0.540384  -0.667946
    C   C1   0.374110  0.368292  0.488439  0.692290
    O   O3   0.589120  0.436633  0.526218  -0.673479
    O   O4   0.581706  0.533525  0.631846  -0.681102
    C   C2   0.613908  0.484550  0.607366  0.746668
    Zn  Zn1  0.496182  0.421195  0.421081  1.268677
    Zn  Zn2  0.494234  0.555705  0.560596  1.277912
    O   O5   0.588995  0.528542  0.439545  -0.607862
    O   O6   0.585557  0.630579  0.544573  -0.685686
    O   O7   0.407201  0.441765  0.349533  -0.686788
    O   O8   0.402916  0.542043  0.455570  -0.661363
    C   C3   0.616202  0.608708  0.493221  0.528041
    C   C4   0.376870  0.492480  0.374496  0.697132
    H   H1   0.540025  0.191443  0.540823  0.075101
    C   C5   0.767079  0.640417  0.747647  -0.281412
    C   C6   0.833445  0.717052  0.819959  -0.060130
    C   C7   0.886941  0.717031  0.889276  -0.089162
    C   C8   0.877662  0.640429  0.884354  -0.242012
    C   C9   0.813736  0.562235  0.809722  0.134650
    C   C10  0.753621  0.562141  0.743517  0.206050
    C   C11  0.808999  0.484768  0.801158  -0.180427
    C   C12  0.740329  0.407147  0.728610  0.137997
    C   C13  0.674129  0.406865  0.668126  0.162604
    C   C14  0.681665  0.484435  0.673983  -0.254557
    C   C15  0.737023  0.329178  0.715199  -0.240363
    C   C16  0.665803  0.252392  0.647565  -0.084291
    C   C17  0.596837  0.251958  0.592724  -0.045620
    C   C18  0.600654  0.328365  0.602640  -0.230700
    H   H2   0.727898  0.644651  0.694897  0.191088
    H   H3   0.842439  0.777312  0.822692  0.090593
    H   H4   0.937512  0.777255  0.947216  0.097687
    H   H5   0.921204  0.644590  0.941192  0.179636
    H   H6   0.789595  0.325406  0.755592  0.176614
    H   H7   0.663450  0.192230  0.638381  0.094556
    H   H8   0.543933  0.323777  0.558182  0.155406
    C   C19  0.297654  0.221419  0.465792  0.066934
    C   C20  0.305221  0.300842  0.485518  -0.049902
    C   C21  0.244787  0.315383  0.504748  -0.177163
    H   H9   0.246738  0.376370  0.520027  0.152699
    C   C22  0.179791  0.251119  0.502780  -0.186933
    H   H10  0.132871  0.263299  0.517131  0.150885
    C   C23  0.176983  0.173098  0.485761  -0.047310
    C   C24  0.238338  0.161993  0.468130  0.113631
    C   C25  0.267378  0.098542  0.444802  -0.145978
    C   C26  0.337703  0.168660  0.442825  -0.122464
    H   H11  0.294559  0.086476  0.498051  0.067918
    H   H12  0.218876  0.041009  0.380342  0.070232
    H   H13  0.403734  0.195796  0.495430  0.071021
    H   H14  0.329115  0.150084  0.377438  0.070082
    C   C27  0.297317  0.464190  0.226325  0.162608
    C   C28  0.310978  0.494126  0.308766  -0.123326
    C   C29  0.258872  0.525971  0.326764  -0.115787
    H   H15  0.265785  0.549728  0.390245  0.132134
    C   C30  0.195087  0.525169  0.262464  -0.229596
    H   H16  0.153824  0.548464  0.276842  0.153104
    C   C31  0.185252  0.496057  0.180685  -0.051171
    C   C32  0.239243  0.467154  0.166514  0.089005
    C   C33  0.257429  0.427041  0.098135  -0.108331
    C   C34  0.325968  0.423576  0.168440  -0.171003
    H   H17  0.202237  0.362447  0.045735  0.056432
    H   H18  0.286571  0.472422  0.078301  0.062646
    H   H19  0.308994  0.357005  0.155069  0.078408
    H   H20  0.393275  0.466640  0.187490  0.053074
    C   C35  0.696027  0.661824  0.425209  -0.262283
    C   C36  0.682364  0.676881  0.494146  0.184964
    C   C37  0.734679  0.759864  0.564756  -0.220968
    H   H21  0.726773  0.775855  0.620806  0.163748
    C   C38  0.799905  0.822734  0.565404  -0.245460
    H   H22  0.840685  0.886728  0.621097  0.182320
    C   C39  0.812447  0.803776  0.494933  0.005971
    C   C40  0.757993  0.722018  0.426151  0.178244
    C   C41  0.743226  0.664276  0.341175  -0.373572
    C   C42  0.669955  0.593335  0.339639  0.470430
    H   H23  0.722000  0.684122  0.293224  0.103870
    H   H24  0.798193  0.652684  0.347584  0.107923
    H   H25  0.682769  0.541131  0.342230  0.008776
    O   O9   0.945717  0.347308  0.901674  -0.684389
    O   O10  0.054539  0.449481  0.902324  -0.644998
    C   C43  0.000392  0.369286  0.874381  0.653449
    O   O11  0.852501  0.437160  0.901535  -0.675472
    O   O12  0.957715  0.534234  0.893725  -0.675160
    C   C44  0.876351  0.485076  0.868501  0.697405
    Zn  Zn3  0.928872  0.422014  0.992371  1.282914
    Zn  Zn4  0.066571  0.556754  0.988537  1.276757
    O   O13  0.942525  0.529296  0.080378  -0.654106
    O   O14  0.048324  0.631528  0.077722  -0.682579
    O   O15  0.037603  0.442997  0.085957  -0.705995
    O   O16  0.143161  0.543334  0.080933  -0.687755
    C   C45  0.995235  0.609427  0.106599  0.679851
    C   C46  0.118744  0.493974  0.112372  0.756825
    O   O17  0.050318  0.077162  0.632724  -0.694625
    O   O18  0.942698  0.079165  0.531571  -0.668967
    C   C47  0.997326  0.106292  0.611495  0.723796
    O   O19  0.136577  0.073959  0.534481  -0.699369
    O   O20  0.030073  0.082266  0.439168  -0.682243
    C   C48  0.111312  0.106163  0.486205  0.723672
    Zn  Zn5  0.065477  0.986143  0.556266  1.297823
    Zn  Zn6  0.924747  0.988569  0.423003  1.288926
    O   O21  0.044390  0.892564  0.447747  -0.671779
    O   O22  0.943133  0.900736  0.346645  -0.684749
    O   O23  0.960207  0.895552  0.543460  -0.704126
    O   O24  0.853431  0.897741  0.441609  -0.702965
    C   C49  0.993142  0.868589  0.367885  0.715123
    C   C50  0.878737  0.868553  0.493008  0.740572
    C   C51  0.931280  0.220517  0.754137  0.105072
    C   C52  0.001716  0.301670  0.809826  -0.037534
    C   C53  0.074492  0.317581  0.800563  -0.184742
    H   H26  0.132465  0.379936  0.842961  0.144187
    C   C54  0.074286  0.253154  0.737414  -0.177533
    H   H27  0.131511  0.266520  0.731311  0.148298
    C   C55  0.000231  0.173263  0.680437  -0.044701
    C   C56  0.930099  0.160650  0.691778  0.076809
    C   C57  0.839554  0.095355  0.656685  -0.125989
    C   C58  0.840633  0.165860  0.729659  -0.143521
    H   H28  0.796082  0.080232  0.591283  0.066757
    H   H29  0.835086  0.039718  0.665861  0.062350
    H   H30  0.798006  0.190087  0.704758  0.067559
    H   H31  0.836212  0.149434  0.779365  0.072870
    C   C59  0.997314  0.674460  0.243790  0.093326
    C   C60  0.995154  0.677081  0.172034  -0.018417
    C   C61  0.991383  0.746034  0.164269  -0.249423
    H   H32  0.988896  0.751028  0.108591  0.162356
    C   C62  0.987902  0.807682  0.226676  -0.119227
    H   H33  0.983995  0.860429  0.219187  0.143826
    C   C63  0.992573  0.803233  0.299470  -0.114554
    C   C64  0.998639  0.735296  0.305148  0.130995
    C   C65  0.004337  0.695462  0.360376  -0.145064
    C   C66  0.003271  0.624052  0.288282  -0.174729
    H   H34  0.066990  0.735064  0.421517  0.074235
    H   H35  0.945236  0.671961  0.365564  0.071035
    H   H36  0.065485  0.624129  0.309150  0.088455
    H   H37  0.943722  0.560624  0.253408  0.075166
    N   N1   0.583885  0.561610  0.272172  -0.782507
    C   C67  0.558569  0.623486  0.269790  0.654050
    C   C68  0.556926  0.647715  0.208529  -0.278683
    C   C69  0.526619  0.703197  0.201626  -0.108502
    C   C70  0.495071  0.732634  0.253898  -0.135067
    C   C71  0.492583  0.705422  0.312133  -0.106507
    C   C72  0.523321  0.650336  0.319386  -0.330410
    H   H38  0.574836  0.523053  0.213308  0.288192
    H   H39  0.580079  0.623946  0.166033  0.110306
    H   H40  0.526883  0.722994  0.154578  0.110074
    H   H41  0.470733  0.775641  0.248035  0.106016
    H   H42  0.465444  0.726356  0.351398  0.104027
    H   H43  0.517381  0.626518  0.362417  0.221920
