# generated using pymatgen
data_V4H33C62NO20
_symmetry_space_group_name_H-M   'P 1'
_cell_length_a   6.32608300
_cell_length_b   16.33271100
_cell_length_c   18.76325500
_cell_angle_alpha   110.01464800
_cell_angle_beta   90.73251200
_cell_angle_gamma   90.82229000
_symmetry_Int_Tables_number   1
_chemical_formula_structural   V4H33C62NO20
_chemical_formula_sum   'V4 H33 C62 N1 O20'
_cell_volume   1821.06292201
_cell_formula_units_Z   1
loop_
 _symmetry_equiv_pos_site_id
 _symmetry_equiv_pos_as_xyz
  1  'x, y, z'
loop_
 _atom_site_type_symbol
 _atom_site_label
 _atom_site_symmetry_multiplicity
 _atom_site_fract_x
 _atom_site_fract_y
 _atom_site_fract_z
 _atom_site_occupancy
  V  V1  1  0.01726900  0.47123200  0.48929000  1
  V  V2  1  0.51808200  0.49217000  0.49303400  1
  V  V3  1  0.62357600  0.99201400  0.99300200  1
  V  V4  1  0.12259800  0.97089200  0.98929300  1
  H  H1  1  0.57523600  0.92742200  0.19478700  1
  H  H2  1  0.08356400  0.77969100  0.07070600  1
  H  H3  1  0.22080100  0.66185800  0.10421500  1
  H  H4  1  0.21277500  0.57054600  0.18471800  1
  H  H5  1  0.06515200  0.53581100  0.28754300  1
  H  H6  1  0.55678900  0.68352600  0.41162700  1
  H  H7  1  0.41958800  0.80137300  0.37813300  1
  H  H8  1  0.42762700  0.89269700  0.29763700  1
  H  H9  1  0.78090200  0.77829100  0.63210600  1
  H  H10  1  0.50269700  0.81720800  0.75570600  1
  H  H11  1  0.51731100  0.64076600  0.74565100  1
  H  H12  1  0.86029400  0.68465700  0.85026700  1
  H  H13  1  0.13850000  0.64573800  0.72665900  1
  H  H14  1  0.12388200  0.82218600  0.73672300  1
  H  H15  1  0.38540100  0.10078800  0.27120200  1
  H  H16  1  0.65111400  0.25031600  0.31245000  1
  H  H17  1  0.60632300  0.25252900  0.16311100  1
  H  H18  1  0.25581300  0.36252500  0.21105000  1
  H  H19  1  0.99012500  0.21299500  0.16981700  1
  H  H20  1  0.03492500  0.21079100  0.31915000  1
  H  H21  1  0.60861900  0.04474300  0.78838100  1
  H  H22  1  0.07877900  0.17542700  0.91116700  1
  H  H23  1  0.91633000  0.28872400  0.87751900  1
  H  H24  1  0.90076200  0.38004700  0.79714000  1
  H  H25  1  0.03375800  0.41907700  0.69448600  1
  H  H26  1  0.56204700  0.28770000  0.57085900  1
  H  H27  1  0.71998200  0.17350300  0.60302300  1
  H  H28  1  0.71668400  0.00815000  0.68079800  1
  H  H29  1  0.89112400  0.92635500  0.57239700  1
  H  H30  1  0.14537600  0.91997100  0.47266400  1
  H  H31  1  0.31836600  0.05449800  0.46952200  1
  H  H32  1  0.23925100  0.19525700  0.56675600  1
  H  H33  1  0.98673000  0.20163200  0.66690300  1
  C  C1  1  0.30823300  0.37497100  0.37299500  1
  C  C2  1  0.27811000  0.41167800  0.57898500  1
  C  C3  1  0.78553300  0.58824200  0.60949400  1
  C  C4  1  0.81277800  0.55128500  0.40337900  1
  C  C5  1  0.68630500  0.87527600  0.18556700  1
  C  C6  1  0.83025000  0.85932300  0.12802500  1
  C  C7  1  0.97124800  0.79251300  0.11598700  1
  C  C8  1  0.96731500  0.74147100  0.16132400  1
  C  C9  1  0.82258300  0.75727000  0.21864800  1
  C  C10  1  0.68239600  0.82431100  0.23086000  1
  C  C11  1  0.10740300  0.67433900  0.14912900  1
  C  C12  1  0.10278200  0.62310600  0.19422700  1
  C  C13  1  0.95795500  0.63891300  0.25147300  1
  C  C14  1  0.81775500  0.70594800  0.26368400  1
  C  C15  1  0.67302700  0.72174400  0.32100800  1
  C  C16  1  0.53296700  0.78888700  0.33321100  1
  C  C17  1  0.53759700  0.84012800  0.28811700  1
  C  C18  1  0.95405700  0.58794800  0.29676400  1
  C  C19  1  0.81012600  0.60389300  0.35430900  1
  C  C20  1  0.66909700  0.67069800  0.36634500  1
  C  C21  1  0.64671200  0.77741800  0.74819800  1
  C  C22  1  0.79866800  0.75808400  0.68255700  1
  C  C23  1  0.80742900  0.66503700  0.68012600  1
  C  C24  1  0.65505400  0.68306900  0.74457600  1
  C  C25  1  0.84252900  0.70486600  0.79981800  1
  C  C26  1  0.99448400  0.68553000  0.73417100  1
  C  C27  1  0.98613800  0.77988200  0.73779800  1
  C  C28  1  0.83375300  0.79791200  0.80224700  1
  C  C29  1  0.50129900  0.24086700  0.27902000  1
  C  C30  1  0.35524600  0.16112200  0.25847200  1
  C  C31  1  0.33046300  0.16557800  0.17990800  1
  C  C32  1  0.47648100  0.24402700  0.19927500  1
  C  C33  1  0.28599500  0.30219800  0.22378900  1
  C  C34  1  0.13994700  0.22245400  0.20324300  1
  C  C35  1  0.16476400  0.21929300  0.28298600  1
  C  C36  1  0.31077700  0.29774300  0.30235400  1
  C  C37  1  0.48735500  0.09295500  0.79707800  1
  C  C38  1  0.34422700  0.10413900  0.85434500  1
  C  C39  1  0.19052300  0.16617600  0.86610200  1
  C  C40  1  0.18158400  0.21731200  0.82084500  1
  C  C41  1  0.32569200  0.20625100  0.76381000  1
  C  C42  1  0.47814300  0.14377500  0.75170800  1
  C  C43  1  0.02920000  0.27989700  0.83286100  1
  C  C44  1  0.02065600  0.33116900  0.78784700  1
  C  C45  1  0.16470100  0.32001400  0.73088900  1
  C  C46  1  0.31752700  0.25772700  0.71895300  1
  C  C47  1  0.46098900  0.24643700  0.66174200  1
  C  C48  1  0.61315100  0.18373300  0.64953900  1
  C  C49  1  0.62318000  0.13278700  0.69497900  1
  C  C50  1  0.15486900  0.37073000  0.68548600  1
  C  C51  1  0.29738200  0.35931700  0.62800500  1
  C  C52  1  0.45093100  0.29717900  0.61614600  1
  C  C53  1  0.36311100  0.05167500  0.90330000  1
  C  C54  1  0.33288200  0.08835000  0.10926700  1
  C  C55  1  0.82772300  0.91192300  0.07895300  1
  C  C56  1  0.85551000  0.87475800  0.87285000  1
  C  C57  1  0.91892200  0.06460900  0.62454800  1
  C  C58  1  0.96653300  0.98553000  0.57087900  1
  C  C59  1  0.10921200  0.98193200  0.51499900  1
  C  C60  1  0.20620100  0.05733300  0.51324100  1
  C  C61  1  0.16151000  0.13625800  0.56765500  1
  C  C62  1  0.01862900  0.13987200  0.62348700  1
  N  N1  1  0.77645500  0.06772200  0.68248000  1
  O  O1  1  0.39411000  0.39431600  0.51850600  1
  O  O2  1  0.18855000  0.37123700  0.42974200  1
  O  O3  1  0.97627000  0.49992900  0.39648400  1
  O  O4  1  0.10748600  0.45671600  0.58528000  1
  O  O5  1  0.90244400  0.58446200  0.55148700  1
  O  O6  1  0.47345300  0.42823200  0.38404500  1
  O  O7  1  0.29473500  0.54788100  0.50138500  1
  O  O8  1  0.61121500  0.54251700  0.60027700  1
  O  O9  1  0.69742900  0.57687300  0.46569000  1
  O  O10  1  0.78913100  0.41509400  0.47826900  1
  O  O11  1  0.16747600  0.03519500  0.09821000  1
  O  O12  1  0.53353400  0.00652800  0.89699400  1
  O  O13  1  0.73819100  0.87873100  0.93081500  1
  O  O14  1  0.45246500  0.09207700  0.05251700  1
  O  O15  1  0.66438200  0.96334200  0.08583000  1
  O  O16  1  0.24706000  0.06904300  0.96376900  1
  O  O17  1  0.34598900  0.91544100  0.98090200  1
  O  O18  1  0.94298000  0.88626500  0.01663300  1
  O  O19  1  0.02955200  0.92063100  0.88203800  1
  O  O20  1  0.85179500  0.04809100  0.00403100  1
