# generated using pymatgen
data_Fe2H22C41N4O19
_symmetry_space_group_name_H-M   'P 1'
_cell_length_a   15.42698800
_cell_length_b   13.15650900
_cell_length_c   11.71389500
_cell_angle_alpha   77.88864500
_cell_angle_beta   101.34957900
_cell_angle_gamma   110.44301800
_symmetry_Int_Tables_number   1
_chemical_formula_structural   Fe2H22C41N4O19
_chemical_formula_sum   'Fe2 H22 C41 N4 O19'
_cell_volume   2158.30678174
_cell_formula_units_Z   1
loop_
 _symmetry_equiv_pos_site_id
 _symmetry_equiv_pos_as_xyz
  1  'x, y, z'
loop_
 _atom_site_type_symbol
 _atom_site_label
 _atom_site_symmetry_multiplicity
 _atom_site_fract_x
 _atom_site_fract_y
 _atom_site_fract_z
 _atom_site_occupancy
  Fe  Fe1  1  0.49475900  0.03371100  0.72044400  1
  Fe  Fe2  1  0.50065900  0.03654400  0.23040200  1
  H  H1  1  0.79135200  0.05664500  0.25472200  1
  H  H2  1  0.94280100  0.06477200  0.21316200  1
  H  H3  1  0.83230800  0.04493200  0.85398400  1
  H  H4  1  0.04817600  0.10689500  0.05438200  1
  H  H5  1  0.04802400  0.98584500  0.73873100  1
  H  H6  1  0.15668100  0.00982700  0.09817300  1
  H  H7  1  0.47179800  0.62598800  0.75809100  1
  H  H8  1  0.45741800  0.29819100  0.68336500  1
  H  H9  1  0.50812200  0.70665500  0.34017300  1
  H  H10  1  0.53238000  0.58758200  0.27419200  1
  H  H11  1  0.51411500  0.50227400  0.10668500  1
  H  H12  1  0.62338700  0.54689100  0.98250400  1
  H  H13  1  0.70795700  0.47481800  0.02442800  1
  H  H14  1  0.73174300  0.60417100  0.07442300  1
  H  H15  1  0.90015100  0.92766300  0.80363800  1
  H  H16  1  0.83348700  0.75313300  0.76605800  1
  H  H17  1  0.82360900  0.64856100  0.89444500  1
  H  H18  1  0.92385500  0.68986600  0.81740600  1
  H  H19  1  0.18093500  0.06370800  0.60613300  1
  H  H20  1  0.16138600  0.97337300  0.45165800  1
  H  H21  1  0.07445900  0.84270000  0.49172800  1
  H  H22  1  0.19292600  0.84944100  0.48785100  1
  C  C1  1  0.79936300  0.05304100  0.16618000  1
  C  C2  1  0.88464000  0.05667500  0.14319300  1
  C  C3  1  0.89510700  0.04624500  0.03266000  1
  C  C4  1  0.82119000  0.04129600  0.94294400  1
  C  C5  1  0.73445900  0.03582800  0.96492000  1
  C  C6  1  0.72316800  0.03885600  0.07933100  1
  C  C7  1  0.98735800  0.05034600  0.01115700  1
  C  C8  1  0.99904000  0.98628100  0.94397300  1
  C  C9  1  0.10564500  0.99447000  0.80933600  1
  C  C10  1  0.19200200  0.00425100  0.78505100  1
  C  C11  1  0.26839700  0.02012600  0.87238200  1
  C  C12  1  0.25627400  0.02131300  0.98746000  1
  C  C13  1  0.16815900  0.01114900  0.00982000  1
  C  C14  1  0.09316500  0.99894100  0.92101800  1
  C  C15  1  0.47140100  0.19464900  0.53563000  1
  C  C16  1  0.35992300  0.04080700  0.83717700  1
  C  C17  1  0.65939800  0.03167300  0.86416800  1
  C  C18  1  0.49101100  0.83585500  0.66743900  1
  C  C19  1  0.49352000  0.22677200  0.28411800  1
  C  C20  1  0.33158000  0.02699900  0.08880400  1
  C  C21  1  0.63266200  0.02270100  0.11444200  1
  C  C22  1  0.51649200  0.87606400  0.41391700  1
  C  C23  1  0.49276700  0.74977500  0.60526100  1
  C  C24  1  0.48140800  0.64487000  0.66620800  1
  C  C25  1  0.48188000  0.56150100  0.61182300  1
  C  C26  1  0.46951600  0.37650600  0.62744900  1
  C  C27  1  0.50263700  0.76862800  0.48666500  1
  C  C28  1  0.50173100  0.68481700  0.43246700  1
  C  C29  1  0.49399500  0.58032200  0.49472300  1
  C  C30  1  0.49744900  0.49419500  0.44406500  1
  C  C31  1  0.48475800  0.39103700  0.51124000  1
  C  C32  1  0.48547400  0.30291000  0.46206300  1
  C  C33  1  0.51567300  0.50902700  0.32942500  1
  C  C34  1  0.51769400  0.42379400  0.28069400  1
  C  C35  1  0.49865700  0.31822800  0.34405200  1
  C  C36  1  0.63335900  0.46728300  0.16261300  1
  C  C37  1  0.67646900  0.52707500  0.05412500  1
  C  C38  1  0.92416400  0.80350000  0.92347400  1
  C  C39  1  0.87304400  0.71895000  0.84525600  1
  C  C40  1  0.17329800  0.90571200  0.63584500  1
  C  C41  1  0.14902700  0.89239100  0.50886600  1
  N  N1  1  0.46951400  0.46100700  0.67479300  1
  N  N2  1  0.54184100  0.44801400  0.16556600  1
  N  N3  1  0.92115300  0.90709200  0.89186900  1
  N  N4  1  0.20300300  0.00645000  0.66775400  1
  O  O1  1  0.53643400  0.17949400  0.62240200  1
  O  O2  1  0.42709500  0.13303500  0.85311000  1
  O  O3  1  0.39124300  0.11619500  0.52109200  1
  O  O4  1  0.37081700  0.97437700  0.77569800  1
  O  O5  1  0.57963300  0.04164700  0.87423300  1
  O  O6  1  0.67386400  0.02253200  0.76065100  1
  O  O7  1  0.49593700  0.93509600  0.61169200  1
  O  O8  1  0.48408500  0.81306200  0.78049800  1
  O  O9  1  0.50392200  0.13427300  0.34292000  1
  O  O10  1  0.47908100  0.23779300  0.16872100  1
  O  O11  1  0.41671700  0.03585700  0.07580500  1
  O  O12  1  0.31252300  0.01963800  0.19517800  1
  O  O13  1  0.59658700  0.95454400  0.42892700  1
  O  O14  1  0.62502200  0.09067900  0.17661500  1
  O  O15  1  0.45346100  0.88970900  0.32438500  1
  O  O16  1  0.56298300  0.93250200  0.09811600  1
  O  O17  1  0.68157100  0.43630100  0.24904700  1
  O  O18  1  0.96819500  0.77807000  0.01706300  1
  O  O19  1  0.16674400  0.82475800  0.71105000  1
