# Generated by REPEAT Assigner based on pymatgen
data_DB0-m2_o5_o25_f0_nbo.sym.53
_audit_creation_date              2022-05-24
_audit_creation_method            REPEAT_Assigner
_cell_length_a                    18.401287
_cell_length_b                    18.400793
_cell_length_c                    31.927110
_cell_angle_alpha                 90.000000
_cell_angle_beta                  90.000000
_cell_angle_gamma                 90.000000
_cell_volume                      10810.464593
_symmetry_space_group_name_H-M    P1
_symmetry_Int_Tables_number       1
loop_
    _symmetry_equiv_pos_site_id
    _symmetry_equiv_pos_as_xyz
    1  x,y,z
loop_
    _atom_site_type_symbol
    _atom_site_label
    _atom_site_fract_x
    _atom_site_fract_y
    _atom_site_fract_z
    _atom_type_partial_charge
    O   O1    0.605903  0.432492  0.001515  -0.583404
    O   O2    0.394546  0.433337  0.001457  -0.601365
    O   O3    0.105082  0.932805  0.498277  -0.584027
    O   O4    0.893732  0.932923  0.498222  -0.604714
    O   O5    0.605618  0.557804  0.001440  -0.576641
    O   O6    0.394422  0.558650  0.001539  -0.558595
    O   O7    0.104980  0.058291  0.501697  -0.560793
    O   O8    0.893792  0.058110  0.501794  -0.578666
    C   C1    0.639492  0.495177  0.999565  0.786175
    C   C2    0.360756  0.495942  0.999583  0.783452
    C   C3    0.138776  0.995542  0.499980  0.819023
    C   C4    0.859969  0.995501  0.499999  0.766960
    O   O9    0.503227  0.433012  0.939026  -0.611404
    O   O10   0.503136  0.432850  0.060826  -0.594350
    O   O11   0.002158  0.932431  0.439056  -0.591563
    O   O12   0.002062  0.933376  0.560860  -0.611792
    O   O13   0.496971  0.558190  0.939065  -0.597984
    O   O14   0.497143  0.558326  0.060802  -0.585338
    O   O15   0.002001  0.057737  0.439172  -0.599950
    O   O16   0.002179  0.058682  0.560912  -0.581471
    C   C5    0.500070  0.495673  0.919563  0.649547
    C   C6    0.500142  0.495655  0.080268  0.734561
    C   C7    0.998739  0.995178  0.419672  0.684922
    C   C8    0.998813  0.996073  0.580332  0.682913
    Cu  Cu1   0.500193  0.423140  0.999920  1.040230
    Cu  Cu2   0.999398  0.923102  0.499979  1.041097
    Cu  Cu3   0.500050  0.568020  0.999927  1.003390
    Cu  Cu4   0.999373  0.067982  0.500022  1.004782
    C   C9    0.556974  0.468902  0.736393  -0.234128
    C   C10   0.558762  0.470039  0.263260  -0.255738
    C   C11   0.441066  0.470229  0.736653  -0.249949
    C   C12   0.442856  0.468930  0.263375  -0.223880
    C   C13   0.057157  0.968779  0.236566  -0.222939
    C   C14   0.058939  0.970264  0.763236  -0.248605
    C   C15   0.941247  0.969977  0.236650  -0.251920
    C   C16   0.943036  0.969026  0.763527  -0.224706
    C   C17   0.558313  0.536305  0.763539  -0.225864
    C   C18   0.558337  0.537475  0.236119  -0.175539
    C   C19   0.441699  0.537660  0.763795  -0.217504
    C   C20   0.441717  0.536338  0.236231  -0.201940
    C   C21   0.058302  0.036141  0.263753  -0.227584
    C   C22   0.058320  0.037723  0.736112  -0.212214
    C   C23   0.941688  0.037369  0.263824  -0.189962
    C   C24   0.941706  0.036458  0.736408  -0.212549
    C   C25   0.500045  0.496389  0.874672  0.098474
    C   C26   0.500250  0.496359  0.125162  -0.016674
    C   C27   0.999297  0.995972  0.374779  0.046855
    C   C28   0.999503  0.996696  0.625227  0.052597
    C   C29   0.498994  0.494991  0.625146  0.055396
    C   C30   0.500182  0.494914  0.374698  0.055497
    C   C31   0.999623  0.994961  0.125238  0.057153
    C   C32   0.000808  0.995004  0.874780  0.055992
    C   C33   0.498822  0.435659  0.764312  -0.054298
    C   C34   0.501050  0.435578  0.235526  -0.028751
    C   C35   0.998912  0.935430  0.264380  -0.045035
    C   C36   0.001137  0.935765  0.735578  -0.044518
    C   C37   0.499798  0.503634  0.791234  0.891270
    C   C38   0.500286  0.503560  0.208605  0.786275
    C   C39   0.999690  0.003365  0.291340  0.846161
    C   C40   0.000176  0.003770  0.708678  0.850135
    C   C41   0.499210  0.502595  0.708626  0.853475
    C   C42   0.500573  0.502513  0.291214  0.828293
    C   C43   0.999485  0.002451  0.208727  0.836370
    C   C44   0.000843  0.002650  0.791291  0.833416
    C   C45   0.500208  0.570430  0.735827  -0.037942
    C   C46   0.499785  0.570353  0.264015  -0.028738
    C   C47   0.000292  0.070243  0.235966  -0.029847
    C   C48   0.999866  0.070512  0.764110  -0.020928
    C   C49   0.499955  0.499057  0.836968  -0.616140
    C   C50   0.500290  0.499011  0.162867  -0.516361
    C   C51   0.999554  0.998707  0.337076  -0.572405
    C   C52   0.999889  0.999284  0.662934  -0.576581
    C   C53   0.499070  0.497977  0.662846  -0.558906
    C   C54   0.500338  0.497889  0.336997  -0.550333
    C   C55   0.999574  0.997901  0.162941  -0.554516
    C   C56   0.000839  0.997997  0.837077  -0.553725
    H   H1    0.498128  0.378838  0.775856  0.047363
    H   H2    0.501819  0.378762  0.223976  0.042514
    H   H3    0.998183  0.878591  0.275894  0.045073
    H   H4    0.001870  0.878957  0.724014  0.044982
    C   C57   0.717399  0.495056  0.999945  -0.152057
    C   C58   0.282851  0.495582  0.999876  -0.149464
    C   C59   0.216676  0.995308  0.500028  -0.190357
    C   C60   0.782075  0.995253  0.499960  -0.121079
    C   C61   0.782843  0.494319  0.000151  -0.078397
    C   C62   0.217411  0.494669  0.999967  -0.080060
    C   C63   0.282113  0.994479  0.500080  -0.055901
    C   C64   0.716642  0.994429  0.499896  -0.099319
    O   O17   0.562141  0.387670  0.498185  -0.584873
    O   O18   0.436960  0.387666  0.501686  -0.585026
    O   O19   0.062759  0.887684  0.998260  -0.584802
    O   O20   0.937578  0.887731  0.001762  -0.584582
    C   C65   0.499550  0.353897  0.499947  0.753643
    C   C66   0.000155  0.853936  0.000021  0.754443
    O   O21   0.561609  0.495964  0.560805  -0.578602
    O   O22   0.562770  0.496072  0.439035  -0.555885
    O   O23   0.436325  0.496101  0.560814  -0.555937
    O   O24   0.437488  0.495921  0.439041  -0.578131
    O   O25   0.062274  0.995955  0.060893  -0.576957
    O   O26   0.063433  0.996106  0.939121  -0.554948
    O   O27   0.936990  0.996145  0.060902  -0.555638
    O   O28   0.938152  0.996009  0.939129  -0.578064
    C   C67   0.498960  0.492690  0.580268  0.633355
    C   C68   0.500144  0.492639  0.419579  0.631989
    C   C69   0.999621  0.992700  0.080357  0.630395
    C   C70   0.000803  0.992708  0.919664  0.631290
    Cu  Cu5   0.571988  0.493293  0.499946  1.008026
    Cu  Cu6   0.427105  0.493285  0.499902  1.008535
    Cu  Cu7   0.072652  0.993301  0.000033  1.007154
    Cu  Cu8   0.927769  0.993355  0.999990  1.007558
    O   O29   0.562281  0.598942  0.498245  -0.583554
    O   O30   0.436795  0.598934  0.501586  -0.583543
    O   O31   0.062991  0.098955  0.998345  -0.583578
    O   O32   0.937505  0.099000  0.001686  -0.583013
    C   C71   0.499534  0.632693  0.499921  0.834891
    C   C72   0.000260  0.132732  0.000027  0.835452
    O   O33   0.003102  0.599100  0.963924  -0.565738
    O   O34   0.997034  0.599103  0.036252  -0.566941
    O   O35   0.502431  0.099068  0.463822  -0.566811
    O   O36   0.496364  0.099057  0.536151  -0.566981
    C   C73   0.000062  0.632817  0.000086  0.788683
    C   C74   0.499422  0.132778  0.499988  0.789628
    O   O37   0.894625  0.496086  0.964193  -0.590832
    O   O38   0.894357  0.496213  0.036420  -0.565580
    O   O39   0.105896  0.496338  0.963764  -0.573553
    O   O40   0.105636  0.496222  0.035992  -0.583126
    O   O41   0.393878  0.996133  0.464083  -0.586884
    O   O42   0.393615  0.996241  0.536311  -0.569867
    O   O43   0.605151  0.996232  0.463653  -0.570398
    O   O44   0.604887  0.996097  0.535883  -0.588359
    C   C75   0.860744  0.493067  0.000272  0.724697
    C   C76   0.139516  0.493245  0.999909  0.725428
    C   C77   0.360003  0.993132  0.500164  0.718117
    C   C78   0.638758  0.993098  0.499802  0.733427
    Cu  Cu9   0.000236  0.493456  0.958340  1.028840
    Cu  Cu10  0.000025  0.493462  0.041843  1.020961
    Cu  Cu11  0.499489  0.993428  0.458229  1.025101
    Cu  Cu12  0.499277  0.993412  0.541734  1.026125
    O   O45   0.003347  0.387831  0.964026  -0.575033
    O   O46   0.997046  0.387831  0.036160  -0.575121
    O   O47   0.502526  0.887799  0.463906  -0.575237
    O   O48   0.496225  0.887785  0.536041  -0.575530
    C   C79   0.000226  0.354021  0.000093  0.673927
    C   C80   0.499395  0.853982  0.499971  0.674309
    C   C81   0.499534  0.276044  0.499970  -0.090314
    C   C82   0.000120  0.776083  0.000051  -0.091265
    C   C83   0.000086  0.710669  0.000076  -0.157567
    C   C84   0.499486  0.210630  0.499986  -0.158267
    C   C85   0.499511  0.710611  0.499942  -0.216778
    C   C86   0.000278  0.210650  0.000059  -0.217845
    C   C87   0.000263  0.276103  0.000083  -0.020631
    C   C88   0.499458  0.776064  0.499961  -0.021466
    C   C89   0.629121  0.573321  0.773265  0.181292
    C   C90   0.669036  0.602648  0.740664  -0.166404
    C   C91   0.735214  0.635230  0.748074  -0.112748
    C   C92   0.762369  0.638657  0.788181  0.084789
    Cl  Cl1   0.847013  0.678923  0.797629  -0.087653
    C   C93   0.722997  0.609861  0.820854  -0.046049
    C   C94   0.656756  0.577260  0.813516  -0.249870
    H   H5    0.648757  0.599887  0.708954  0.120254
    H   H6    0.765990  0.657757  0.722331  0.103632
    H   H7    0.744333  0.612339  0.852363  0.091364
    H   H8    0.628246  0.554368  0.839721  0.150212
    C   C95   0.628127  0.576297  0.226299  0.177842
    C   C96   0.668246  0.605096  0.258975  -0.167738
    C   C97   0.733516  0.639413  0.251484  -0.101945
    C   C98   0.759553  0.645115  0.211217  0.072280
    Cl  Cl2   0.843130  0.687478  0.201654  -0.085927
    C   C99   0.719877  0.617011  0.178462  -0.035001
    C   C100  0.654510  0.582737  0.185877  -0.269397
    H   H9    0.648827  0.600552  0.290798  0.119481
    H   H10   0.764475  0.661504  0.277281  0.100940
    H   H11   0.740272  0.621408  0.146817  0.091946
    H   H12   0.625632  0.560684  0.159568  0.159683
    C   C101  0.372004  0.576581  0.773713  0.186522
    C   C102  0.331956  0.605740  0.741114  -0.166585
    C   C103  0.266771  0.640159  0.748696  -0.106751
    C   C104  0.240749  0.645604  0.788979  0.076154
    Cl  Cl3   0.157293  0.688129  0.798655  -0.086264
    C   C105  0.280340  0.617114  0.821656  -0.035512
    C   C106  0.345617  0.582726  0.814149  -0.267215
    H   H13   0.351360  0.601410  0.709279  0.120491
    H   H14   0.235873  0.662541  0.722959  0.101889
    H   H15   0.259945  0.621285  0.853311  0.089151
    H   H16   0.374408  0.560331  0.840393  0.156744
    C   C107  0.370982  0.573411  0.226390  0.187397
    C   C108  0.331211  0.603310  0.258878  -0.175228
    C   C109  0.265097  0.635946  0.251361  -0.103585
    C   C110  0.237857  0.638860  0.211260  0.080833
    Cl  Cl4   0.153329  0.679275  0.201680  -0.087768
    C   C111  0.277053  0.609435  0.178702  -0.045498
    C   C112  0.343218  0.576755  0.186150  -0.262749
    H   H17   0.351544  0.600971  0.290585  0.121217
    H   H18   0.234444  0.658934  0.277016  0.101791
    H   H19   0.255628  0.611466  0.147203  0.094866
    H   H20   0.371548  0.553292  0.160048  0.159465
    C   C113  0.129013  0.073214  0.273636  0.197758
    C   C114  0.169052  0.102710  0.241137  -0.174654
    C   C115  0.235153  0.135344  0.248696  -0.105535
    C   C116  0.262094  0.138678  0.288854  0.078577
    Cl  Cl5   0.346623  0.179049  0.298493  -0.087182
    C   C117  0.222594  0.109716  0.321428  -0.036515
    C   C118  0.156440  0.077044  0.313939  -0.275620
    H   H21   0.148934  0.100046  0.209392  0.121452
    H   H22   0.266032  0.157995  0.223031  0.102685
    H   H23   0.243765  0.112116  0.352975  0.090581
    H   H24   0.127829  0.054011  0.340067  0.167289
    C   C119  0.128021  0.076612  0.726171  0.194839
    C   C120  0.168242  0.105530  0.758770  -0.170299
    C   C121  0.233442  0.139904  0.751163  -0.102967
    C   C122  0.259301  0.145550  0.710855  0.072959
    Cl  Cl6   0.342784  0.187996  0.701144  -0.086008
    C   C123  0.219525  0.117319  0.678177  -0.031179
    C   C124  0.154233  0.082978  0.685708  -0.283537
    H   H25   0.148962  0.101036  0.790623  0.120742
    H   H26   0.264483  0.162086  0.776900  0.100864
    H   H27   0.239786  0.121661  0.646500  0.090232
    H   H28   0.125283  0.060808  0.659458  0.168424
    C   C125  0.871904  0.076223  0.273624  0.168016
    C   C126  0.831947  0.105247  0.240948  -0.161559
    C   C127  0.766693  0.139611  0.248416  -0.106928
    C   C128  0.740508  0.145131  0.288660  0.076459
    Cl  Cl7   0.656959  0.187572  0.298190  -0.086035
    C   C129  0.780013  0.116786  0.321414  -0.041482
    C   C130  0.845363  0.082463  0.314022  -0.251085
    H   H29   0.851480  0.100852  0.209142  0.119075
    H   H30   0.735867  0.161887  0.222619  0.101744
    H   H31   0.759496  0.121030  0.353040  0.091322
    H   H32   0.874095  0.060206  0.340325  0.147997
    C   C131  0.870875  0.073473  0.726722  0.170239
    C   C132  0.831214  0.103182  0.759313  -0.165694
    C   C133  0.765024  0.135766  0.751943  -0.110764
    C   C134  0.737586  0.138796  0.711889  0.086793
    Cl  Cl8   0.652944  0.179105  0.702498  -0.088161
    C   C135  0.776671  0.109562  0.679230  -0.055191
    C   C136  0.842921  0.076954  0.686529  -0.235426
    H   H33   0.851696  0.100728  0.790986  0.120240
    H   H34   0.734462  0.158613  0.777676  0.102654
    H   H35   0.755095  0.111693  0.647768  0.095457
    H   H36   0.871167  0.053655  0.660349  0.142315
    C   C137  0.625091  0.428821  0.725076  0.198529
    C   C138  0.655449  0.381437  0.753788  -0.198428
    C   C139  0.718919  0.345062  0.744523  -0.120780
    C   C140  0.752836  0.356097  0.706626  0.168932
    Cl  Cl9   0.832976  0.309288  0.694646  -0.140879
    C   C141  0.724052  0.404698  0.678356  -0.188824
    C   C142  0.660791  0.441419  0.687634  -0.158324
    H   H37   0.630138  0.372806  0.783901  0.113455
    H   H38   0.742066  0.307775  0.767022  0.127364
    H   H39   0.751414  0.414497  0.648939  0.123955
    H   H40   0.640815  0.480930  0.665565  0.143952
    C   C143  0.627860  0.431212  0.274047  0.214890
    C   C144  0.659806  0.386629  0.244435  -0.212536
    C   C145  0.724037  0.351215  0.253185  -0.117700
    C   C146  0.757181  0.360543  0.291460  0.176021
    Cl  Cl10  0.838340  0.315020  0.302772  -0.143510
    C   C147  0.726755  0.406371  0.320680  -0.191664
    C   C148  0.662665  0.442043  0.311950  -0.160992
    H   H41   0.635018  0.379400  0.214051  0.118945
    H   H42   0.748374  0.316002  0.229999  0.127392
    H   H43   0.753459  0.414810  0.350436  0.124800
    H   H44   0.641428  0.479434  0.334822  0.140032
    C   C149  0.371886  0.431533  0.725883  0.212828
    C   C150  0.340239  0.386426  0.755339  -0.208736
    C   C151  0.275944  0.351132  0.746585  -0.117995
    C   C152  0.242446  0.361086  0.708465  0.172963
    Cl  Cl11  0.161233  0.315671  0.697138  -0.141676
    C   C153  0.272561  0.407452  0.679421  -0.191106
    C   C154  0.336704  0.443021  0.688161  -0.159780
    H   H45   0.365290  0.378689  0.785608  0.115935
    H   H46   0.251838  0.315514  0.769645  0.127469
    H   H47   0.245577  0.416387  0.649797  0.124857
    H   H48   0.357720  0.480827  0.665443  0.139903
    C   C155  0.374682  0.429001  0.274755  0.192469
    C   C156  0.344779  0.380719  0.246383  -0.201540
    C   C157  0.281279  0.344475  0.255747  -0.115124
    C   C158  0.246897  0.356505  0.293403  0.166539
    Cl  Cl12  0.166767  0.309795  0.305528  -0.140654
    C   C159  0.275220  0.406002  0.321310  -0.186928
    C   C160  0.338495  0.442615  0.311922  -0.156441
    H   H49   0.370432  0.371274  0.216450  0.114017
    H   H50   0.258478  0.306498  0.233516  0.125730
    H   H51   0.247498  0.416572  0.350525  0.123397
    H   H52   0.358166  0.482788  0.333690  0.142775
    C   C161  0.125342  0.928797  0.225271  0.196231
    C   C162  0.155509  0.881110  0.253882  -0.201945
    C   C163  0.219026  0.844815  0.244621  -0.117422
    C   C164  0.253172  0.856224  0.206829  0.166641
    Cl  Cl13  0.333358  0.809501  0.194844  -0.140357
    C   C165  0.224576  0.905126  0.178669  -0.185167
    C   C166  0.161274  0.941773  0.187947  -0.160023
    H   H53   0.130020  0.872175  0.283915  0.115393
    H   H54   0.242033  0.807301  0.267041  0.126323
    H   H55   0.252115  0.915215  0.149339  0.123067
    H   H56   0.141430  0.981510  0.165971  0.143337
    C   C167  0.128113  0.931514  0.773950  0.217245
    C   C168  0.159883  0.886748  0.744366  -0.216273
    C   C169  0.224179  0.851409  0.753058  -0.116588
    C   C170  0.257559  0.860990  0.791245  0.174459
    Cl  Cl14  0.338795  0.815554  0.802487  -0.142490
    C   C171  0.227307  0.907003  0.820428  -0.191503
    C   C172  0.163155  0.942605  0.811754  -0.161070
    H   H57   0.134914  0.879317  0.714048  0.120202
    H   H58   0.248382  0.816057  0.729897  0.127261
    H   H59   0.254194  0.915640  0.850111  0.125022
    H   H60   0.142042  0.980138  0.834588  0.139399
    C   C173  0.872138  0.931209  0.225812  0.213064
    C   C174  0.840287  0.886344  0.255319  -0.206993
    C   C175  0.776052  0.850978  0.246518  -0.118768
    C   C176  0.742812  0.860622  0.208296  0.175005
    Cl  Cl15  0.661668  0.815128  0.196911  -0.142846
    C   C177  0.773130  0.906743  0.179192  -0.192076
    C   C178  0.837218  0.942379  0.187978  -0.161209
    H   H61   0.865142  0.878854  0.285663  0.115297
    H   H62   0.751792  0.815545  0.269619  0.127398
    H   H63   0.746346  0.915436  0.149484  0.125262
    H   H64   0.858376  0.979998  0.165204  0.140605
    C   C179  0.874923  0.929002  0.774921  0.191049
    C   C180  0.844799  0.881085  0.746421  -0.195963
    C   C181  0.781340  0.844763  0.755777  -0.119749
    C   C182  0.747210  0.856364  0.793554  0.168093
    Cl  Cl16  0.667114  0.809575  0.805659  -0.140862
    C   C183  0.775752  0.905501  0.821598  -0.188789
    C   C184  0.838992  0.942184  0.812222  -0.154990
    H   H65   0.870258  0.871989  0.716396  0.111880
    H   H66   0.758374  0.807061  0.733446  0.127029
    H   H67   0.748222  0.915741  0.850913  0.123680
    H   H68   0.858813  0.982091  0.834104  0.143029
    C   C185  0.500921  0.649945  0.725540  -0.008815
    C   C186  0.502247  0.699402  0.758110  -0.027358
    C   C187  0.502995  0.772943  0.750086  0.017428
    C   C188  0.502322  0.797748  0.709436  -0.065546
    Cl  Cl17  0.503179  0.891234  0.699285  -0.118155
    C   C189  0.500918  0.748878  0.676798  0.013150
    C   C190  0.500222  0.675245  0.684737  -0.257844
    H   H69   0.502729  0.680595  0.790181  0.099735
    H   H70   0.504048  0.811222  0.775745  0.108570
    H   H71   0.500346  0.768285  0.644845  0.100676
    H   H72   0.499056  0.638589  0.658553  0.144568
    C   C191  0.499332  0.649869  0.274308  -0.021290
    C   C192  0.498158  0.699337  0.241742  -0.018144
    C   C193  0.497702  0.772878  0.249771  0.015959
    C   C194  0.498504  0.797673  0.290423  -0.065664
    Cl  Cl18  0.498000  0.891159  0.300580  -0.117736
    C   C195  0.499766  0.748792  0.323056  0.012179
    C   C196  0.500186  0.675158  0.315112  -0.253425
    H   H73   0.497574  0.680539  0.209670  0.095510
    H   H74   0.496765  0.811167  0.224115  0.108439
    H   H75   0.500453  0.768190  0.355011  0.100809
    H   H76   0.501282  0.638494  0.341293  0.143500
    C   C197  0.000936  0.149775  0.225718  -0.010966
    C   C198  0.002001  0.199186  0.258313  -0.027964
    C   C199  0.002649  0.272740  0.250327  0.020784
    C   C200  0.002153  0.297603  0.209687  -0.069558
    Cl  Cl19  0.002896  0.391106  0.199584  -0.117191
    C   C201  0.001021  0.248779  0.177024  0.015340
    C   C202  0.000414  0.175133  0.184926  -0.258385
    H   H77   0.002348  0.180334  0.290376  0.098872
    H   H78   0.003492  0.310983  0.276006  0.108016
    H   H79   0.000591  0.268232  0.145079  0.100741
    H   H80   0.999462  0.138513  0.158722  0.143998
    C   C203  0.999342  0.150020  0.774422  -0.022580
    C   C204  0.997906  0.199508  0.741870  -0.019078
    C   C205  0.997348  0.273043  0.749916  0.015274
    C   C206  0.998326  0.297811  0.790572  -0.064837
    Cl  Cl20  0.997706  0.391290  0.800752  -0.118059
    C   C207  0.999860  0.248911  0.823192  0.012118
    C   C208  0.000372  0.175283  0.815230  -0.253717
    H   H81   0.997189  0.180731  0.709794  0.096366
    H   H82   0.996203  0.311348  0.724271  0.108575
    H   H83   0.000688  0.268289  0.855150  0.100623
    H   H84   0.001680  0.138602  0.841401  0.143776
