# Generated by REPEAT Assigner based on pymatgen
data_DB0-m3_o4_o25_f0_nbo.sym.116_sqe
_audit_creation_date              2022-05-24
_audit_creation_method            REPEAT_Assigner
_cell_length_a                    31.102754
_cell_length_b                    31.902523
_cell_length_c                    21.884202
_cell_angle_alpha                 90.000000
_cell_angle_beta                  135.271025
_cell_angle_gamma                 90.000000
_cell_volume                      15281.834891
_symmetry_space_group_name_H-M    P1
_symmetry_Int_Tables_number       1
loop_
    _symmetry_equiv_pos_site_id
    _symmetry_equiv_pos_as_xyz
    1  x,y,z
loop_
    _atom_site_type_symbol
    _atom_site_label
    _atom_site_fract_x
    _atom_site_fract_y
    _atom_site_fract_z
    _atom_type_partial_charge
    O   O1    0.446271  0.993626  0.352484  -0.663889
    O   O2    0.946054  0.506361  0.352348  -0.663493
    O   O3    0.551808  0.995457  0.459934  -0.675229
    O   O4    0.051597  0.504592  0.459805  -0.674879
    C   C1    0.499306  0.992540  0.378182  0.717486
    C   C2    0.999094  0.507470  0.378054  0.719021
    O   O5    0.446469  0.937236  0.449668  -0.684722
    O   O6    0.447726  0.061774  0.435874  -0.698600
    O   O7    0.947605  0.438221  0.435847  -0.697590
    O   O8    0.946163  0.562758  0.449431  -0.683628
    O   O9    0.551935  0.938430  0.560798  -0.686406
    O   O10   0.553246  0.062824  0.544679  -0.670603
    O   O11   0.053130  0.437238  0.544663  -0.669468
    O   O12   0.051632  0.561632  0.560558  -0.685539
    C   C3    0.499519  0.918447  0.508245  0.654672
    C   C4    0.500159  0.081691  0.487278  0.685763
    C   C5    0.000065  0.418339  0.487292  0.682738
    C   C6    0.999188  0.581579  0.507972  0.651778
    Zn  Zn1   0.430626  0.999649  0.427538  1.321346
    Zn  Zn2   0.930415  0.500334  0.427409  1.320358
    Zn  Zn3   0.569072  0.000472  0.568054  1.300522
    Zn  Zn4   0.068864  0.499601  0.567928  1.299189
    O   O13   0.448013  0.003825  0.535830  -0.704884
    O   O14   0.947806  0.496176  0.535708  -0.704578
    O   O15   0.553413  0.007505  0.642917  -0.666749
    O   O16   0.053211  0.492568  0.642797  -0.666118
    C   C7    0.500411  0.007373  0.617417  0.743107
    C   C8    0.000214  0.492662  0.617304  0.744753
    C   C9    0.471863  0.735558  0.445533  -0.190667
    C   C10   0.470132  0.263374  0.395118  -0.194308
    C   C11   0.970158  0.236634  0.395535  -0.194040
    C   C12   0.971466  0.764445  0.444962  -0.191383
    C   C13   0.528826  0.762742  0.501763  -0.211126
    C   C14   0.527136  0.235981  0.453033  -0.258508
    C   C15   0.027147  0.264038  0.453411  -0.259197
    C   C16   0.028416  0.737246  0.501200  -0.210145
    H   H1    0.552258  0.774504  0.483903  0.082172
    H   H2    0.550569  0.223031  0.435932  0.096322
    H   H3    0.050571  0.276982  0.436291  0.096354
    H   H4    0.051836  0.725454  0.483339  0.081761
    H   H5    0.448010  0.722381  0.381086  0.070912
    H   H6    0.446297  0.275417  0.329933  0.072753
    H   H7    0.946330  0.224567  0.330368  0.072913
    H   H8    0.947618  0.777614  0.380511  0.071333
    H   H9    0.604768  0.723775  0.628865  0.089230
    H   H10   0.603157  0.276328  0.577821  0.071320
    H   H11   0.103192  0.223731  0.578257  0.071214
    H   H12   0.104383  0.776219  0.628277  0.089015
    C   C17   0.500230  0.873611  0.514307  0.160870
    C   C18   0.499422  0.126538  0.481397  0.117334
    C   C19   0.999377  0.373492  0.481536  0.119321
    C   C20   0.999844  0.626414  0.513923  0.161938
    C   C21   0.500188  0.626278  0.520213  0.137774
    C   C22   0.499170  0.373892  0.477980  0.136730
    C   C23   0.999212  0.126143  0.478357  0.135020
    C   C24   0.999926  0.873730  0.519776  0.138894
    C   C25   0.443608  0.763667  0.465438  -0.177703
    C   C26   0.441932  0.236553  0.416795  -0.181983
    C   C27   0.941943  0.263464  0.417176  -0.183563
    C   C28   0.943202  0.736366  0.464890  -0.178345
    C   C29   0.500608  0.790121  0.521715  0.924245
    C   C30   0.498897  0.210055  0.474671  0.905041
    C   C31   0.998894  0.289975  0.475011  0.907704
    C   C32   0.000190  0.709900  0.521177  0.924113
    C   C33   0.472248  0.737142  0.544579  -0.239322
    C   C34   0.470718  0.264346  0.494382  -0.205129
    C   C35   0.970745  0.235696  0.494802  -0.204414
    C   C36   0.971863  0.762906  0.544023  -0.238205
    C   C37   0.500511  0.709836  0.524591  0.933068
    C   C38   0.498922  0.290355  0.472795  0.910539
    C   C39   0.998965  0.209680  0.473248  0.908907
    C   C40   0.000137  0.790179  0.524014  0.932128
    C   C41   0.529288  0.764486  0.600890  -0.196728
    C   C42   0.527645  0.237116  0.552215  -0.189155
    C   C43   0.027658  0.262943  0.552597  -0.190392
    C   C44   0.028889  0.735550  0.600341  -0.197030
    C   C45   0.557510  0.736291  0.580884  -0.229762
    C   C46   0.555881  0.263848  0.530642  -0.182668
    C   C47   0.055909  0.236199  0.531060  -0.182051
    C   C48   0.057120  0.763711  0.580313  -0.229120
    C   C49   0.500525  0.835927  0.518380  -0.670200
    C   C50   0.499064  0.164236  0.477569  -0.637237
    C   C51   0.999041  0.335793  0.477808  -0.639138
    C   C52   0.000112  0.664098  0.517912  -0.670328
    C   C53   0.500370  0.663982  0.523705  -0.658537
    C   C54   0.499016  0.336202  0.474195  -0.655768
    C   C55   0.999068  0.163834  0.474637  -0.653536
    C   C56   0.000049  0.836028  0.523177  -0.658838
    H   H13   0.553152  0.777669  0.665337  0.077763
    H   H14   0.551467  0.225078  0.617397  0.073933
    H   H15   0.051472  0.275008  0.617759  0.074192
    H   H16   0.052750  0.722379  0.664795  0.077709
    H   H17   0.448795  0.725377  0.562406  0.083861
    H   H18   0.447301  0.277290  0.511513  0.073654
    H   H19   0.947339  0.222758  0.511953  0.073587
    H   H20   0.948421  0.774699  0.561850  0.083646
    H   H21   0.396350  0.776184  0.417419  0.064859
    H   H22   0.394657  0.224071  0.369657  0.065152
    H   H23   0.894662  0.275935  0.370022  0.065733
    H   H24   0.895939  0.723857  0.416883  0.065109
    C   C57   0.473926  0.022542  0.252952  0.202542
    C   C58   0.974396  0.477242  0.253486  0.205483
    C   C59   0.499597  0.990632  0.311761  -0.229491
    C   C60   0.999419  0.509375  0.311671  -0.234444
    C   C61   0.525971  0.957979  0.305031  -0.014468
    C   C62   0.025273  0.542239  0.304458  -0.012087
    C   C63   0.525007  0.959115  0.239922  -0.154890
    C   C64   0.024419  0.541102  0.239457  -0.153762
    H   H25   0.545089  0.933898  0.234073  0.178217
    H   H26   0.044090  0.566490  0.233233  0.177846
    C   C65   0.500013  0.993116  0.183807  -0.114826
    C   C66   0.000047  0.506902  0.183932  -0.116797
    C   C67   0.475292  0.024293  0.193955  0.125251
    C   C68   0.975856  0.475511  0.194586  0.125541
    C   C69   0.443848  0.065415  0.158741  -0.246821
    C   C70   0.945140  0.434132  0.160069  -0.245787
    C   C71   0.442674  0.063428  0.228799  -0.113666
    C   C72   0.943856  0.436102  0.230015  -0.113959
    H   H27   0.397816  0.062907  0.091407  0.112476
    H   H28   0.473999  0.090507  0.171297  0.101660
    H   H29   0.975746  0.409290  0.173114  0.101450
    H   H30   0.899088  0.436260  0.092669  0.111769
    H   H31   0.395987  0.059983  0.200686  0.057667
    H   H32   0.472447  0.087237  0.280689  0.074771
    H   H33   0.974021  0.412539  0.282329  0.074461
    H   H34   0.897092  0.439161  0.201776  0.057481
    C   C73   0.456695  0.988672  0.673333  0.201038
    C   C74   0.956297  0.511042  0.673077  0.207990
    C   C75   0.499527  0.009943  0.683172  -0.115543
    C   C76   0.999371  0.490046  0.683101  -0.121165
    C   C77   0.542634  0.032742  0.759435  -0.178962
    C   C78   0.042806  0.467499  0.759638  -0.175277
    H   H35   0.577457  0.050302  0.770701  0.147782
    H   H36   0.077833  0.450158  0.771068  0.146930
    C   C79   0.541021  0.033537  0.821691  -0.165272
    C   C80   0.041295  0.466689  0.821996  -0.168043
    H   H37   0.575019  0.051249  0.880852  0.150236
    H   H38   0.075558  0.449188  0.881378  0.150744
    C   C81   0.498166  0.009911  0.810095  -0.039707
    C   C82   0.998177  0.490047  0.810195  -0.035670
    C   C83   0.457093  0.987763  0.734244  0.026810
    C   C84   0.956757  0.511929  0.734051  0.019053
    C   C85   0.404740  0.958505  0.686211  -0.137473
    C   C86   0.904007  0.540839  0.685711  -0.129798
    C   C87   0.404625  0.959238  0.614785  -0.222513
    C   C88   0.903821  0.540145  0.614214  -0.229355
    H   H39   0.363954  0.973745  0.665207  0.107841
    H   H40   0.418113  0.927696  0.718987  0.079756
    H   H41   0.916965  0.571722  0.718099  0.078523
    H   H42   0.863466  0.525306  0.664969  0.106894
    H   H43   0.363509  0.974482  0.553710  0.083567
    H   H44   0.418454  0.928902  0.608234  0.100333
    H   H45   0.917212  0.570580  0.607243  0.101932
    H   H46   0.862890  0.524650  0.553357  0.084625
    O   O17   0.407783  0.506016  0.353761  -0.669533
    O   O18   0.907696  0.994100  0.353733  -0.669261
    O   O19   0.409385  0.494348  0.459626  -0.683385
    O   O20   0.909293  0.005670  0.459619  -0.683436
    C   C89   0.380235  0.500075  0.378485  0.732608
    C   C90   0.880146  0.000001  0.378463  0.732513
    O   O21   0.497729  0.566890  0.454471  -0.696972
    O   O22   0.497512  0.442549  0.435085  -0.703671
    O   O23   0.997498  0.057529  0.435268  -0.703894
    O   O24   0.997570  0.933169  0.454243  -0.697569
    O   O25   0.501871  0.557615  0.563247  -0.703966
    O   O26   0.501569  0.433263  0.543802  -0.676912
    O   O27   0.001547  0.066716  0.543996  -0.677367
    O   O28   0.001707  0.942346  0.563034  -0.704349
    C   C91   0.499895  0.581584  0.512492  0.692627
    C   C92   0.499426  0.418578  0.485777  0.683081
    C   C93   0.999435  0.081452  0.486032  0.684062
    C   C94   0.999707  0.918426  0.512207  0.692562
    Zn  Zn5   0.498936  0.505949  0.429747  1.311843
    Zn  Zn6   0.998849  0.994135  0.429721  1.311805
    Zn  Zn7   0.500350  0.494212  0.568495  1.303137
    Zn  Zn8   0.000260  0.005742  0.568491  1.303894
    O   O29   0.589942  0.505803  0.538644  -0.690625
    O   O30   0.089854  0.994214  0.538619  -0.690342
    O   O31   0.591467  0.494070  0.644446  -0.668599
    O   O32   0.091377  0.005852  0.644444  -0.669061
    C   C95   0.619030  0.499940  0.619777  0.744048
    C   C96   0.118941  0.000014  0.619766  0.744205
    O   O33   0.590171  0.966380  0.081362  -0.698697
    O   O34   0.591058  0.038232  0.095767  -0.683398
    O   O35   0.091180  0.461785  0.095964  -0.683384
    O   O36   0.090234  0.533635  0.081505  -0.699062
    C   C97   0.618975  0.002198  0.116895  0.720447
    C   C98   0.119068  0.497828  0.117058  0.720037
    O   O37   0.499325  0.961771  0.083710  -0.702895
    O   O38   0.501283  0.033887  0.094352  -0.672791
    O   O39   0.001428  0.466145  0.094584  -0.673139
    O   O40   0.999363  0.538256  0.083822  -0.703290
    C   C99   0.500472  0.996288  0.117616  0.736075
    C   C100  0.000562  0.503743  0.117790  0.736819
    Zn  Zn9   0.499287  0.954178  0.991689  1.300944
    Zn  Zn10  0.499783  0.048772  0.002905  1.294752
    Zn  Zn11  0.999907  0.451234  0.003126  1.295041
    Zn  Zn12  0.999346  0.545823  0.991815  1.301538
    O   O41   0.408001  0.964607  0.900263  -0.678631
    O   O42   0.408934  0.036653  0.911924  -0.700542
    O   O43   0.909054  0.463341  0.912147  -0.701070
    O   O44   0.908064  0.535384  0.900383  -0.678031
    O   O45   0.496188  0.969088  0.898671  -0.685814
    O   O46   0.501319  0.041156  0.912495  -0.713907
    O   O47   0.001434  0.458822  0.912703  -0.714288
    O   O48   0.996250  0.530889  0.898808  -0.686452
    C   C101  0.380078  0.000762  0.877869  0.704446
    C   C102  0.880170  0.499222  0.878031  0.704242
    C   C103  0.498618  0.006669  0.877097  0.729734
    C   C104  0.998698  0.493304  0.877263  0.730148
    C   C105  0.279137  0.524811  0.241276  0.122661
    C   C106  0.779077  0.975239  0.241262  0.121160
    C   C107  0.313676  0.499014  0.312344  -0.095514
    C   C108  0.813585  0.001051  0.312307  -0.094741
    C   C109  0.282350  0.471726  0.318882  -0.153741
    C   C110  0.782227  0.028333  0.318793  -0.154524
    H   H47   0.307259  0.450438  0.373284  0.147032
    H   H48   0.807113  0.049625  0.373187  0.147014
    C   C111  0.718554  0.029535  0.254009  -0.203421
    C   C112  0.218678  0.470515  0.254143  -0.205165
    H   H49   0.694976  0.051440  0.259588  0.160579
    H   H50   0.195127  0.448606  0.259765  0.161061
    C   C113  0.685574  0.001985  0.184364  -0.060628
    C   C114  0.185666  0.498060  0.184489  -0.058828
    C   C115  0.718538  0.974882  0.182001  0.121868
    C   C116  0.218598  0.525161  0.182058  0.120323
    C   C117  0.712174  0.941047  0.129576  -0.179191
    C   C118  0.212190  0.558965  0.129549  -0.177965
    C   C119  0.283493  0.558783  0.199663  -0.154946
    C   C120  0.783478  0.941240  0.199743  -0.153294
    H   H51   0.691108  0.952365  0.065275  0.083184
    H   H52   0.692924  0.911922  0.129996  0.084013
    H   H53   0.192944  0.588100  0.129948  0.083893
    H   H54   0.191096  0.547617  0.065251  0.082878
    H   H55   0.304048  0.587723  0.239527  0.083300
    H   H56   0.302200  0.547562  0.174393  0.071517
    H   H57   0.802215  0.952434  0.174503  0.071059
    H   H58   0.804027  0.912314  0.239656  0.082974
    C   C121  0.718754  0.527459  0.686331  0.146844
    C   C122  0.218662  0.972363  0.686527  0.144674
    C   C123  0.685561  0.499106  0.686002  -0.100545
    C   C124  0.185472  0.000836  0.685986  -0.099762
    C   C125  0.718216  0.469578  0.752114  -0.195245
    C   C126  0.218127  0.030499  0.751836  -0.196031
    H   H59   0.694290  0.446332  0.754762  0.158745
    H   H60   0.194198  0.053845  0.754295  0.158968
    C   C127  0.281782  0.031298  0.813573  -0.153259
    C   C128  0.781872  0.468784  0.813894  -0.155156
    H   H61   0.306337  0.055024  0.863663  0.143790
    H   H62   0.806432  0.445166  0.864198  0.144957
    C   C129  0.313472  0.001123  0.812600  -0.070271
    C   C130  0.813563  0.498844  0.812704  -0.068599
    C   C131  0.279215  0.971735  0.747791  0.097776
    C   C132  0.779307  0.528109  0.747636  0.094864
    C   C133  0.283727  0.934335  0.712357  -0.095658
    C   C134  0.783816  0.565386  0.711956  -0.092439
    C   C135  0.712512  0.564731  0.640102  -0.177564
    C   C136  0.212421  0.934962  0.640556  -0.176095
    H   H63   0.303176  0.906859  0.756177  0.064394
    H   H64   0.303532  0.941816  0.687075  0.031306
    H   H65   0.803655  0.557780  0.686774  0.029675
    H   H66   0.803220  0.592945  0.755564  0.063722
    H   H67   0.692624  0.556840  0.574858  0.079095
    H   H68   0.692159  0.591818  0.643922  0.076834
    H   H69   0.192110  0.907945  0.644619  0.076513
    H   H70   0.192489  0.942702  0.575232  0.079070
    C   C137  0.553419  0.921775  0.364014  0.428499
    H   H71   0.551637  0.918843  0.411483  0.035519
    O   O49   0.578258  0.894194  0.359610  -0.475965
    C   C138  0.052081  0.578641  0.362860  0.426634
    H   H72   0.050262  0.581509  0.410300  0.036698
    O   O50   0.076440  0.606449  0.358024  -0.475674
