# generated using pymatgen
data_ZnH25C35N3O4
_symmetry_space_group_name_H-M   'P 1'
_cell_length_a   19.42886400
_cell_length_b   18.27603500
_cell_length_c   10.76794300
_cell_angle_alpha   90.00000000
_cell_angle_beta   90.01670600
_cell_angle_gamma   90.00000000
_symmetry_Int_Tables_number   1
_chemical_formula_structural   ZnH25C35N3O4
_chemical_formula_sum   'Zn2 H50 C70 N6 O8'
_cell_volume   3823.50901813
_cell_formula_units_Z   2
loop_
 _symmetry_equiv_pos_site_id
 _symmetry_equiv_pos_as_xyz
  1  'x, y, z'
loop_
 _atom_site_type_symbol
 _atom_site_label
 _atom_site_symmetry_multiplicity
 _atom_site_fract_x
 _atom_site_fract_y
 _atom_site_fract_z
 _atom_site_occupancy
  Zn  Zn1  1  0.50004000  0.58337900  0.49977200  1
  Zn  Zn2  1  0.49995600  0.41666700  0.50037400  1
  H  H1  1  0.39937800  0.43579700  0.92231400  1
  H  H2  1  0.60062200  0.56424700  0.07782300  1
  H  H3  1  0.39714800  0.56010900  0.07775000  1
  H  H4  1  0.60285200  0.43993700  0.92240100  1
  H  H5  1  0.49773900  0.62536800  0.92491900  1
  H  H6  1  0.50226300  0.37467800  0.07522700  1
  H  H7  1  0.71764300  0.42081200  0.35470300  1
  H  H8  1  0.28229400  0.57921200  0.35452000  1
  H  H9  1  0.28231100  0.42120300  0.64552500  1
  H  H10  1  0.71772800  0.57889500  0.64558000  1
  H  H11  1  0.84308500  0.42393900  0.34895000  1
  H  H12  1  0.15684900  0.57611600  0.34884000  1
  H  H13  1  0.15687200  0.42427700  0.65109000  1
  H  H14  1  0.84317500  0.57584800  0.65110100  1
  H  H15  1  0.57658800  0.69934100  0.63757900  1
  H  H16  1  0.42324700  0.30069800  0.36285900  1
  H  H17  1  0.42374600  0.69944500  0.36130000  1
  H  H18  1  0.57641500  0.30061000  0.63855000  1
  H  H19  1  0.57867100  0.83267700  0.63895700  1
  H  H20  1  0.42120700  0.16735300  0.36143800  1
  H  H21  1  0.42175600  0.83279100  0.36007100  1
  H  H22  1  0.57839600  0.16725600  0.63980300  1
  H  H23  1  0.48981400  0.93408400  0.30208100  1
  H  H24  1  0.51022900  0.06598200  0.69804000  1
  H  H25  1  0.51039800  0.93365000  0.69759300  1
  H  H26  1  0.48961200  0.06641600  0.30254800  1
  H  H27  1  0.94009800  0.67037000  0.55079500  1
  H  H28  1  0.92229300  0.77289400  0.42980900  1
  H  H29  1  0.91853000  0.82729100  0.22259000  1
  H  H30  1  0.91885200  0.74879700  0.03723700  1
  H  H31  1  0.92229400  0.61510800  0.06010300  1
  H  H32  1  0.92546000  0.55938800  0.26406400  1
  H  H33  1  0.05991300  0.32973000  0.55085400  1
  H  H34  1  0.07764300  0.22718300  0.42991700  1
  H  H35  1  0.08134300  0.17275000  0.22272600  1
  H  H36  1  0.08099900  0.25121300  0.03733500  1
  H  H37  1  0.07759200  0.38490700  0.06013300  1
  H  H38  1  0.07448400  0.44066100  0.26406800  1
  H  H39  1  0.05961300  0.67050300  0.44891500  1
  H  H40  1  0.07764100  0.77301200  0.56991900  1
  H  H41  1  0.08147800  0.82739000  0.77715000  1
  H  H42  1  0.08103700  0.74888500  0.96248800  1
  H  H43  1  0.07738700  0.61520400  0.93959600  1
  H  H44  1  0.07415000  0.55950200  0.73564700  1
  H  H45  1  0.94036300  0.32958400  0.44898500  1
  H  H46  1  0.92243100  0.22707900  0.57001100  1
  H  H47  1  0.91867600  0.17271300  0.77725100  1
  H  H48  1  0.91914200  0.25123000  0.96257400  1
  H  H49  1  0.92273700  0.38491100  0.93965800  1
  H  H50  1  0.92589600  0.44060100  0.73569600  1
  C  C1  1  0.36546800  0.50016300  0.50000900  1
  C  C2  1  0.63452700  0.49988300  0.50014100  1
  C  C3  1  0.50000400  0.49974800  0.25731900  1
  C  C4  1  0.49999300  0.50029800  0.74282500  1
  C  C5  1  0.44387400  0.53288900  0.04082800  1
  C  C6  1  0.55612500  0.46715900  0.95931600  1
  C  C7  1  0.49879100  0.56836400  0.96019500  1
  C  C8  1  0.50120500  0.43168100  0.03995000  1
  C  C9  1  0.44507100  0.46494100  0.95926500  1
  C  C10  1  0.55492900  0.53510100  0.04088000  1
  C  C11  1  0.49999000  0.50040000  0.88089900  1
  C  C12  1  0.50000800  0.49964600  0.11924500  1
  C  C13  1  0.74525100  0.45522400  0.41941800  1
  C  C14  1  0.25471200  0.54481800  0.41927200  1
  C  C15  1  0.25472200  0.45559100  0.58075000  1
  C  C16  1  0.74529800  0.54449300  0.58082900  1
  C  C17  1  0.81620500  0.45671900  0.41695700  1
  C  C18  1  0.18375600  0.54334200  0.41685100  1
  C  C19  1  0.18377000  0.45705500  0.58310700  1
  C  C20  1  0.81625200  0.54304500  0.58315400  1
  C  C21  1  0.85244000  0.49990800  0.50000300  1
  C  C22  1  0.14755200  0.50017800  0.49994100  1
  C  C23  1  0.70966600  0.49985700  0.50014300  1
  C  C24  1  0.29032700  0.50019400  0.50000900  1
  C  C25  1  0.96425200  0.56566700  0.49550400  1
  C  C26  1  0.03573900  0.43442300  0.49551400  1
  C  C27  1  0.03563000  0.56573700  0.50416400  1
  C  C28  1  0.96436500  0.43435400  0.50420800  1
  C  C29  1  0.07157300  0.50011400  0.49985500  1
  C  C30  1  0.92841900  0.49997600  0.49988900  1
  C  C31  1  0.54257900  0.72928400  0.57650900  1
  C  C32  1  0.45733300  0.27075800  0.42379100  1
  C  C33  1  0.45780100  0.72934100  0.42234800  1
  C  C34  1  0.54228700  0.27071000  0.57764000  1
  C  C35  1  0.54320200  0.80472900  0.57791700  1
  C  C36  1  0.45672900  0.19531300  0.42236400  1
  C  C37  1  0.45722800  0.80479100  0.42103400  1
  C  C38  1  0.54286400  0.19525900  0.57895900  1
  C  C39  1  0.50020300  0.84341600  0.49954600  1
  C  C40  1  0.49981300  0.15663400  0.50058800  1
  C  C41  1  0.49333900  0.96242100  0.38991800  1
  C  C42  1  0.50669500  0.03763700  0.61020900  1
  C  C43  1  0.50679900  0.96218400  0.60994800  1
  C  C44  1  0.49322200  0.03787500  0.39018500  1
  C  C45  1  0.49989900  0.07612600  0.50033100  1
  C  C46  1  0.50012600  0.92392900  0.49980000  1
  C  C47  1  0.92554400  0.66237400  0.36318700  1
  C  C48  1  0.92271400  0.73756200  0.34928900  1
  C  C49  1  0.92049700  0.76847100  0.23257900  1
  C  C50  1  0.92067200  0.72453400  0.12873400  1
  C  C51  1  0.92271300  0.64959800  0.14165500  1
  C  C52  1  0.92497500  0.61833600  0.25818800  1
  C  C53  1  0.07440100  0.33769200  0.36323900  1
  C  C54  1  0.07721100  0.26250100  0.34937900  1
  C  C55  1  0.07939200  0.23157200  0.23268500  1
  C  C56  1  0.07920500  0.27549200  0.12881900  1
  C  C57  1  0.07718300  0.35043000  0.14170300  1
  C  C58  1  0.07495400  0.38171300  0.25822000  1
  C  C59  1  0.07423100  0.66249400  0.63651700  1
  C  C60  1  0.07716000  0.73767600  0.65043200  1
  C  C61  1  0.07942000  0.76857500  0.76714800  1
  C  C62  1  0.07918000  0.72463200  0.87098500  1
  C  C63  1  0.07702500  0.64970100  0.85805000  1
  C  C64  1  0.07472600  0.61844800  0.74151300  1
  C  C65  1  0.92582000  0.33760300  0.63658900  1
  C  C66  1  0.92292200  0.26242000  0.65051800  1
  C  C67  1  0.92070900  0.23152900  0.76723900  1
  C  C68  1  0.92096400  0.27547800  0.87106700  1
  C  C69  1  0.92308800  0.35040900  0.85811900  1
  C  C70  1  0.92534300  0.38165500  0.74157600  1
  N  N1  1  0.50015700  0.69282700  0.49944800  1
  N  N2  1  0.49983800  0.30722000  0.50070000  1
  N  N3  1  0.92747000  0.63221000  0.48447000  1
  N  N4  1  0.07251600  0.36787800  0.48450700  1
  N  N5  1  0.07229900  0.63234800  0.51521800  1
  N  N6  1  0.92770300  0.36774100  0.51528500  1
  O  O1  1  0.39746900  0.56339600  0.49844300  1
  O  O2  1  0.60252700  0.43664700  0.49903900  1
  O  O3  1  0.60256600  0.56314800  0.50121300  1
  O  O4  1  0.39742900  0.43690200  0.50159600  1
  O  O5  1  0.50061600  0.56305800  0.31471600  1
  O  O6  1  0.50062900  0.43698800  0.68543000  1
  O  O7  1  0.49936200  0.56345200  0.68494900  1
  O  O8  1  0.49938400  0.43659500  0.31519600  1
