# generated using pymatgen
data_Zn6H32C43O24
_symmetry_space_group_name_H-M   'P 1'
_cell_length_a   18.89778300
_cell_length_b   19.02845400
_cell_length_c   19.18480800
_cell_angle_alpha   109.24580300
_cell_angle_beta   110.08878500
_cell_angle_gamma   108.59402900
_symmetry_Int_Tables_number   1
_chemical_formula_structural   Zn6H32C43O24
_chemical_formula_sum   'Zn6 H32 C43 O24'
_cell_volume   5341.54390232
_cell_formula_units_Z   1
loop_
 _symmetry_equiv_pos_site_id
 _symmetry_equiv_pos_as_xyz
  1  'x, y, z'
loop_
 _atom_site_type_symbol
 _atom_site_label
 _atom_site_symmetry_multiplicity
 _atom_site_fract_x
 _atom_site_fract_y
 _atom_site_fract_z
 _atom_site_occupancy
  Zn  Zn1  1  0.51197700  0.43379700  0.42726200  1
  Zn  Zn2  1  0.49909300  0.56589100  0.55567100  1
  Zn  Zn3  1  0.94783300  0.43910800  0.00354300  1
  Zn  Zn4  1  0.08305800  0.57607100  0.00217500  1
  Zn  Zn5  1  0.93617800  0.00192300  0.44018700  1
  Zn  Zn6  1  0.08645800  0.00629600  0.57076200  1
  H  H1  1  0.29931000  0.64693000  0.28476300  1
  H  H2  1  0.40408800  0.57479600  0.25906600  1
  H  H3  1  0.25742100  0.43568700  0.10494500  1
  H  H4  1  0.22586200  0.35078300  0.19621900  1
  H  H5  1  0.12186600  0.42299400  0.22279600  1
  H  H6  1  0.26694400  0.56214900  0.37522200  1
  H  H7  1  0.75269200  0.87307600  0.50113500  1
  H  H8  1  0.86167500  0.79010200  0.55155700  1
  H  H9  1  0.66268900  0.78234900  0.54351000  1
  H  H10  1  0.72498800  0.66575400  0.46339800  1
  H  H11  1  0.89354200  0.53096700  0.75742700  1
  H  H12  1  0.75896900  0.47556500  0.80991000  1
  H  H13  1  0.75937900  0.48386900  0.62201900  1
  H  H14  1  0.70215800  0.54397400  0.75082200  1
  H  H15  1  0.27417400  0.24890900  0.61860300  1
  H  H16  1  0.15707400  0.19226800  0.43232700  1
  H  H17  1  0.35690400  0.38131100  0.61554500  1
  H  H18  1  0.29003300  0.24687800  0.43389100  1
  H  H19  1  0.08113800  0.79322000  0.39926300  1
  H  H20  1  0.94967000  0.78894800  0.24826900  1
  H  H21  1  0.01718100  0.74387600  0.18077600  1
  H  H22  1  0.88706700  0.14368700  0.63101900  1
  H  H23  1  0.07870800  0.22555900  0.75998700  1
  H  H24  1  0.88970900  0.23407400  0.76478100  1
  H  H25  1  0.07057900  0.34870300  0.80514400  1
  H  H26  1  0.04313300  0.58127400  0.23946900  1
  H  H27  1  0.16361700  0.72826200  0.42198800  1
  H  H28  1  0.18952300  0.71191700  0.33739200  1
  H  H29  1  0.16528700  0.63172400  0.36890500  1
  H  H30  1  0.01499300  0.65421100  0.38889400  1
  H  H31  1  0.00764700  0.55189600  0.33754200  1
  H  H32  1  0.92955500  0.57630800  0.28019200  1
  C  C1  1  0.62288100  0.61936200  0.49210200  1
  C  C2  1  0.38493700  0.49272100  0.36580000  1
  C  C3  1  0.38851400  0.37971200  0.49085100  1
  C  C4  1  0.62726100  0.50863600  0.61759000  1
  C  C5  1  0.33909600  0.54051600  0.24987600  1
  C  C6  1  0.28346800  0.57970900  0.26534900  1
  C  C7  1  0.20614700  0.50342300  0.18392700  1
  C  C8  1  0.26053800  0.46419400  0.16723000  1
  C  C9  1  0.24184800  0.41802600  0.21558700  1
  C  C10  1  0.18640500  0.45728800  0.23106900  1
  C  C11  1  0.26472300  0.53358300  0.31341800  1
  C  C12  1  0.31921200  0.49436000  0.29696200  1
  C  C13  1  0.76693000  0.82670300  0.51476400  1
  C  C14  1  0.84219200  0.82933600  0.52827100  1
  C  C15  1  0.70400100  0.76500600  0.52245800  1
  C  C16  1  0.69022500  0.68527900  0.49334400  1
  C  C17  1  0.83251600  0.51564300  0.75601600  1
  C  C18  1  0.82234500  0.50134000  0.81641300  1
  C  C19  1  0.75925400  0.50137600  0.68174300  1
  C  C20  1  0.69730200  0.51675000  0.68901000  1
  C  C21  1  0.25664000  0.24844900  0.55834800  1
  C  C22  1  0.17983500  0.18781000  0.48999100  1
  C  C23  1  0.31495100  0.32051800  0.55703500  1
  C  C24  1  0.32425900  0.30988100  0.48903200  1
  C  C25  1  0.01562900  0.62363800  0.12354200  1
  C  C26  1  0.13843600  0.50701100  0.11895200  1
  C  C27  1  0.01606700  0.39217000  0.88288000  1
  C  C28  1  0.89209100  0.50651600  0.88556700  1
  C  C29  1  0.01875200  0.12347600  0.62917200  1
  C  C30  1  0.90214400  0.88995400  0.51761900  1
  C  C31  1  0.00263100  0.88291400  0.38175700  1
  C  C32  1  0.12060700  0.12013800  0.49490200  1
  C  C33  1  0.04127700  0.77282000  0.33286900  1
  C  C34  1  0.99598500  0.81197700  0.31373800  1
  C  C35  1  0.03395800  0.69808400  0.26745600  1
  C  C36  1  0.01804300  0.69138700  0.19090700  1
  C  C37  1  0.94793800  0.18996800  0.68955300  1
  C  C38  1  0.01983300  0.18665200  0.69856200  1
  C  C39  1  0.94808000  0.25075200  0.76077000  1
  C  C40  1  0.01604000  0.32842900  0.81492400  1
  C  C41  1  0.05462800  0.63698200  0.29322200  1
  C  C42  1  0.14926900  0.68043400  0.35990800  1
  C  C43  1  0.99818900  0.60306200  0.32740600  1
  O  O1  1  0.59879300  0.54036800  0.44125200  1
  O  O2  1  0.59105000  0.64091900  0.54181100  1
  O  O3  1  0.42016900  0.44547600  0.34588200  1
  O  O4  1  0.40682900  0.54190200  0.44438800  1
  O  O5  1  0.41958900  0.35896300  0.44059200  1
  O  O6  1  0.41297700  0.45903200  0.54236000  1
  O  O7  1  0.60421300  0.45757600  0.53870900  1
  O  O8  1  0.59157600  0.55513900  0.63697300  1
  O  O9  1  0.96156100  0.54352800  0.09377000  1
  O  O10  1  0.06675800  0.64714100  0.09414400  1
  O  O11  1  0.05785700  0.45688900  0.09301700  1
  O  O12  1  0.16168500  0.55876800  0.08992800  1
  O  O13  1  0.96274800  0.36788500  0.91023300  1
  O  O14  1  0.07036100  0.47189900  0.91298300  1
  O  O15  1  0.86940000  0.45718400  0.91673900  1
  O  O16  1  0.97286000  0.55687000  0.91124600  1
  O  O17  1  0.95906600  0.09231900  0.55021900  1
  O  O18  1  0.07663100  0.09910000  0.65003300  1
  O  O19  1  0.87000700  0.91329100  0.46266600  1
  O  O20  1  0.98524800  0.91963900  0.56489500  1
  O  O21  1  0.94560300  0.90845800  0.36105300  1
  O  O22  1  0.06324100  0.91584500  0.46061800  1
  O  O23  1  0.03750700  0.08842900  0.44611400  1
  O  O24  1  0.15260600  0.09587500  0.54908800  1
