# Generated by REPEAT Assigner based on pymatgen
data_DB0-m29_o89_o530_f0_pts.sym.52
_audit_creation_date              2022-05-24
_audit_creation_method            REPEAT_Assigner
_cell_length_a                    14.154198
_cell_length_b                    18.448719
_cell_length_c                    13.180644
_cell_angle_alpha                 95.244561
_cell_angle_beta                  93.143098
_cell_angle_gamma                 75.848660
_cell_volume                      3321.519560
_symmetry_space_group_name_H-M    P1
_symmetry_Int_Tables_number       1
loop_
    _symmetry_equiv_pos_site_id
    _symmetry_equiv_pos_as_xyz
    1  x,y,z
loop_
    _atom_site_type_symbol
    _atom_site_label
    _atom_site_fract_x
    _atom_site_fract_y
    _atom_site_fract_z
    _atom_type_partial_charge
    C   C1   0.858958  0.988446  0.123781  -0.269190
    C   C2   0.767075  0.988673  0.081472  0.095000
    C   C3   0.751439  0.992891  0.976372  -0.153568
    C   C4   0.826765  0.999085  0.917908  -0.102020
    C   C5   0.917688  0.999196  0.960902  0.075890
    C   C6   0.934548  0.994101  0.064222  0.265175
    C   C7   0.991694  0.003709  0.899540  -0.280960
    C   C8   0.083088  0.004343  0.941062  0.240018
    C   C9   0.100776  0.000136  0.044411  0.128203
    C   C10  0.026717  0.994582  0.106627  -0.277968
    C   C11  0.156405  0.009410  0.878619  -0.191218
    C   C12  0.248412  0.012133  0.918357  -0.041245
    C   C13  0.264920  0.010734  0.023740  -0.029163
    C   C14  0.192058  0.003479  0.084675  -0.217191
    H   H1   0.869777  0.985167  0.204905  0.139744
    H   H2   0.815180  0.001732  0.836464  0.175224
    H   H3   0.977747  0.007217  0.818450  0.163357
    H   H4   0.140741  0.011103  0.797622  0.152492
    H   H5   0.207889  0.003734  0.165610  0.205940
    N   N1   0.014747  0.046635  0.287216  -0.249040
    C   C15  0.044833  0.021024  0.378744  -0.080953
    C   C16  0.095370  0.946788  0.366325  -0.179535
    C   C17  0.095891  0.926652  0.262859  -0.195887
    C   C18  0.045631  0.989539  0.216569  0.351558
    H   H6   0.974938  0.100601  0.273648  0.296408
    H   H7   0.030692  0.054384  0.450543  0.157119
    H   H8   0.127990  0.911313  0.426107  0.161535
    H   H9   0.128927  0.872400  0.225576  0.143524
    O   O1   0.596826  0.010874  0.121623  -0.582794
    C   C19  0.688580  0.988917  0.151215  0.591118
    O   O2   0.610994  0.843696  0.222732  -0.502466
    O   O3   0.710170  0.972929  0.245956  -0.491418
    O   O4   0.533327  0.938546  0.334913  -0.609305
    C   C20  0.581975  0.868728  0.315047  0.647420
    Fe  Fe1  0.502641  0.008863  0.226242  1.511275
    O   O5   0.389318  0.977281  0.153215  -0.694871
    O   O6   0.392003  0.075974  0.063439  -0.482253
    C   C21  0.355898  0.018546  0.076941  0.826766
    O   O7   0.484518  0.112376  0.296161  -0.682979
    O   O8   0.324466  0.111977  0.275297  -0.593760
    C   C22  0.392915  0.142539  0.317439  0.761028
    O   O9   0.512969  0.908081  0.698403  -0.646029
    O   O10  0.676160  0.889047  0.730194  -0.544243
    C   C23  0.602373  0.868963  0.681270  0.683800
    O   O11  0.630014  0.029125  0.844155  -0.700764
    O   O12  0.614025  0.937354  0.941044  -0.487204
    C   C24  0.659142  0.988739  0.922237  0.857290
    O   O13  0.305430  0.012187  0.748442  -0.523403
    O   O14  0.483951  0.082277  0.668997  -0.588614
    C   C25  0.415088  0.144078  0.683990  0.544715
    O   O15  0.415270  0.010643  0.880314  -0.604897
    C   C26  0.325572  0.012755  0.846846  0.685636
    O   O16  0.369911  0.160078  0.770449  -0.488196
    Fe  Fe2  0.508956  0.008520  0.773274  1.503359
    C   C27  0.888302  0.658904  0.450363  0.411058
    N   N2   0.799804  0.656786  0.480368  -0.126434
    C   C28  0.784607  0.594969  0.517470  0.307598
    C   C29  0.861055  0.531297  0.526417  0.224454
    C   C30  0.952609  0.533579  0.496104  -0.156995
    C   C31  0.965828  0.597343  0.457430  -0.014396
    C   C32  0.850019  0.465756  0.565624  -0.232741
    C   C33  0.929461  0.405765  0.573359  0.160612
    C   C34  0.019966  0.408739  0.543195  -0.184940
    C   C35  0.031362  0.472675  0.504731  0.212914
    C   C36  0.122093  0.475133  0.474417  -0.154715
    C   C37  0.134873  0.539160  0.436238  -0.006687
    C   C38  0.057098  0.600043  0.428039  -0.089729
    C   C39  0.098785  0.347518  0.549520  0.433111
    N   N3   0.186753  0.350460  0.518196  -0.134057
    C   C40  0.199418  0.413098  0.481359  0.457194
    O   O17  0.901714  0.722331  0.417311  -0.461076
    O   O18  0.694445  0.596702  0.545622  -0.424381
    H   H10  0.918717  0.356066  0.603831  0.007753
    O   O19  0.087022  0.283821  0.583280  -0.438556
    O   O20  0.287910  0.414968  0.451198  -0.469376
    H   H11  0.205259  0.542751  0.412279  0.118811
    H   H12  0.069249  0.649526  0.398241  0.132106
    C   C41  0.296166  0.250879  0.419956  -0.265178
    H   H13  0.259672  0.272769  0.351044  0.142837
    C   C42  0.371923  0.187975  0.413608  0.070395
    C   C43  0.415327  0.157943  0.501149  -0.195124
    C   C44  0.379951  0.187628  0.595666  0.131358
    C   C45  0.305234  0.252170  0.602264  -0.250245
    H   H14  0.276983  0.276504  0.675475  0.159336
    C   C46  0.264894  0.284767  0.514056  0.265150
    C   C47  0.693743  0.758516  0.578317  -0.224613
    H   H15  0.729457  0.735856  0.647133  0.145539
    C   C48  0.621069  0.823388  0.584822  0.053687
    C   C49  0.579402  0.854450  0.497280  -0.129442
    C   C50  0.613532  0.823668  0.402684  0.010840
    C   C51  0.684413  0.756809  0.395887  -0.214055
    H   H16  0.712203  0.731907  0.322729  0.160883
    C   C52  0.723273  0.723540  0.484205  0.274588
    H   H17  0.470589  0.105976  0.493375  0.147691
    H   H18  0.526158  0.907501  0.504821  0.137177
    I   I1   0.720172  0.445309  0.617404  0.135190
