# Generated by REPEAT Assigner based on pymatgen
data_DB0-m3_o24_o28_f0_nbo.sym.92_sqe
_audit_creation_date              2022-05-24
_audit_creation_method            REPEAT_Assigner
_cell_length_a                    21.528683
_cell_length_b                    21.528823
_cell_length_c                    46.864706
_cell_angle_alpha                 90.000000
_cell_angle_beta                  90.000000
_cell_angle_gamma                 90.000000
_cell_volume                      21721.191220
_symmetry_space_group_name_H-M    P1
_symmetry_Int_Tables_number       1
loop_
    _symmetry_equiv_pos_site_id
    _symmetry_equiv_pos_as_xyz
    1  x,y,z
loop_
    _atom_site_type_symbol
    _atom_site_label
    _atom_site_fract_x
    _atom_site_fract_y
    _atom_site_fract_z
    _atom_type_partial_charge
    O   O1    0.093685  0.001680  0.484054  -0.729349
    O   O2    0.002713  0.093381  0.484066  -0.728427
    O   O3    0.908590  0.002445  0.485279  -0.743764
    O   O4    0.001986  0.908287  0.485267  -0.744869
    O   O5    0.592007  0.500248  0.984116  -0.728492
    O   O6    0.501045  0.591956  0.984086  -0.727987
    O   O7    0.406908  0.501031  0.985213  -0.744114
    O   O8    0.500296  0.406861  0.985245  -0.743562
    O   O9    0.093231  0.997647  0.533360  -0.723802
    O   O10   0.000990  0.092933  0.533399  -0.720921
    O   O11   0.908184  0.000682  0.534610  -0.704517
    O   O12   0.997994  0.907884  0.534573  -0.706254
    O   O13   0.591407  0.496178  0.033422  -0.721926
    O   O14   0.499170  0.591467  0.033418  -0.722530
    O   O15   0.406357  0.499219  0.034544  -0.706725
    O   O16   0.496163  0.406417  0.034548  -0.704526
    C   C1    0.122214  0.999280  0.508738  0.630366
    C   C2    0.002170  0.121916  0.508772  0.623453
    C   C3    0.879627  0.001938  0.509897  0.626312
    C   C4    0.999719  0.879327  0.509865  0.630726
    C   C5    0.620463  0.497829  0.008818  0.625140
    C   C6    0.500429  0.620470  0.008797  0.631798
    C   C7    0.377874  0.500503  0.009812  0.629007
    C   C8    0.497957  0.377880  0.009836  0.625147
    C   C9    0.999505  0.499595  0.653447  0.199007
    C   C10   0.499889  0.998898  0.653451  0.197884
    C   C11   0.500644  0.000003  0.153453  0.197426
    C   C12   0.999303  0.500649  0.153448  0.199615
    C   C13   0.504146  0.946800  0.375948  -0.051296
    C   C14   0.057031  0.503971  0.375816  -0.044528
    C   C15   0.498490  0.057401  0.375876  -0.047174
    C   C16   0.946428  0.498321  0.375997  -0.050292
    C   C17   0.002520  0.442907  0.875840  -0.046529
    C   C18   0.553292  0.002087  0.875975  -0.050732
    C   C19   0.996863  0.553508  0.875976  -0.047223
    C   C20   0.442685  0.996537  0.875849  -0.044778
    H   H1    0.507369  0.903127  0.364670  0.068244
    H   H2    0.100578  0.507209  0.364437  0.067035
    H   H3    0.495215  0.101001  0.364541  0.066958
    H   H4    0.902703  0.495062  0.364765  0.067643
    H   H5    0.005782  0.399340  0.864478  0.067347
    H   H6    0.596994  0.005280  0.864718  0.068283
    H   H7    0.993624  0.597212  0.864725  0.067037
    H   H8    0.399108  0.993316  0.864493  0.066871
    Zn  Zn1   0.000903  0.000617  0.476955  1.360144
    Zn  Zn2   0.499249  0.499200  0.976953  1.358970
    Zn  Zn3   0.000964  0.000603  0.541689  1.331166
    Zn  Zn4   0.499113  0.499128  0.041687  1.331467
    C   C21   0.501334  0.002233  0.420141  -0.045425
    C   C22   0.002067  0.501150  0.420135  -0.045765
    C   C23   0.999615  0.497944  0.920136  -0.044285
    C   C24   0.497751  0.999321  0.920141  -0.045599
    C   C25   0.501254  0.002049  0.361043  0.148608
    C   C26   0.001611  0.501133  0.361038  0.145296
    C   C27   0.999694  0.498298  0.861039  0.145186
    C   C28   0.498073  0.999277  0.861043  0.145156
    C   C29   0.019834  0.231403  0.533688  -0.129495
    C   C30   0.769797  0.019326  0.534508  -0.134025
    C   C31   0.982029  0.769476  0.534416  -0.124205
    C   C32   0.231724  0.981262  0.533597  -0.125960
    C   C33   0.518339  0.729952  0.033692  -0.122352
    C   C34   0.268030  0.518245  0.034333  -0.124810
    C   C35   0.480446  0.268034  0.034403  -0.131068
    C   C36   0.729957  0.480121  0.033763  -0.133273
    C   C37   0.963441  0.271753  0.527432  -0.141064
    C   C38   0.729520  0.963038  0.527967  -0.131113
    C   C39   0.038335  0.729153  0.527970  -0.144184
    C   C40   0.272099  0.037688  0.527442  -0.145516
    C   C41   0.461923  0.770339  0.027525  -0.139295
    C   C42   0.227715  0.461919  0.027915  -0.140392
    C   C43   0.536747  0.227747  0.027904  -0.147802
    C   C44   0.770299  0.536515  0.027500  -0.141554
    H   H9    0.930966  0.290921  0.543546  0.060795
    H   H10   0.710116  0.930348  0.543928  0.058765
    H   H11   0.070860  0.709676  0.543984  0.060193
    H   H12   0.291323  0.070000  0.543611  0.059900
    H   H13   0.429586  0.789549  0.043687  0.058067
    H   H14   0.208246  0.429427  0.043945  0.058198
    H   H15   0.569366  0.208319  0.043890  0.063309
    H   H16   0.789463  0.569005  0.043608  0.061501
    H   H17   0.034100  0.214274  0.555017  0.056055
    H   H18   0.786628  0.033286  0.555929  0.056407
    H   H19   0.967889  0.786261  0.555820  0.055607
    H   H20   0.214639  0.966800  0.554905  0.056337
    H   H21   0.532759  0.712819  0.054998  0.053843
    H   H22   0.284848  0.532430  0.055725  0.055086
    H   H23   0.466402  0.284823  0.055820  0.057767
    H   H24   0.712856  0.465860  0.055098  0.057140
    C   C45   0.002881  0.310286  0.507477  0.418958
    C   C46   0.691281  0.002775  0.508018  0.407924
    C   C47   0.998746  0.690980  0.507933  0.417396
    C   C48   0.310587  0.998422  0.507398  0.420169
    C   C49   0.501230  0.808844  0.007503  0.421594
    C   C50   0.189531  0.501461  0.007863  0.423910
    C   C51   0.497082  0.189538  0.007914  0.413615
    C   C52   0.808837  0.497075  0.007547  0.413017
    C   C53   0.059306  0.270926  0.513738  -0.157697
    C   C54   0.730569  0.059096  0.514560  -0.152822
    C   C55   0.942405  0.730319  0.514379  -0.157060
    C   C56   0.271199  0.941960  0.513557  -0.153604
    C   C57   0.557677  0.769445  0.013675  -0.156014
    C   C58   0.228862  0.557822  0.014282  -0.160423
    C   C59   0.440745  0.228838  0.014413  -0.152548
    C   C60   0.769488  0.440646  0.013815  -0.149992
    C   C61   0.042044  0.229069  0.488786  -0.109697
    C   C62   0.772770  0.042170  0.489679  -0.107756
    C   C63   0.959603  0.772536  0.489543  -0.103853
    C   C64   0.229321  0.959484  0.488647  -0.113415
    C   C65   0.540191  0.727594  0.988753  -0.113185
    C   C66   0.271075  0.540578  0.989450  -0.104364
    C   C67   0.457786  0.271052  0.989554  -0.104752
    C   C68   0.727622  0.457887  0.988861  -0.115086
    C   C69   0.985724  0.269137  0.482892  0.003693
    C   C70   0.732762  0.985948  0.483503  0.021553
    C   C71   0.015844  0.732481  0.483463  0.014040
    C   C72   0.269416  0.015839  0.482858  0.005325
    C   C73   0.483852  0.767695  0.982949  0.003364
    C   C74   0.231024  0.484320  0.983398  -0.005361
    C   C75   0.514024  0.231031  0.983420  0.014754
    C   C76   0.767679  0.514212  0.982961  0.023973
    C   C77   0.945897  0.229855  0.502457  -0.171917
    C   C78   0.771755  0.945829  0.503064  -0.179671
    C   C79   0.055814  0.771410  0.503117  -0.172650
    C   C80   0.230180  0.055491  0.502517  -0.168974
    C   C81   0.444158  0.728442  0.002584  -0.168457
    C   C82   0.269965  0.444393  0.003066  -0.164379
    C   C83   0.554073  0.269996  0.003023  -0.171266
    C   C84   0.728397  0.554036  0.002524  -0.179548
    C   C85   0.002497  0.190819  0.508714  0.351523
    C   C86   0.810725  0.002325  0.509603  0.346022
    C   C87   0.999296  0.810424  0.509557  0.338478
    C   C88   0.191118  0.998855  0.508668  0.345869
    C   C89   0.500782  0.689373  0.008749  0.339791
    C   C90   0.308973  0.500929  0.009480  0.339125
    C   C91   0.497560  0.308978  0.009520  0.345069
    C   C92   0.689368  0.497434  0.008787  0.354733
    H   H25   0.106454  0.288908  0.518471  0.061782
    H   H26   0.712530  0.106179  0.519381  0.060840
    H   H27   0.895247  0.712351  0.519101  0.062268
    H   H28   0.289132  0.894746  0.518187  0.061362
    H   H29   0.604887  0.787367  0.018326  0.061992
    H   H30   0.210887  0.604986  0.018984  0.063246
    H   H31   0.393637  0.210809  0.019191  0.060226
    H   H32   0.787481  0.393504  0.018553  0.060310
    H   H33   0.074329  0.210075  0.472545  0.046186
    H   H34   0.792009  0.074669  0.473589  0.044377
    H   H35   0.927280  0.791850  0.473398  0.041388
    H   H36   0.210265  0.927374  0.472349  0.044540
    H   H37   0.572341  0.708580  0.972460  0.046652
    H   H38   0.290356  0.572880  0.973288  0.044551
    H   H39   0.425372  0.290339  0.973440  0.042177
    H   H40   0.708604  0.425601  0.972627  0.043678
    H   H41   0.899009  0.210436  0.498481  0.077777
    H   H42   0.791212  0.898992  0.499001  0.078854
    H   H43   0.102708  0.790839  0.499165  0.078580
    H   H44   0.210767  0.102426  0.498656  0.077578
    H   H45   0.397228  0.709040  0.998697  0.076756
    H   H46   0.289394  0.397494  0.999128  0.076229
    H   H47   0.600933  0.289444  0.999007  0.078297
    H   H48   0.708964  0.600917  0.998548  0.079031
    C   C93   0.504223  0.946827  0.405328  -0.055546
    C   C94   0.057320  0.504023  0.405201  -0.058337
    C   C95   0.498480  0.057555  0.405260  -0.057532
    C   C96   0.946591  0.498288  0.405376  -0.054996
    C   C97   0.002524  0.442668  0.905223  -0.057516
    C   C98   0.553196  0.002150  0.905355  -0.056223
    C   C99   0.996780  0.553395  0.905356  -0.058327
    C   C100  0.442462  0.996511  0.905233  -0.056758
    H   H49   0.506944  0.902938  0.416424  0.095806
    H   H50   0.101318  0.506725  0.416208  0.095206
    H   H51   0.495764  0.101503  0.416308  0.095613
    H   H52   0.902752  0.495559  0.416514  0.095615
    H   H53   0.005216  0.398687  0.916246  0.095574
    H   H54   0.597062  0.004829  0.916473  0.095777
    H   H55   0.994036  0.597253  0.916478  0.096026
    H   H56   0.398485  0.993838  0.916259  0.094540
    O   O17   0.945608  0.501529  0.549786  -0.695876
    O   O18   0.499521  0.945245  0.549743  -0.696048
    O   O19   0.052814  0.499169  0.549680  -0.711891
    O   O20   0.501831  0.052452  0.549730  -0.712397
    O   O21   0.447187  0.000294  0.049702  -0.711338
    O   O22   0.997857  0.447286  0.049693  -0.712058
    O   O23   0.554393  0.997927  0.049776  -0.695568
    O   O24   0.000148  0.554493  0.049775  -0.695894
    C   C101  0.999249  0.500225  0.563066  0.698973
    C   C102  0.500629  0.998839  0.563069  0.697291
    C   C103  0.500765  0.999136  0.063072  0.697148
    C   C104  0.998921  0.500864  0.063067  0.698699
    O   O25   0.949017  0.407962  0.507645  -0.727345
    O   O26   0.593632  0.948880  0.507860  -0.727189
    O   O27   0.052527  0.593309  0.506613  -0.727431
    O   O28   0.408246  0.052274  0.506409  -0.727284
    O   O29   0.447427  0.906531  0.006458  -0.725667
    O   O30   0.091895  0.447622  0.006583  -0.727300
    O   O31   0.550929  0.091865  0.007813  -0.727831
    O   O32   0.906484  0.550994  0.007677  -0.727639
    O   O33   0.056291  0.408050  0.506464  -0.700303
    O   O34   0.593504  0.056157  0.506767  -0.700483
    O   O35   0.945272  0.593216  0.507963  -0.701760
    O   O36   0.408380  0.945013  0.507668  -0.700784
    O   O37   0.554683  0.906612  0.007777  -0.699874
    O   O38   0.091736  0.554880  0.007908  -0.701267
    O   O39   0.443652  0.091791  0.006660  -0.700932
    O   O40   0.906637  0.443723  0.006521  -0.701945
    C   C105  0.002707  0.379214  0.507030  0.558572
    C   C106  0.622359  0.002585  0.507369  0.560646
    C   C107  0.998848  0.622056  0.507300  0.560031
    C   C108  0.379519  0.998574  0.506969  0.558239
    C   C109  0.501109  0.877776  0.007069  0.553592
    C   C110  0.120608  0.501321  0.007244  0.558093
    C   C111  0.497240  0.120619  0.007272  0.562710
    C   C112  0.877767  0.497287  0.007087  0.559174
    Zn  Zn5   0.930377  0.500205  0.507139  1.349643
    Zn  Zn6   0.501409  0.930182  0.507087  1.349223
    Zn  Zn7   0.071143  0.501066  0.507282  1.349311
    Zn  Zn8   0.500468  0.070946  0.507343  1.351172
    Zn  Zn9   0.428806  0.998767  0.007305  1.348563
    Zn  Zn10  0.999667  0.428939  0.007295  1.351704
    Zn  Zn11  0.569572  0.999630  0.007127  1.349461
    Zn  Zn12  0.998713  0.569704  0.007128  1.349314
    O   O41   0.948715  0.502215  0.464729  -0.726984
    O   O42   0.499930  0.948685  0.464687  -0.727365
    O   O43   0.055905  0.499618  0.464618  -0.710743
    O   O44   0.502473  0.055876  0.464672  -0.713038
    O   O45   0.443992  0.000599  0.964642  -0.710580
    O   O46   0.998116  0.444158  0.964631  -0.712898
    O   O47   0.551182  0.997999  0.964718  -0.726844
    O   O48   0.000647  0.551350  0.964719  -0.726179
    C   C113  0.002261  0.501038  0.451352  0.736008
    C   C114  0.501243  0.002285  0.451358  0.737451
    C   C115  0.497618  0.999289  0.951358  0.736222
    C   C116  0.999482  0.497790  0.951354  0.736164
    C   C117  0.544237  0.034908  0.316149  0.636674
    C   C118  0.968079  0.544288  0.316292  0.631958
    C   C119  0.457736  0.968732  0.316340  0.632079
    C   C120  0.034266  0.457795  0.316186  0.626155
    C   C121  0.042904  0.531678  0.816275  0.635780
    C   C122  0.465326  0.042421  0.816167  0.630189
    C   C123  0.956408  0.465495  0.816205  0.630741
    C   C124  0.531416  0.955854  0.816321  0.631235
    N   N1    0.501061  0.001918  0.330556  -0.248415
    N   N2    0.001347  0.501092  0.330551  -0.243133
    N   N3    0.999677  0.498485  0.830552  -0.245869
    N   N4    0.498261  0.999174  0.830556  -0.243861
    C   C125  0.457484  0.967500  0.286849  -0.255273
    C   C126  0.034873  0.457553  0.286690  -0.247292
    C   C127  0.544252  0.035629  0.286653  -0.256256
    C   C128  0.966730  0.544311  0.286803  -0.257486
    C   C129  0.956254  0.464693  0.786710  -0.253815
    C   C130  0.532643  0.955658  0.786830  -0.258099
    C   C131  0.043016  0.532832  0.786783  -0.259478
    C   C132  0.464595  0.042490  0.786671  -0.251558
    C   C133  0.500821  0.001420  0.271963  0.194227
    C   C134  0.000610  0.500873  0.271959  0.193367
    C   C135  0.999628  0.498847  0.771959  0.196349
    C   C136  0.498751  0.999047  0.771963  0.196651
    C   C137  0.413984  0.932808  0.272143  0.016178
    C   C138  0.069238  0.414052  0.271823  0.013671
    C   C139  0.587646  0.070043  0.271744  0.017168
    C   C140  0.931972  0.587691  0.272056  0.018914
    C   C141  0.912798  0.430227  0.771866  0.016389
    C   C142  0.567289  0.912152  0.772105  0.019377
    C   C143  0.086445  0.567484  0.772013  0.019584
    C   C144  0.430210  0.085939  0.771782  0.014931
    C   C145  0.913247  0.429810  0.742472  -0.061116
    C   C146  0.568151  0.912572  0.742713  -0.062166
    C   C147  0.085963  0.568245  0.742620  -0.062041
    C   C148  0.429888  0.085425  0.742388  -0.061318
    C   C149  0.414369  0.931912  0.242752  -0.060433
    C   C150  0.069449  0.414407  0.242427  -0.060081
    C   C151  0.587102  0.070323  0.242350  -0.061369
    C   C152  0.931002  0.587113  0.242666  -0.059849
    C   C153  0.956677  0.464457  0.727700  -0.118718
    C   C154  0.533772  0.956024  0.727823  -0.117248
    C   C155  0.042522  0.533763  0.727774  -0.120686
    C   C156  0.464551  0.041936  0.727660  -0.118603
    C   C157  0.457781  0.966301  0.227842  -0.123442
    C   C158  0.034695  0.457787  0.227676  -0.122361
    C   C159  0.543635  0.035594  0.227641  -0.119783
    C   C160  0.965383  0.543627  0.227799  -0.120316
    C   C161  0.999610  0.499022  0.742526  0.093549
    C   C162  0.499022  0.999001  0.742530  0.091397
    C   C163  0.500741  0.001112  0.242531  0.096879
    C   C164  0.000228  0.500760  0.242526  0.095839
    C   C165  0.957681  0.464507  0.698202  0.458451
    C   C166  0.534188  0.957015  0.698325  0.458271
    C   C167  0.041475  0.534068  0.698276  0.459884
    C   C168  0.464706  0.040874  0.698162  0.458929
    C   C169  0.458758  0.965823  0.198345  0.461245
    C   C170  0.034471  0.458729  0.198177  0.459809
    C   C171  0.542562  0.035371  0.198144  0.458688
    C   C172  0.964902  0.542517  0.198304  0.457868
    N   N5    0.999566  0.499374  0.683934  -0.165622
    N   N6    0.499589  0.998931  0.683939  -0.166758
    N   N7    0.500648  0.000414  0.183940  -0.165413
    N   N8    0.999530  0.500597  0.183936  -0.165322
    O   O49   0.588389  0.066025  0.330524  -0.536456
    O   O50   0.937254  0.588429  0.330807  -0.533428
    O   O51   0.413694  0.937868  0.330901  -0.533828
    O   O52   0.065427  0.413745  0.330608  -0.534681
    O   O53   0.086995  0.562606  0.830775  -0.534483
    O   O54   0.434265  0.086582  0.830561  -0.535160
    O   O55   0.912308  0.434438  0.830641  -0.535534
    O   O56   0.562242  0.911756  0.830864  -0.533715
    H   H57   0.379415  0.905675  0.283269  0.104781
    H   H58   0.096630  0.379496  0.282822  0.106121
    H   H59   0.622279  0.097400  0.282711  0.105208
    H   H60   0.904861  0.622328  0.283148  0.103220
    H   H61   0.878205  0.402915  0.782882  0.105251
    H   H62   0.594403  0.877545  0.783215  0.103699
    H   H63   0.121048  0.594671  0.783088  0.104003
    H   H64   0.402897  0.120583  0.782764  0.105741
    H   H65   0.878914  0.402285  0.731395  0.127823
    H   H66   0.595811  0.878205  0.731731  0.128277
    H   H67   0.120277  0.595907  0.731603  0.127881
    H   H68   0.402431  0.119759  0.731276  0.127809
    H   H69   0.380013  0.904207  0.231786  0.128089
    H   H70   0.096904  0.380046  0.231332  0.127491
    H   H71   0.621401  0.097793  0.231223  0.127686
    H   H72   0.903267  0.621394  0.231668  0.127898
    O   O57   0.917664  0.428524  0.683672  -0.491021
    O   O58   0.570365  0.916962  0.683918  -0.490858
    O   O59   0.081463  0.570232  0.683824  -0.490612
    O   O60   0.428806  0.080890  0.683588  -0.491004
    O   O61   0.418728  0.929583  0.183958  -0.491184
    O   O62   0.070385  0.418698  0.183619  -0.490634
    O   O63   0.582547  0.071265  0.183549  -0.490589
    O   O64   0.928660  0.582482  0.183880  -0.491180
    C   C173  0.052489  0.483648  0.638524  -0.172281
    C   C174  0.516117  0.051892  0.638601  -0.170482
    C   C175  0.946453  0.515760  0.638628  -0.169132
    C   C176  0.483941  0.945875  0.638559  -0.167325
    C   C177  0.553664  0.983749  0.138629  -0.169502
    C   C178  0.015253  0.553703  0.138583  -0.170390
    C   C179  0.447632  0.015874  0.138535  -0.171617
    C   C180  0.983166  0.447660  0.138572  -0.172453
    H   H73   0.094098  0.470006  0.649810  0.139493
    H   H74   0.529602  0.093475  0.649947  0.139577
    H   H75   0.904900  0.529248  0.649998  0.138871
    H   H76   0.470243  0.904314  0.649868  0.138594
    H   H77   0.595239  0.970321  0.149996  0.138744
    H   H78   0.028892  0.595257  0.149913  0.139119
    H   H79   0.406048  0.029586  0.149823  0.139771
    H   H80   0.969692  0.406046  0.149897  0.139674
    C   C181  0.052628  0.484415  0.609116  -0.044032
    C   C182  0.515813  0.052083  0.609192  -0.045309
    C   C183  0.946164  0.515401  0.609221  -0.048736
    C   C184  0.484769  0.945636  0.609153  -0.051411
    C   C185  0.553901  0.983975  0.109221  -0.047998
    C   C186  0.014517  0.553987  0.109179  -0.046652
    C   C187  0.447440  0.014973  0.109129  -0.044897
    C   C188  0.983559  0.447515  0.109161  -0.042720
    H   H81   0.094598  0.471610  0.597926  0.109087
    H   H82   0.528813  0.094067  0.598061  0.108873
    H   H83   0.904133  0.528367  0.598120  0.110941
    H   H84   0.471949  0.903637  0.597990  0.111463
    H   H85   0.595916  0.970981  0.098113  0.110443
    H   H86   0.027354  0.596014  0.098042  0.110153
    H   H87   0.405457  0.027761  0.097945  0.109098
    H   H88   0.970644  0.405536  0.098005  0.108448
    C   C189  0.999355  0.500007  0.594313  -0.029569
    C   C190  0.500416  0.998849  0.594317  -0.025843
    C   C191  0.500687  0.999321  0.094319  -0.027408
    C   C192  0.998959  0.500787  0.094314  -0.030600
    C   C193  0.969562  0.290798  0.453584  0.125199
    C   C194  0.013328  0.322352  0.437653  -0.192460
    C   C195  0.000950  0.338115  0.409703  -0.037991
    C   C196  0.944632  0.322713  0.397651  0.041010
    Br  Br1   0.928578  0.340813  0.358537  -0.115616
    C   C197  0.900291  0.292672  0.413713  -0.058095
    C   C198  0.912658  0.276621  0.441601  -0.255470
    H   H89   0.058017  0.333508  0.446829  0.107039
    H   H90   0.035792  0.361651  0.397103  0.117399
    H   H91   0.856125  0.280591  0.404257  0.085675
    H   H92   0.877717  0.251984  0.453609  0.150482
    C   C199  0.711428  0.970194  0.454098  0.113300
    C   C200  0.680012  0.014165  0.438229  -0.186680
    C   C201  0.664455  0.002135  0.410224  -0.043972
    C   C202  0.679933  0.945962  0.398050  0.046478
    Br  Br2   0.662073  0.930379  0.358874  -0.116614
    C   C203  0.709861  0.901423  0.414042  -0.062565
    C   C204  0.725700  0.913441  0.441988  -0.251858
    H   H93   0.668779  0.058736  0.447506  0.105070
    H   H94   0.641005  0.037129  0.397679  0.119192
    H   H95   0.722001  0.857371  0.404491  0.086539
    H   H96   0.750230  0.878346  0.453947  0.150355
    C   C205  0.031935  0.711192  0.454089  0.119300
    C   C206  0.988164  0.679774  0.438104  -0.188728
    C   C207  0.000537  0.664246  0.410126  -0.042209
    C   C208  0.056851  0.679754  0.398098  0.044546
    Br  Br3   0.072923  0.661957  0.358957  -0.116800
    C   C209  0.101190  0.709673  0.414208  -0.062028
    C   C210  0.088832  0.725482  0.442125  -0.250437
    H   H97   0.943491  0.668514  0.447270  0.103429
    H   H98   0.965700  0.640799  0.397488  0.119021
    H   H99   0.145354  0.721831  0.404771  0.086802
    H   H100  0.123786  0.750003  0.454174  0.149627
    C   C211  0.291029  0.032372  0.453585  0.128687
    C   C212  0.322594  0.988832  0.437528  -0.190970
    C   C213  0.338324  0.001586  0.409609  -0.041307
    C   C214  0.322884  0.058056  0.397716  0.042088
    Br  Br4   0.340913  0.074648  0.358644  -0.116266
    C   C215  0.292846  0.102172  0.413907  -0.057970
    C   C216  0.276827  0.089431  0.441763  -0.256850
    H   H101  0.333784  0.944034  0.446582  0.104632
    H   H102  0.361863  0.966923  0.396908  0.118921
    H   H103  0.280741  0.146458  0.404577  0.086145
    H   H104  0.252196  0.124213  0.453869  0.151392
    C   C217  0.467424  0.789297  0.953663  0.127480
    C   C218  0.511056  0.820771  0.937622  -0.187285
    C   C219  0.498433  0.836418  0.909682  -0.046080
    C   C220  0.441997  0.820994  0.897751  0.044802
    Br  Br5   0.425599  0.838890  0.858648  -0.117000
    C   C221  0.397781  0.791062  0.913927  -0.059184
    C   C222  0.410395  0.775119  0.941804  -0.256228
    H   H105  0.555834  0.831937  0.946704  0.104116
    H   H106  0.533176  0.859870  0.896992  0.120775
    H   H107  0.353522  0.778968  0.904567  0.086195
    H   H108  0.375545  0.750554  0.953898  0.150864
    C   C223  0.209725  0.468206  0.954029  0.133333
    C   C224  0.178281  0.511959  0.938044  -0.192839
    C   C225  0.162758  0.499579  0.910067  -0.039419
    C   C226  0.178300  0.443276  0.898038  0.038942
    Br  Br6   0.160525  0.427205  0.858895  -0.115575
    C   C227  0.208242  0.398952  0.914148  -0.056086
    C   C228  0.224044  0.411317  0.942066  -0.258659
    H   H109  0.167000  0.556627  0.947210  0.104598
    H   H110  0.139294  0.534404  0.897429  0.118765
    H   H111  0.220429  0.354797  0.904710  0.085643
    H   H112  0.248591  0.376381  0.954115  0.151237
    C   C229  0.529929  0.209667  0.954037  0.115756
    C   C230  0.486061  0.178188  0.938134  -0.189344
    C   C231  0.498271  0.162522  0.910157  -0.038978
    C   C232  0.554518  0.177963  0.898046  0.042218
    Br  Br7   0.570370  0.159917  0.858910  -0.115626
    C   C233  0.598946  0.207973  0.914071  -0.059999
    C   C234  0.586750  0.223915  0.941988  -0.251527
    H   H113  0.441440  0.166968  0.947364  0.105255
    H   H114  0.463364  0.139007  0.897587  0.117287
    H   H115  0.643057  0.220084  0.904568  0.086030
    H   H116  0.621771  0.248490  0.953974  0.150182
    C   C235  0.789329  0.530405  0.953655  0.110700
    C   C236  0.820869  0.486657  0.937707  -0.183289
    C   C237  0.836633  0.499078  0.909762  -0.044289
    C   C238  0.821252  0.555423  0.897730  0.046786
    Br  Br8   0.839369  0.571548  0.858625  -0.116212
    C   C239  0.791224  0.599745  0.913808  -0.063503
    C   C240  0.775169  0.587334  0.941692  -0.250357
    H   H117  0.832014  0.441951  0.946869  0.104707
    H   H118  0.860160  0.464252  0.897150  0.118692
    H   H119  0.779161  0.643932  0.904369  0.086841
    H   H120  0.750549  0.622267  0.953712  0.150550
