# generated using pymatgen
data_Fe2H16C47O17
_symmetry_space_group_name_H-M   'P 1'
_cell_length_a   15.82909700
_cell_length_b   11.88676600
_cell_length_c   15.65858600
_cell_angle_alpha   90.66674900
_cell_angle_beta   86.63995500
_cell_angle_gamma   96.03857500
_symmetry_Int_Tables_number   1
_chemical_formula_structural   Fe2H16C47O17
_chemical_formula_sum   'Fe2 H16 C47 O17'
_cell_volume   2924.83989895
_cell_formula_units_Z   1
loop_
 _symmetry_equiv_pos_site_id
 _symmetry_equiv_pos_as_xyz
  1  'x, y, z'
loop_
 _atom_site_type_symbol
 _atom_site_label
 _atom_site_symmetry_multiplicity
 _atom_site_fract_x
 _atom_site_fract_y
 _atom_site_fract_z
 _atom_site_occupancy
  Fe  Fe1  1  0.49784200  0.98174300  0.18616100  1
  Fe  Fe2  1  0.49475300  0.01570500  0.81708400  1
  H  H1  1  0.18115900  0.03839800  0.87385000  1
  H  H2  1  0.21731700  0.97083800  0.17591900  1
  H  H3  1  0.06267500  0.06720600  0.84034600  1
  H  H4  1  0.92220700  0.06430300  0.80009300  1
  H  H5  1  0.07077600  0.94326100  0.20462200  1
  H  H6  1  0.93036000  0.94070600  0.16471800  1
  H  H7  1  0.77563800  0.03407900  0.82807400  1
  H  H8  1  0.81101100  0.96026900  0.12934100  1
  H  H9  1  0.49663100  0.77052500  0.41506600  1
  H  H10  1  0.52670700  0.79131200  0.53915400  1
  H  H11  1  0.46949400  0.20715900  0.46008100  1
  H  H12  1  0.49649400  0.22746400  0.58567900  1
  H  H13  1  0.50253600  0.55857900  0.20200400  1
  H  H14  1  0.48570400  0.64204700  0.78116600  1
  H  H15  1  0.48235100  0.44684600  0.79788800  1
  H  H16  1  0.45593700  0.29640300  0.16243300  1
  C  C1  1  0.27957400  0.00934100  0.05436700  1
  C  C2  1  0.26854200  0.02705000  0.96811200  1
  C  C3  1  0.18664200  0.02789000  0.94100100  1
  C  C4  1  0.20896100  0.98620900  0.10920100  1
  C  C5  1  0.12799400  0.98693100  0.08143800  1
  C  C6  1  0.11491400  0.01076200  0.99750200  1
  C  C7  1  0.03092700  0.01435700  0.97241200  1
  C  C8  1  0.01430300  0.04289300  0.88948200  1
  C  C9  1  0.93261600  0.04298600  0.86529900  1
  C  C10  1  0.06028300  0.96337400  0.13919400  1
  C  C11  1  0.97855600  0.96321900  0.11506000  1
  C  C12  1  0.96179100  0.99025400  0.03182100  1
  C  C13  1  0.87776300  0.99291000  0.00648100  1
  C  C14  1  0.86482000  0.01778000  0.92268800  1
  C  C15  1  0.78389000  0.01785800  0.89468400  1
  C  C16  1  0.80582000  0.97333900  0.06247900  1
  C  C17  1  0.72394100  0.97359100  0.03514300  1
  C  C18  1  0.71317900  0.99277300  0.94903800  1
  C  C19  1  0.65224500  0.96250200  0.10076500  1
  C  C20  1  0.49966300  0.76885300  0.24809400  1
  C  C21  1  0.36314900  0.01734300  0.09119800  1
  C  C22  1  0.48144700  0.15854600  0.30030800  1
  C  C23  1  0.51135900  0.83998500  0.69965200  1
  C  C24  1  0.62985900  0.98338100  0.91170100  1
  C  C25  1  0.49001200  0.22927700  0.75363200  1
  C  C26  1  0.34000100  0.03637400  0.90230200  1
  C  C27  1  0.50237200  0.67202100  0.30487600  1
  C  C28  1  0.50412500  0.56620900  0.27037600  1
  C  C29  1  0.50323800  0.47283100  0.32243100  1
  C  C30  1  0.50137500  0.36602800  0.28570200  1
  C  C31  1  0.48846300  0.27231100  0.33748900  1
  C  C32  1  0.50187300  0.68612600  0.39216400  1
  C  C33  1  0.50284600  0.59396500  0.44663500  1
  C  C34  1  0.50015000  0.48592600  0.41113400  1
  C  C35  1  0.49247100  0.39095900  0.46347800  1
  C  C36  1  0.51233300  0.71406000  0.57426400  1
  C  C37  1  0.50250800  0.60731400  0.53568800  1
  C  C38  1  0.49440300  0.51234600  0.58783500  1
  C  C39  1  0.50378200  0.72648000  0.66147000  1
  C  C40  1  0.49033900  0.63230100  0.71238900  1
  C  C41  1  0.48223200  0.28454300  0.42484400  1
  C  C42  1  0.49176700  0.40416900  0.55278700  1
  C  C43  1  0.49134300  0.31213100  0.60819000  1
  C  C44  1  0.48959800  0.52591200  0.67611400  1
  C  C45  1  0.48528200  0.43370700  0.72944400  1
  C  C46  1  0.48832300  0.32652900  0.69592500  1
  C  C47  1  0.50531400  0.35061000  0.19223000  1
  O  O1  1  0.57540900  0.98231000  0.08236400  1
  O  O2  1  0.49716700  0.75358400  0.16509800  1
  O  O3  1  0.66666667  0.94360200  0.18074700  1
  O  O4  1  0.50048400  0.87155400  0.27950600  1
  O  O5  1  0.37921900  0.94361500  0.14839900  1
  O  O6  1  0.41942700  0.10419400  0.07324900  1
  O  O7  1  0.53236300  0.13533800  0.23484400  1
  O  O8  1  0.42337400  0.08038600  0.33128700  1
  O  O9  1  0.46426900  0.86059400  0.76863100  1
  O  O10  1  0.56545200  0.92056500  0.66551900  1
  O  O11  1  0.61236100  0.05862100  0.85626700  1
  O  O12  1  0.57563100  0.89347400  0.92677400  1
  O  O13  1  0.32604900  0.05884100  0.82280500  1
  O  O14  1  0.49062200  0.12530400  0.72345200  1
  O  O15  1  0.41599300  0.01233000  0.92018600  1
  O  O16  1  0.49172600  0.24648200  0.83647100  1
  O  O17  1  0.56716000  0.39115800  0.14851500  1
