# generated using pymatgen
data_Cu3H35C40N5O17
_symmetry_space_group_name_H-M   'P 1'
_cell_length_a   37.66280700
_cell_length_b   21.58113600
_cell_length_c   21.48119700
_cell_angle_alpha   90.00000000
_cell_angle_beta   122.78377700
_cell_angle_gamma   90.00000000
_symmetry_Int_Tables_number   1
_chemical_formula_structural   Cu3H35C40N5O17
_chemical_formula_sum   'Cu12 H140 C160 N20 O68'
_cell_volume   14679.01175775
_cell_formula_units_Z   4
loop_
 _symmetry_equiv_pos_site_id
 _symmetry_equiv_pos_as_xyz
  1  'x, y, z'
loop_
 _atom_site_type_symbol
 _atom_site_label
 _atom_site_symmetry_multiplicity
 _atom_site_fract_x
 _atom_site_fract_y
 _atom_site_fract_z
 _atom_site_occupancy
  Cu  Cu1  1  0.00000000  0.94158200  0.00000000  1
  Cu  Cu2  1  0.04131700  0.00243600  0.53856000  1
  Cu  Cu3  1  0.45868200  0.50243600  0.46143900  1
  Cu  Cu4  1  0.54131700  0.50243600  0.53856000  1
  Cu  Cu5  1  0.50000000  0.44158200  0.00000000  1
  Cu  Cu6  1  0.00000000  0.06266000  0.00000000  1
  Cu  Cu7  1  0.50000000  0.56266000  0.00000000  1
  Cu  Cu8  1  0.49936600  0.00344600  0.56142500  1
  Cu  Cu9  1  0.50063300  0.00344600  0.43857400  1
  Cu  Cu10  1  0.99936600  0.50344600  0.56142500  1
  Cu  Cu11  1  0.00063300  0.50344600  0.43857400  1
  Cu  Cu12  1  0.95868200  0.00243600  0.46143900  1
  H  H1  1  0.28507400  0.94016700  0.36598600  1
  H  H2  1  0.78183400  0.10135400  0.78746100  1
  H  H3  1  0.41899300  0.79072100  0.63999200  1
  H  H4  1  0.08797100  0.31142300  0.51625500  1
  H  H5  1  0.10911800  0.34114400  0.43965700  1
  H  H6  1  0.06789900  0.37218900  0.35154300  1
  H  H7  1  0.08100700  0.29072100  0.36000800  1
  H  H8  1  0.91202900  0.31142300  0.48374400  1
  H  H9  1  0.89088200  0.34114400  0.56034200  1
  H  H10  1  0.93210100  0.37218900  0.64845700  1
  H  H11  1  0.91899300  0.29072100  0.63999200  1
  H  H12  1  0.04429400  0.15102400  0.44085700  1
  H  H13  1  0.71816500  0.60135400  0.21254000  1
  H  H14  1  0.10854900  0.10830900  0.48118300  1
  H  H15  1  0.13165500  0.09564900  0.57905900  1
  H  H16  1  0.15360400  0.15351700  0.54828600  1
  H  H17  1  0.95570600  0.15102400  0.55914200  1
  H  H18  1  0.89145100  0.10830900  0.51881700  1
  H  H19  1  0.86834500  0.09564900  0.42094000  1
  H  H20  1  0.84639600  0.15351700  0.45171300  1
  H  H21  1  0.54429400  0.65102400  0.44085700  1
  H  H22  1  0.60854900  0.60830900  0.48118300  1
  H  H23  1  0.63165500  0.59564900  0.57905900  1
  H  H24  1  0.28183400  0.60135400  0.78746100  1
  H  H25  1  0.65360400  0.65351700  0.54828600  1
  H  H26  1  0.45570600  0.65102400  0.55914200  1
  H  H27  1  0.39145100  0.60830900  0.51881700  1
  H  H28  1  0.36834500  0.59564900  0.42094000  1
  H  H29  1  0.34639600  0.65351700  0.45171300  1
  H  H30  1  0.28978200  0.13017900  0.26097600  1
  H  H31  1  0.33658800  0.20933000  0.31754900  1
  H  H32  1  0.37971400  0.18624300  0.40844100  1
  H  H33  1  0.33918100  0.23758800  0.39910400  1
  H  H34  1  0.71021800  0.13017900  0.73902400  1
  H  H35  1  0.20791900  0.07167500  0.27986600  1
  H  H36  1  0.66341200  0.20933000  0.68245200  1
  H  H37  1  0.62028600  0.18624300  0.59156000  1
  H  H38  1  0.66081900  0.23758900  0.60089800  1
  H  H39  1  0.78978200  0.63017900  0.26097600  1
  H  H40  1  0.83658800  0.70933000  0.31754900  1
  H  H41  1  0.87971400  0.68624300  0.40844100  1
  H  H42  1  0.83918100  0.73758800  0.39910400  1
  H  H43  1  0.21021800  0.63017900  0.73902400  1
  H  H44  1  0.16341200  0.70933000  0.68245200  1
  H  H45  1  0.12028600  0.68624300  0.59156000  1
  H  H46  1  0.79208000  0.07167500  0.72013500  1
  H  H47  1  0.16081900  0.73758900  0.60089800  1
  H  H48  1  0.70791900  0.57167500  0.27986600  1
  H  H49  1  0.29208000  0.57167500  0.72013500  1
  H  H50  1  0.27570100  0.05041100  0.36309900  1
  H  H51  1  0.72429800  0.05041100  0.63690000  1
  H  H52  1  0.77570100  0.55041100  0.36309900  1
  H  H53  1  0.71492600  0.94016800  0.63401300  1
  H  H54  1  0.22429800  0.55041100  0.63690000  1
  H  H55  1  0.21949800  0.94970800  0.13434000  1
  H  H56  1  0.78050200  0.94970700  0.86565900  1
  H  H57  1  0.71949800  0.44970800  0.13434000  1
  H  H58  1  0.28050200  0.44970700  0.86565900  1
  H  H59  1  0.21506700  0.03239800  0.11865900  1
  H  H60  1  0.78493300  0.03239700  0.88134100  1
  H  H61  1  0.71506700  0.53239800  0.11865900  1
  H  H62  1  0.28493300  0.53239700  0.88134100  1
  H  H63  1  0.29012800  0.96168400  0.20001600  1
  H  H64  1  0.78507400  0.44016700  0.36598600  1
  H  H65  1  0.70987200  0.96168300  0.79998300  1
  H  H66  1  0.79012800  0.46168400  0.20001600  1
  H  H67  1  0.20987200  0.46168300  0.79998300  1
  H  H68  1  0.21063400  0.90462600  0.23260000  1
  H  H69  1  0.78936600  0.90462600  0.76739800  1
  H  H70  1  0.71063400  0.40462600  0.23260000  1
  H  H71  1  0.28936600  0.40462600  0.76739800  1
  H  H72  1  0.28170800  0.90292600  0.28772700  1
  H  H73  1  0.71829200  0.90292600  0.71227200  1
  H  H74  1  0.78170800  0.40292600  0.28772700  1
  H  H75  1  0.21492600  0.44016800  0.63401300  1
  H  H76  1  0.21829200  0.40292600  0.71227200  1
  H  H77  1  0.28574800  0.04451900  0.19586400  1
  H  H78  1  0.71425100  0.04451800  0.80413600  1
  H  H79  1  0.78574800  0.54451900  0.19586400  1
  H  H80  1  0.21425100  0.54451800  0.80413600  1
  H  H81  1  0.98665600  0.09932600  0.18171100  1
  H  H82  1  0.01334400  0.09932500  0.81828900  1
  H  H83  1  0.48665600  0.59932600  0.18171100  1
  H  H84  1  0.51334400  0.59932500  0.81828900  1
  H  H85  1  0.01088400  0.90439500  0.20355000  1
  H  H86  1  0.21423300  0.95596700  0.30221400  1
  H  H87  1  0.98911600  0.90439500  0.79644900  1
  H  H88  1  0.51088400  0.40439500  0.20355000  1
  H  H89  1  0.48911600  0.40439500  0.79644900  1
  H  H90  1  0.44886200  0.19702200  0.38683500  1
  H  H91  1  0.55113800  0.19702200  0.61316500  1
  H  H92  1  0.94886200  0.69702200  0.38683500  1
  H  H93  1  0.05113800  0.69702200  0.61316500  1
  H  H94  1  0.94787800  0.81071700  0.38780400  1
  H  H95  1  0.05212100  0.81071700  0.61219500  1
  H  H96  1  0.44787800  0.31071700  0.38780400  1
  H  H97  1  0.78576700  0.95596800  0.69778500  1
  H  H98  1  0.55212100  0.31071700  0.61219500  1
  H  H99  1  0.99821900  0.15003100  0.29658800  1
  H  H100  1  0.95360500  0.21501800  0.30813400  1
  H  H101  1  0.91144500  0.17828600  0.31065500  1
  H  H102  1  0.90390000  0.19856500  0.22263300  1
  H  H103  1  0.00178100  0.15003100  0.70341200  1
  H  H104  1  0.04639500  0.21501800  0.69186500  1
  H  H105  1  0.08855400  0.17828600  0.68934400  1
  H  H106  1  0.09609900  0.19856500  0.77736600  1
  H  H107  1  0.49821900  0.65003100  0.29658800  1
  H  H108  1  0.71423300  0.45596700  0.30221400  1
  H  H109  1  0.45360500  0.71501800  0.30813400  1
  H  H110  1  0.41144500  0.67828600  0.31065500  1
  H  H111  1  0.40390000  0.69856500  0.22263300  1
  H  H112  1  0.50178100  0.65003100  0.70341200  1
  H  H113  1  0.54639500  0.71501800  0.69186500  1
  H  H114  1  0.58855400  0.67828600  0.68934400  1
  H  H115  1  0.59609900  0.69856500  0.77736600  1
  H  H116  1  0.99787500  0.88265500  0.35411300  1
  H  H117  1  0.06487400  0.82903500  0.46107000  1
  H  H118  1  0.09579600  0.79539800  0.42844100  1
  H  H119  1  0.28576700  0.45596800  0.69778500  1
  H  H120  1  0.04085500  0.77397300  0.38543200  1
  H  H121  1  0.00212300  0.88265200  0.64588500  1
  H  H122  1  0.93512600  0.82903600  0.53893000  1
  H  H123  1  0.90420400  0.79539800  0.57155900  1
  H  H124  1  0.95914500  0.77397400  0.61456800  1
  H  H125  1  0.49787500  0.38265500  0.35411300  1
  H  H126  1  0.56487400  0.32903500  0.46107000  1
  H  H127  1  0.59579600  0.29539800  0.42844100  1
  H  H128  1  0.54085500  0.27397300  0.38543200  1
  H  H129  1  0.50212300  0.38265200  0.64588500  1
  H  H130  1  0.21816500  0.10135400  0.21254000  1
  H  H131  1  0.43512600  0.32903600  0.53893000  1
  H  H132  1  0.40420400  0.29539800  0.57155900  1
  H  H133  1  0.45914500  0.27397400  0.61456800  1
  H  H134  1  0.58797100  0.81142300  0.51625500  1
  H  H135  1  0.60911800  0.84114400  0.43965700  1
  H  H136  1  0.56789900  0.87218900  0.35154300  1
  H  H137  1  0.58100700  0.79072100  0.36000800  1
  H  H138  1  0.41202900  0.81142300  0.48374400  1
  H  H139  1  0.39088200  0.84114400  0.56034200  1
  H  H140  1  0.43210100  0.87218900  0.64845700  1
  C  C1  1  0.99917800  0.00211300  0.11718000  1
  C  C2  1  0.77550200  0.94851000  0.73682800  1
  C  C3  1  0.47224800  0.78425700  0.51154100  1
  C  C4  1  0.02775200  0.28425700  0.48845800  1
  C  C5  1  0.97224800  0.28425700  0.51154100  1
  C  C6  1  0.02880700  0.22007000  0.49100900  1
  C  C7  1  0.97119200  0.22007000  0.50899000  1
  C  C8  1  0.52880700  0.72007000  0.49100900  1
  C  C9  1  0.47119200  0.72007000  0.50899000  1
  C  C10  1  0.00000000  0.18789100  0.50000000  1
  C  C11  1  0.50000000  0.68789100  0.50000000  1
  C  C12  1  0.50000000  0.81634800  0.50000000  1
  C  C13  1  0.72449700  0.44851000  0.26317100  1
  C  C14  1  0.00000000  0.31634800  0.50000000  1
  C  C15  1  0.47148000  0.22187800  0.43653500  1
  C  C16  1  0.52851900  0.22187800  0.56346400  1
  C  C17  1  0.97148000  0.72187800  0.43653500  1
  C  C18  1  0.02851900  0.72187800  0.56346400  1
  C  C19  1  0.97071600  0.78571200  0.43718600  1
  C  C20  1  0.02928400  0.78571200  0.56281400  1
  C  C21  1  0.47071600  0.28571200  0.43718600  1
  C  C22  1  0.52928400  0.28571200  0.56281400  1
  C  C23  1  0.00000000  0.81762500  0.50000000  1
  C  C24  1  0.27550200  0.44851000  0.73682800  1
  C  C25  1  0.50000000  0.31762500  0.50000000  1
  C  C26  1  0.94266700  0.11939800  0.27573400  1
  C  C27  1  0.92704600  0.18182100  0.27949200  1
  C  C28  1  0.05733200  0.11939800  0.72426500  1
  C  C29  1  0.07295400  0.18182100  0.72050800  1
  C  C30  1  0.44266700  0.61939800  0.27573400  1
  C  C31  1  0.42704600  0.68182100  0.27949200  1
  C  C32  1  0.55733200  0.61939800  0.72426500  1
  C  C33  1  0.57295400  0.68182100  0.72050800  1
  C  C34  1  0.05148400  0.86402400  0.35748000  1
  C  C35  1  0.22478100  0.06281600  0.25152000  1
  C  C36  1  0.06398300  0.81235200  0.41149100  1
  C  C37  1  0.94851600  0.86402400  0.64251900  1
  C  C38  1  0.93601600  0.81235200  0.58850800  1
  C  C39  1  0.55148400  0.36402400  0.35748000  1
  C  C40  1  0.56398300  0.31235200  0.41149100  1
  C  C41  1  0.44851600  0.36402400  0.64251900  1
  C  C42  1  0.43601600  0.31235200  0.58850800  1
  C  C43  1  0.54566300  0.81773400  0.40644000  1
  C  C44  1  0.57802700  0.83127100  0.38857800  1
  C  C45  1  0.45433700  0.81773400  0.59355900  1
  C  C46  1  0.77521900  0.06281600  0.74848000  1
  C  C47  1  0.42197300  0.83127100  0.61142100  1
  C  C48  1  0.04566300  0.31773400  0.40644000  1
  C  C49  1  0.07802700  0.33127100  0.38857800  1
  C  C50  1  0.95433700  0.31773400  0.59355900  1
  C  C51  1  0.92197300  0.33127100  0.61142100  1
  C  C52  1  0.09573800  0.17884700  0.53718800  1
  C  C53  1  0.12402000  0.13106200  0.53614000  1
  C  C54  1  0.90426100  0.17884700  0.46281200  1
  C  C55  1  0.87598000  0.13106200  0.46385900  1
  C  C56  1  0.59573800  0.67884700  0.53718800  1
  C  C57  1  0.72478100  0.56281600  0.25152000  1
  C  C58  1  0.62402000  0.63106200  0.53614000  1
  C  C59  1  0.40426100  0.67884700  0.46281200  1
  C  C60  1  0.37598000  0.63106200  0.46385900  1
  C  C61  1  0.32094500  0.14276500  0.37370300  1
  C  C62  1  0.34552300  0.19732500  0.37444200  1
  C  C63  1  0.67905400  0.14276500  0.62629700  1
  C  C64  1  0.65447700  0.19732600  0.62555900  1
  C  C65  1  0.82094500  0.64276500  0.37370300  1
  C  C66  1  0.84552300  0.69732500  0.37444200  1
  C  C67  1  0.17905400  0.64276500  0.62629700  1
  C  C68  1  0.27521900  0.56281600  0.74848000  1
  C  C69  1  0.15447700  0.69732600  0.62555900  1
  C  C70  1  0.27178900  0.05833400  0.30883300  1
  C  C71  1  0.72821000  0.05833400  0.69116700  1
  C  C72  1  0.77178900  0.55833400  0.30883300  1
  C  C73  1  0.00082200  0.00211300  0.88282000  1
  C  C74  1  0.22821000  0.55833400  0.69116700  1
  C  C75  1  0.37362800  0.00264500  0.37631700  1
  C  C76  1  0.62637100  0.00264500  0.62368200  1
  C  C77  1  0.87362800  0.50264500  0.37631700  1
  C  C78  1  0.12637100  0.50264500  0.62368200  1
  C  C79  1  0.20965100  0.00226300  0.20907100  1
  C  C80  1  0.79034800  0.00226300  0.79092800  1
  C  C81  1  0.70965100  0.50226300  0.20907100  1
  C  C82  1  0.29034800  0.50226300  0.79092800  1
  C  C83  1  0.27228000  0.94435100  0.30597100  1
  C  C84  1  0.49917800  0.50211300  0.11718000  1
  C  C85  1  0.72771900  0.94435200  0.69402800  1
  C  C86  1  0.77228000  0.44435100  0.30597100  1
  C  C87  1  0.22771900  0.44435200  0.69402800  1
  C  C88  1  0.28938000  0.00219200  0.29119900  1
  C  C89  1  0.71062000  0.00219100  0.70880000  1
  C  C90  1  0.78938000  0.50219200  0.29119900  1
  C  C91  1  0.21062000  0.50219100  0.70880000  1
  C  C92  1  0.27553200  0.00174400  0.21027400  1
  C  C93  1  0.72446800  0.00174400  0.78972500  1
  C  C94  1  0.77553200  0.50174400  0.21027400  1
  C  C95  1  0.50082200  0.50211300  0.88282000  1
  C  C96  1  0.22446800  0.50174400  0.78972500  1
  C  C97  1  0.22794300  0.99572700  0.16165400  1
  C  C98  1  0.77205600  0.99572700  0.83834500  1
  C  C99  1  0.72794300  0.49572700  0.16165400  1
  C  C100  1  0.27205600  0.49572700  0.83834500  1
  C  C101  1  0.33557700  0.00214200  0.33822600  1
  C  C102  1  0.66442200  0.00214200  0.66177400  1
  C  C103  1  0.83557700  0.50214200  0.33822500  1
  C  C104  1  0.16442200  0.50214200  0.66177400  1
  C  C105  1  0.16343600  0.00204700  0.16176200  1
  C  C106  1  0.08000800  0.00209500  0.07769100  1
  C  C107  1  0.83656300  0.00204700  0.83823700  1
  C  C108  1  0.66343600  0.50204700  0.16176200  1
  C  C109  1  0.33656300  0.50204700  0.83823700  1
  C  C110  1  0.12537600  0.00189600  0.12309700  1
  C  C111  1  0.87462300  0.00189600  0.87690200  1
  C  C112  1  0.62537600  0.50189600  0.12309700  1
  C  C113  1  0.37462300  0.50189600  0.87690200  1
  C  C114  1  0.99215000  0.05615000  0.21106300  1
  C  C115  1  0.00785000  0.05615000  0.78893700  1
  C  C116  1  0.49215000  0.55615000  0.21106300  1
  C  C117  1  0.91999200  0.00209500  0.92230800  1
  C  C118  1  0.50785000  0.55615000  0.78893700  1
  C  C119  1  0.99138200  0.05551100  0.27439100  1
  C  C120  1  0.00861800  0.05551200  0.72560800  1
  C  C121  1  0.49138200  0.55551100  0.27439100  1
  C  C122  1  0.50861800  0.55551200  0.72560800  1
  C  C123  1  0.99873800  0.00104900  0.31332900  1
  C  C124  1  0.00126200  0.00104900  0.68667000  1
  C  C125  1  0.49873800  0.50104900  0.31332900  1
  C  C126  1  0.50126200  0.50104900  0.68667000  1
  C  C127  1  0.00670000  0.94678400  0.28865300  1
  C  C128  1  0.58000800  0.50209500  0.07769100  1
  C  C129  1  0.99330000  0.94678400  0.71134600  1
  C  C130  1  0.50670000  0.44678400  0.28865300  1
  C  C131  1  0.49330000  0.44678400  0.71134600  1
  C  C132  1  0.00621300  0.94740200  0.22392400  1
  C  C133  1  0.99378700  0.94740200  0.77607500  1
  C  C134  1  0.50621300  0.44740200  0.22392400  1
  C  C135  1  0.49378700  0.44740200  0.77607500  1
  C  C136  1  0.99918600  0.00197100  0.18523700  1
  C  C137  1  0.00081300  0.00197100  0.81476200  1
  C  C138  1  0.49918600  0.50197100  0.18523700  1
  C  C139  1  0.41999200  0.50209500  0.92230800  1
  C  C140  1  0.50081300  0.50197100  0.81476200  1
  C  C141  1  0.50000000  0.18989600  0.50000000  1
  C  C142  1  0.00000000  0.68989600  0.50000000  1
  C  C143  1  0.50000000  0.88430900  0.50000000  1
  C  C144  1  0.00000000  0.38430900  0.50000000  1
  C  C145  1  0.41896200  0.00366200  0.42068700  1
  C  C146  1  0.58103800  0.00366200  0.57931200  1
  C  C147  1  0.91896200  0.50366200  0.42068700  1
  C  C148  1  0.08103800  0.50366200  0.57931200  1
  C  C149  1  0.50000000  0.12232400  0.50000000  1
  C  C150  1  0.22449700  0.94851000  0.26317100  1
  C  C151  1  0.00000000  0.62232400  0.50000000  1
  C  C152  1  0.00000000  0.88511100  0.50000000  1
  C  C153  1  0.50000000  0.38511100  0.50000000  1
  C  C154  1  0.99924800  0.00188600  0.38156400  1
  C  C155  1  0.00075200  0.00188600  0.61843500  1
  C  C156  1  0.49924800  0.50188600  0.38156400  1
  C  C157  1  0.50075200  0.50188600  0.61843500  1
  C  C158  1  0.00000000  0.11995500  0.50000000  1
  C  C159  1  0.50000000  0.61995500  0.50000000  1
  C  C160  1  0.52775200  0.78425700  0.48845800  1
  N  N1  1  0.98367700  0.11093100  0.29986500  1
  N  N2  1  0.44369200  0.81717100  0.52262700  1
  N  N3  1  0.05630800  0.31717100  0.47737300  1
  N  N4  1  0.94369200  0.31717100  0.52262700  1
  N  N5  1  0.05646200  0.18768500  0.47711800  1
  N  N6  1  0.94353800  0.18768500  0.52288100  1
  N  N7  1  0.55646200  0.68768500  0.47711800  1
  N  N8  1  0.44353800  0.68768500  0.52288100  1
  N  N9  1  0.29267600  0.11466500  0.30877800  1
  N  N10  1  0.70732400  0.11466500  0.69122200  1
  N  N11  1  0.79267600  0.61466500  0.30877800  1
  N  N12  1  0.01632300  0.11093100  0.70013400  1
  N  N13  1  0.20732400  0.61466500  0.69122200  1
  N  N14  1  0.48367700  0.61093100  0.29986500  1
  N  N15  1  0.51632300  0.61093100  0.70013400  1
  N  N16  1  0.01293700  0.89022600  0.32669200  1
  N  N17  1  0.98706300  0.89022600  0.67330700  1
  N  N18  1  0.51293700  0.39022600  0.32669200  1
  N  N19  1  0.48706300  0.39022600  0.67330700  1
  N  N20  1  0.55630800  0.81717100  0.47737300  1
  O  O1  1  0.01088000  0.95100500  0.09929400  1
  O  O2  1  0.93958800  0.95098400  0.95864900  1
  O  O3  1  0.56041200  0.45098400  0.04135000  1
  O  O4  1  0.43958800  0.45098400  0.95864900  1
  O  O5  1  0.06009700  0.05326900  0.07532800  1
  O  O6  1  0.93990300  0.05326900  0.92467200  1
  O  O7  1  0.56009700  0.55326900  0.07532800  1
  O  O8  1  0.43990300  0.55326900  0.92467200  1
  O  O9  1  0.50026800  0.91334800  0.55396600  1
  O  O10  1  0.49973200  0.91334800  0.44603300  1
  O  O11  1  0.00026800  0.41334800  0.55396600  1
  O  O12  1  0.98912000  0.95100500  0.90070500  1
  O  O13  1  0.99973200  0.41334800  0.44603300  1
  O  O14  1  0.43806200  0.00243400  0.49300700  1
  O  O15  1  0.56193700  0.00243400  0.50699300  1
  O  O16  1  0.93806200  0.50243400  0.49300700  1
  O  O17  1  0.06193700  0.50243400  0.50699300  1
  O  O18  1  0.43917600  0.99977300  0.38678800  1
  O  O19  1  0.56082300  0.99977300  0.61321200  1
  O  O20  1  0.93917600  0.49977300  0.38678800  1
  O  O21  1  0.06082300  0.49977300  0.61321200  1
  O  O22  1  0.50214200  0.09345900  0.55562300  1
  O  O23  1  0.51088000  0.45100500  0.09929400  1
  O  O24  1  0.49785700  0.09345900  0.44437600  1
  O  O25  1  0.00214200  0.59345900  0.55562300  1
  O  O26  1  0.99785700  0.59345900  0.44437600  1
  O  O27  1  0.96516800  0.91397800  0.48421700  1
  O  O28  1  0.03483200  0.91397800  0.51578200  1
  O  O29  1  0.46516800  0.41397800  0.48421700  1
  O  O30  1  0.53483200  0.41397800  0.51578200  1
  O  O31  1  0.96446000  0.98554000  0.37803200  1
  O  O32  1  0.03554000  0.98554000  0.62196700  1
  O  O33  1  0.46446000  0.48554000  0.37803200  1
  O  O34  1  0.48912000  0.45100500  0.90070500  1
  O  O35  1  0.53554000  0.48554000  0.62196700  1
  O  O36  1  0.03429500  0.01918700  0.44318500  1
  O  O37  1  0.96570400  0.01918700  0.55681500  1
  O  O38  1  0.53429500  0.51918700  0.44318500  1
  O  O39  1  0.46570400  0.51918700  0.55681500  1
  O  O40  1  0.96496900  0.09090100  0.45053500  1
  O  O41  1  0.03503100  0.09090100  0.54946500  1
  O  O42  1  0.46496900  0.59090100  0.45053500  1
  O  O43  1  0.53503100  0.59090100  0.54946500  1
  O  O44  1  0.91804600  0.07601700  0.25025300  1
  O  O45  1  0.98766200  0.05321800  0.07692200  1
  O  O46  1  0.08195400  0.07601700  0.74974600  1
  O  O47  1  0.41804600  0.57601700  0.25025300  1
  O  O48  1  0.58195400  0.57601700  0.74974600  1
  O  O49  1  0.07639900  0.88260700  0.34209000  1
  O  O50  1  0.92360100  0.88260700  0.65790900  1
  O  O51  1  0.57639900  0.38260700  0.34209000  1
  O  O52  1  0.42360100  0.38260700  0.65790900  1
  O  O53  1  0.50927800  0.80771200  0.35637000  1
  O  O54  1  0.49072200  0.80771200  0.64362900  1
  O  O55  1  0.00927800  0.30771200  0.35637000  1
  O  O56  1  0.01233800  0.05321800  0.92307800  1
  O  O57  1  0.99072200  0.30771200  0.64362900  1
  O  O58  1  0.10820900  0.20946700  0.59300700  1
  O  O59  1  0.89179100  0.20946700  0.40699300  1
  O  O60  1  0.60820900  0.70946700  0.59300700  1
  O  O61  1  0.39179100  0.70946700  0.40699300  1
  O  O62  1  0.32723400  0.12367000  0.43228900  1
  O  O63  1  0.67276600  0.12367100  0.56771100  1
  O  O64  1  0.82723400  0.62367000  0.43228900  1
  O  O65  1  0.17276600  0.62367100  0.56771100  1
  O  O66  1  0.48766200  0.55321800  0.07692200  1
  O  O67  1  0.51233800  0.55321800  0.92307800  1
  O  O68  1  0.06041200  0.95098400  0.04135000  1
