data_DB0-m3_o11_o29_f0_pcu.sym.26_repeat
_audit_creation_date              2024-02-20
_audit_creation_method            'Materials Studio'
_symmetry_space_group_name_H-M    'P1'
_symmetry_Int_Tables_number       1
_symmetry_cell_setting            triclinic
loop_
_symmetry_equiv_pos_as_xyz
  x,y,z
_cell_length_a                    27.6124
_cell_length_b                    11.1219
_cell_length_c                    9.9195
_cell_angle_alpha                 89.9974
_cell_angle_beta                  89.9930
_cell_angle_gamma                 89.9936
loop_
_atom_site_label
_atom_site_type_symbol
_atom_site_fract_x
_atom_site_fract_y
_atom_site_fract_z
_atom_site_U_iso_or_equiv
_atom_site_adp_type
_atom_site_occupancy
O1     O     0.49681   0.32154   0.61125   0.00000  Uiso   1.00
O2     O     0.50014   0.32094   0.37879   0.00000  Uiso   1.00
C1     C     0.49770   0.26519   0.49524   0.00000  Uiso   1.00
O3     O     0.42728   0.50782   0.59901   0.00000  Uiso   1.00
O4     O     0.43057   0.50512   0.36636   0.00000  Uiso   1.00
C2     C     0.40634   0.50986   0.48029   0.00000  Uiso   1.00
Zn1    Zn    0.49843   0.50060   0.64799   0.00000  Uiso   1.00
Zn2    Zn    0.50339   0.49991   0.34138   0.00000  Uiso   1.00
O5     O     0.50225   0.67937   0.61090   0.00000  Uiso   1.00
O6     O     0.50457   0.67921   0.37811   0.00000  Uiso   1.00
O7     O     0.57123   0.49414   0.62288   0.00000  Uiso   1.00
O8     O     0.57453   0.49350   0.39063   0.00000  Uiso   1.00
C3     C     0.50398   0.73530   0.49470   0.00000  Uiso   1.00
C4     C     0.59555   0.49173   0.50912   0.00000  Uiso   1.00
C5     C     0.17794   0.40453   0.50184   0.00000  Uiso   1.00
O9     O     0.20356   0.30335   0.52190   0.00000  Uiso   1.00
N1     N     0.20130   0.50834   0.47769   0.00000  Uiso   1.00
C6     C     0.17659   0.61147   0.45974   0.00000  Uiso   1.00
C7     C     0.27741   0.57866   0.57041   0.00000  Uiso   1.00
C8     C     0.32739   0.58412   0.57002   0.00000  Uiso   1.00
C9     C     0.32858   0.45165   0.37950   0.00000  Uiso   1.00
C10    C     0.27863   0.44782   0.38002   0.00000  Uiso   1.00
C11    C     0.25295   0.51084   0.47611   0.00000  Uiso   1.00
C12    C     0.10169   0.50672   0.49279   0.00000  Uiso   1.00
C13    C     0.12797   0.40220   0.50817   0.00000  Uiso   1.00
C14    C     0.10427   0.29530   0.53019   0.00000  Uiso   1.00
C15    C     0.12627   0.61369   0.47231   0.00000  Uiso   1.00
C16    C     0.35332   0.51770   0.47542   0.00000  Uiso   1.00
H1     H     0.34827   0.39939   0.30577   0.00000  Uiso   1.00
H2     H     0.25975   0.39528   0.30488   0.00000  Uiso   1.00
H3     H     0.12392   0.21179   0.54025   0.00000  Uiso   1.00
C17    C     0.64867   0.48886   0.51329   0.00000  Uiso   1.00
C18    C     0.97690   0.39654   0.54107   0.00000  Uiso   1.00
C19    C     0.97450   0.60312   0.46942   0.00000  Uiso   1.00
C20    C     0.95072   0.49876   0.50769   0.00000  Uiso   1.00
C21    C     0.95171   0.29666   0.58889   0.00000  Uiso   1.00
C22    C     0.90203   0.29685   0.59676   0.00000  Uiso   1.00
C23    C     0.87609   0.39612   0.55677   0.00000  Uiso   1.00
C24    C     0.90039   0.49669   0.51249   0.00000  Uiso   1.00
C25    C     0.87380   0.59514   0.47267   0.00000  Uiso   1.00
C26    C     0.82375   0.59144   0.47622   0.00000  Uiso   1.00
N2     N     0.80065   0.49224   0.52007   0.00000  Uiso   1.00
C27    C     0.82596   0.39533   0.56096   0.00000  Uiso   1.00
C28    C     0.72466   0.49804   0.39748   0.00000  Uiso   1.00
C29    C     0.67481   0.49740   0.39470   0.00000  Uiso   1.00
C30    C     0.67311   0.47894   0.63456   0.00000  Uiso   1.00
C31    C     0.72312   0.47823   0.63686   0.00000  Uiso   1.00
C32    C     0.74902   0.48884   0.51834   0.00000  Uiso   1.00
O10    O     0.80221   0.29646   0.60210   0.00000  Uiso   1.00
C33    C     0.02739   0.39682   0.52685   0.00000  Uiso   1.00
C34    C     0.05129   0.50376   0.49815   0.00000  Uiso   1.00
C35    C     0.02508   0.60777   0.47455   0.00000  Uiso   1.00
C36    C     0.05473   0.29232   0.53969   0.00000  Uiso   1.00
H4     H     0.65683   0.50499   0.29837   0.00000  Uiso   1.00
H5     H     0.74463   0.50532   0.30408   0.00000  Uiso   1.00
H6     H     0.88407   0.21740   0.63457   0.00000  Uiso   1.00
H7     H     0.96917   0.21688   0.62603   0.00000  Uiso   1.00
H8     H     0.03912   0.20453   0.55251   0.00000  Uiso   1.00
O11    O     0.20131   0.71012   0.42275   0.00000  Uiso   1.00
C37    C     0.09984   0.71977   0.46346   0.00000  Uiso   1.00
H9     H     0.25687   0.62956   0.64352   0.00000  Uiso   1.00
C38    C     0.94696   0.70034   0.42520   0.00000  Uiso   1.00
C39    C     0.89729   0.69619   0.42708   0.00000  Uiso   1.00
O12    O     0.79786   0.68785   0.43783   0.00000  Uiso   1.00
C40    C     0.05006   0.71553   0.46157   0.00000  Uiso   1.00
H10    H     0.96252   0.78056   0.38284   0.00000  Uiso   1.00
H11    H     0.65355   0.47189   0.72860   0.00000  Uiso   1.00
H12    H     0.87741   0.77366   0.39163   0.00000  Uiso   1.00
H13    H     0.74193   0.47169   0.73217   0.00000  Uiso   1.00
H14    H     0.03180   0.80089   0.46109   0.00000  Uiso   1.00
C41    C     0.50182   0.93385   0.38673   0.00000  Uiso   1.00
C42    C     0.50506   0.86697   0.49858   0.00000  Uiso   1.00
H15    H     0.49969   0.88974   0.28955   0.00000  Uiso   1.00
H16    H     0.50845   0.90706   0.59721   0.00000  Uiso   1.00
C43    C     0.50184   0.06701   0.38718   0.00000  Uiso   1.00
C44    C     0.49656   0.13351   0.49881   0.00000  Uiso   1.00
H17    H     0.50570   0.11148   0.29060   0.00000  Uiso   1.00
H18    H     0.49128   0.09315   0.59668   0.00000  Uiso   1.00
C45    C     0.52669   0.56407   0.91284   0.00000  Uiso   1.00
N3     N     0.49463   0.50252   0.84937   0.00000  Uiso   1.00
H19    H     0.55455   0.60968   0.85538   0.00000  Uiso   1.00
H20    H     0.46524   0.47268   0.90336   0.00000  Uiso   1.00
C46    C     0.52626   0.58046   0.06084   0.00000  Uiso   1.00
N4     N     0.50828   0.49974   0.13994   0.00000  Uiso   1.00
H21    H     0.49677   0.42224   0.09374   0.00000  Uiso   1.00
N5     N     0.12239   0.83529   0.46614   0.00000  Uiso   1.00
O13    O     0.10503   0.92092   0.39107   0.00000  Uiso   1.00
O14    O     0.14989   0.86354   0.56782   0.00000  Uiso   1.00
N6     N     0.54993   0.68448   0.11360   0.00000  Uiso   1.00
O15    O     0.55157   0.78112   0.03997   0.00000  Uiso   1.00
O16    O     0.58070   0.67287   0.21171   0.00000  Uiso   1.00
N7     N     0.35104   0.66307   0.66278   0.00000  Uiso   1.00
O17    O     0.32995   0.68927   0.77627   0.00000  Uiso   1.00
O18    O     0.38690   0.72961   0.62201   0.00000  Uiso   1.00
