# Generated by REPEAT Assigner based on pymatgen
data_DB0-m3_o96_o20_f0_fsc.sym.27
_audit_creation_date              2022-05-24
_audit_creation_method            REPEAT_Assigner
_cell_length_a                    12.982232
_cell_length_b                    12.424793
_cell_length_c                    16.397087
_cell_angle_alpha                 94.143597
_cell_angle_beta                  90.044602
_cell_angle_gamma                 90.657078
_cell_volume                      2637.785245
_symmetry_space_group_name_H-M    P1
_symmetry_Int_Tables_number       1
loop_
    _symmetry_equiv_pos_site_id
    _symmetry_equiv_pos_as_xyz
    1  x,y,z
loop_
    _atom_site_type_symbol
    _atom_site_label
    _atom_site_fract_x
    _atom_site_fract_y
    _atom_site_fract_z
    _atom_type_partial_charge
    C   C1   0.823698  0.055338  0.216645  0.071605
    C   C2   0.189015  0.956139  0.786485  0.052399
    C   C3   0.760181  0.097849  0.162049  0.187206
    C   C4   0.253055  0.910825  0.840163  0.160769
    C   C5   0.807638  0.087578  0.086730  0.014336
    C   C6   0.201687  0.911386  0.914629  0.043791
    N   N1   0.903292  0.047816  0.095697  -0.345395
    N   N2   0.107628  0.955382  0.906443  -0.432528
    C   C7   0.912946  0.027842  0.175500  0.242894
    C   C8   0.098690  0.979913  0.827547  0.317653
    C   C9   0.757447  0.090567  0.014928  0.152501
    C   C10  0.236751  0.873988  0.984899  0.222051
    C   C11  0.807563  0.086141  0.933236  -0.280888
    C   C12  0.197306  0.912238  0.066725  -0.219958
    C   C13  0.755907  0.090823  0.859501  0.277328
    C   C14  0.255356  0.928034  0.138087  0.303491
    C   C15  0.821544  0.056447  0.798618  0.066662
    C   C16  0.189891  0.960083  0.199858  0.151680
    C   C17  0.915658  0.039674  0.835744  0.030947
    C   C18  0.092658  0.963870  0.165227  -0.039416
    N   N3   0.906337  0.059221  0.917579  0.108249
    N   N4   0.097793  0.933137  0.084448  0.038013
    C   C19  0.013304  0.016006  0.792701  -0.372509
    C   C20  0.997317  0.990341  0.210133  -0.308551
    H   H1   0.013840  0.025823  0.727717  0.187465
    H   H2   0.998062  0.983972  0.275580  0.173480
    H   H3   0.965337  0.058385  0.960024  0.133383
    H   H4   0.035963  0.918677  0.044627  0.196242
    C   C21  0.359096  0.918212  0.152593  -0.507423
    C   C22  0.660455  0.130061  0.841778  -0.249075
    C   C23  0.394285  0.935568  0.232162  0.021034
    C   C24  0.626789  0.119038  0.762151  -0.088645
    C   C25  0.328401  0.967208  0.296106  -0.043021
    C   C26  0.686949  0.069513  0.700848  -0.043620
    C   C27  0.224272  0.982123  0.279822  -0.272191
    C   C28  0.788007  0.040920  0.717991  -0.233187
    C   C29  0.791890  0.040395  0.295143  -0.296869
    C   C30  0.220582  0.979923  0.709180  -0.287127
    C   C31  0.696371  0.080332  0.317794  0.016147
    C   C32  0.320276  0.953994  0.686732  0.035678
    C   C33  0.640535  0.141204  0.265931  -0.051766
    C   C34  0.384976  0.906873  0.740976  -0.040181
    C   C35  0.672055  0.150403  0.187084  -0.363907
    C   C36  0.353345  0.887828  0.818710  -0.392780
    H   H5   0.413211  0.897937  0.104245  0.244771
    H   H6   0.612434  0.171564  0.887165  0.114527
    H   H7   0.171979  0.007533  0.328516  0.142772
    H   H8   0.837608  0.006659  0.670239  0.133715
    H   H9   0.837099  0.996575  0.336759  0.135584
    H   H10  0.171320  0.019615  0.667868  0.129494
    H   H11  0.567425  0.175626  0.284548  0.127853
    H   H12  0.464179  0.890858  0.724339  0.132130
    H   H13  0.627726  0.198029  0.147488  0.166922
    H   H14  0.409895  0.861444  0.860624  0.171510
    H   H15  0.475469  0.926685  0.244399  0.114228
    H   H16  0.549990  0.145368  0.748584  0.141291
    O   O1   0.381040  0.082398  0.413749  -0.654443
    O   O2   0.630164  0.951491  0.586251  -0.661225
    O   O3   0.429428  0.904458  0.403502  -0.682603
    O   O4   0.581955  0.129798  0.596201  -0.681691
    C   C37  0.374762  0.983999  0.378440  0.755570
    C   C38  0.637159  0.050427  0.620579  0.755021
    O   O5   0.638022  0.954255  0.410596  -0.639929
    O   O6   0.373227  0.079495  0.590311  -0.642568
    O   O7   0.589600  0.132605  0.426600  -0.685409
    O   O8   0.421310  0.901554  0.574078  -0.695702
    C   C39  0.646044  0.055507  0.392868  0.711183
    C   C40  0.365382  0.978427  0.608788  0.713568
    Zn  Zn1  0.536650  0.901604  0.492282  1.141185
    Zn  Zn2  0.474029  0.132210  0.508084  1.113382
    N   N5   0.563735  0.763137  0.484614  -0.230585
    N   N6   0.446674  0.270614  0.515775  -0.217717
    C   C41  0.547248  0.671951  0.488949  0.325605
    C   C42  0.463064  0.361817  0.511433  0.323440
    C   C43  0.518736  0.562896  0.496542  -0.011875
    C   C44  0.491504  0.470890  0.503829  -0.013612
    S   S1   0.622439  0.054427  0.015835  -0.130313
    C   C45  0.646833  0.911728  0.992772  0.047615
    H   H17  0.588102  0.863572  0.023635  0.007818
    H   H18  0.723941  0.890970  0.015655  0.017876
    H   H19  0.642650  0.892265  0.925762  0.023269
    S   S2   0.326108  0.764244  0.981648  -0.159680
    C   C46  0.224074  0.665068  0.991893  -0.101095
    H   H20  0.251527  0.584578  0.968254  0.091635
    H   H21  0.156129  0.686251  0.955554  0.039389
    H   H22  0.202591  0.662594  0.057184  0.051126
