data_DB0-m3_o1_o23_f0_pcu_repeat
_audit_creation_date              2024-02-23
_audit_creation_method            'Materials Studio'
_symmetry_space_group_name_H-M    'P1'
_symmetry_Int_Tables_number       1
_symmetry_cell_setting            triclinic
loop_
_symmetry_equiv_pos_as_xyz
  x,y,z
_cell_length_a                    16.0287
_cell_length_b                    9.7433
_cell_length_c                    10.9783
_cell_angle_alpha                 90.0000
_cell_angle_beta                  90.0047
_cell_angle_gamma                 90.0000
loop_
_atom_site_label
_atom_site_type_symbol
_atom_site_fract_x
_atom_site_fract_y
_atom_site_fract_z
_atom_site_U_iso_or_equiv
_atom_site_adp_type
_atom_site_occupancy
O1     O     0.12437   0.11713   0.00002   0.00000  Uiso   1.00
O2     O     0.12437   0.88287   0.00002   0.00000  Uiso   1.00
C1     C     0.16482   0.00000   1.00000   0.00000  Uiso   1.00
O3     O     0.99979   0.11697   0.18144   0.00000  Uiso   1.00
O4     O     0.99979   0.88303   0.18144   0.00000  Uiso   1.00
C2     C     0.99979   0.00000   0.24071   0.00000  Uiso   1.00
Zn1    Zn    0.99980   0.15357   0.00008   0.00000  Uiso   1.00
Zn2    Zn    0.99980   0.84643   0.00008   0.00000  Uiso   1.00
O5     O     0.87523   0.11714   0.00014   0.00000  Uiso   1.00
O6     O     0.87523   0.88286   0.00014   0.00000  Uiso   1.00
O7     O     0.99983   0.11696   0.81872   0.00000  Uiso   1.00
O8     O     0.99983   0.88304   0.81872   0.00000  Uiso   1.00
C3     C     0.83479   0.00000   0.00016   0.00000  Uiso   1.00
C4     C     0.99984   0.00000   0.75944   0.00000  Uiso   1.00
C5     C     0.94848   0.57084   0.92513   0.00000  Uiso   1.00
C6     C     0.94848   0.42916   0.92513   0.00000  Uiso   1.00
H1     H     0.90714   0.62604   0.86470   0.00000  Uiso   1.00
H2     H     0.90714   0.37396   0.86470   0.00000  Uiso   1.00
N1     N     0.99981   0.35984   0.00013   0.00000  Uiso   1.00
N2     N     0.99981   0.64016   0.00013   0.00000  Uiso   1.00
C7     C     0.05113   0.42916   0.07513   0.00000  Uiso   1.00
C8     C     0.05113   0.57084   0.07513   0.00000  Uiso   1.00
H3     H     0.09247   0.37396   0.13555   0.00000  Uiso   1.00
H4     H     0.09247   0.62604   0.13555   0.00000  Uiso   1.00
C9     C     0.99982   0.87747   0.56282   0.00000  Uiso   1.00
C10    C     0.99982   0.12253   0.56282   0.00000  Uiso   1.00
H5     H     0.99983   0.78037   0.61036   0.00000  Uiso   1.00
H6     H     0.99983   0.21963   0.61036   0.00000  Uiso   1.00
C11    C     0.99981   0.87747   0.43733   0.00000  Uiso   1.00
C12    C     0.99981   0.12253   0.43733   0.00000  Uiso   1.00
H7     H     0.99980   0.78037   0.38980   0.00000  Uiso   1.00
H8     H     0.99980   0.21963   0.38980   0.00000  Uiso   1.00
C13    C     0.99979   0.00000   0.37400   0.00000  Uiso   1.00
C14    C     0.99983   0.00000   0.62615   0.00000  Uiso   1.00
C15    C     0.54704   0.12704   0.06519   0.00000  Uiso   1.00
C16    C     0.54704   0.87296   0.06519   0.00000  Uiso   1.00
C17    C     0.45255   0.87296   0.06515   0.00000  Uiso   1.00
C18    C     0.45255   0.12704   0.06515   0.00000  Uiso   1.00
H9     H     0.42950   0.12758   0.16040   0.00000  Uiso   1.00
H10    H     0.42950   0.87241   0.16040   0.00000  Uiso   1.00
H11    H     0.57007   0.12758   0.16045   0.00000  Uiso   1.00
H12    H     0.57007   0.87242   0.16045   0.00000  Uiso   1.00
H13    H     0.57009   0.77974   0.01799   0.00000  Uiso   1.00
H14    H     0.57009   0.22026   0.01799   0.00000  Uiso   1.00
H15    H     0.42952   0.77974   0.01794   0.00000  Uiso   1.00
H16    H     0.42952   0.22026   0.01794   0.00000  Uiso   1.00
C19    C     0.25442   0.00000   1.00000   0.00000  Uiso   1.00
C20    C     0.57861   0.00000   0.00011   0.00000  Uiso   1.00
C21    C     0.42100   0.00000   0.00005   0.00000  Uiso   1.00
C22    C     0.45258   0.00000   0.86987   0.00000  Uiso   1.00
C23    C     0.54707   0.00000   0.86991   0.00000  Uiso   1.00
C24    C     0.32965   0.00000   0.00001   0.00000  Uiso   1.00
C25    C     0.66997   0.00000   0.00014   0.00000  Uiso   1.00
C26    C     0.74519   0.00000   0.00016   0.00000  Uiso   1.00
H17    H     0.57011   0.09268   0.82187   0.00000  Uiso   1.00
H18    H     0.57011   0.90732   0.82187   0.00000  Uiso   1.00
H19    H     0.42954   0.09268   0.82182   0.00000  Uiso   1.00
H20    H     0.42954   0.90732   0.82182   0.00000  Uiso   1.00
