# generated using pymatgen
data_ZnH11C25NO5
_symmetry_space_group_name_H-M   'P 1'
_cell_length_a   8.61273300
_cell_length_b   11.19865000
_cell_length_c   17.46669700
_cell_angle_alpha   90.55552400
_cell_angle_beta   92.66406400
_cell_angle_gamma   80.64538200
_symmetry_Int_Tables_number   1
_chemical_formula_structural   ZnH11C25NO5
_chemical_formula_sum   'Zn2 H22 C50 N2 O10'
_cell_volume   1660.47542613
_cell_formula_units_Z   2
loop_
 _symmetry_equiv_pos_site_id
 _symmetry_equiv_pos_as_xyz
  1  'x, y, z'
loop_
 _atom_site_type_symbol
 _atom_site_label
 _atom_site_symmetry_multiplicity
 _atom_site_fract_x
 _atom_site_fract_y
 _atom_site_fract_z
 _atom_site_occupancy
  Zn  Zn1  1  0.49214600  0.50661800  0.91121200  1
  Zn  Zn2  1  0.50889400  0.49343000  0.08179700  1
  H  H1  1  0.00776000  0.58454000  0.02358600  1
  H  H2  1  0.99325000  0.41682000  0.97467800  1
  H  H3  1  0.65465300  0.88941400  0.99033500  1
  H  H4  1  0.34635600  0.11003100  0.99351300  1
  H  H5  1  0.51070700  0.69525100  0.80408700  1
  H  H6  1  0.48777000  0.30556900  0.18927400  1
  H  H7  1  0.53354800  0.79695000  0.68503100  1
  H  H8  1  0.46579800  0.20377700  0.30807100  1
  H  H9  1  0.44547800  0.21890200  0.68583300  1
  H  H10  1  0.55649300  0.78119600  0.30727000  1
  H  H11  1  0.56076300  0.89564100  0.56601800  1
  H  H12  1  0.43933400  0.10491500  0.42706400  1
  H  H13  1  0.56975300  0.88969200  0.42598600  1
  H  H14  1  0.43127600  0.11065500  0.56712700  1
  H  H15  1  0.46432500  0.32705200  0.80346100  1
  H  H16  1  0.53840900  0.67277300  0.18967800  1
  H  H17  1  0.31988500  0.83591400  0.12345700  1
  H  H18  1  0.38623200  0.97830200  0.11424400  1
  H  H19  1  0.51417600  0.83872400  0.08968300  1
  H  H20  1  0.70513200  0.16215200  0.12309700  1
  H  H21  1  0.63800700  0.01952000  0.11234800  1
  H  H22  1  0.50475600  0.15910700  0.08926100  1
  C  C1  1  0.09321100  0.74682200  0.00418500  1
  C  C2  1  0.90779200  0.25326200  0.98888500  1
  C  C3  1  0.97544100  0.67932900  0.01287300  1
  C  C4  1  0.02556500  0.32137100  0.98253900  1
  C  C5  1  0.81905300  0.73011700  0.00509000  1
  C  C6  1  0.18189100  0.27007100  0.98761300  1
  C  C7  1  0.77711000  0.85221400  0.99672000  1
  C  C8  1  0.22386600  0.14748800  0.99206800  1
  C  C9  1  0.89049200  0.92520100  0.99664600  1
  C  C10  1  0.11052100  0.07444700  0.99256800  1
  C  C11  1  0.04863900  0.87325900  0.99761500  1
  C  C12  1  0.95221300  0.12642500  0.99196900  1
  C  C13  1  0.84348900  0.05002200  0.99547800  1
  C  C14  1  0.15770800  0.94965000  0.99650600  1
  C  C15  1  0.30347500  0.34627100  0.99092600  1
  C  C16  1  0.69764900  0.65373000  0.00201400  1
  C  C17  1  0.25569700  0.67506800  0.00096200  1
  C  C18  1  0.74527600  0.32489500  0.99208500  1
  C  C19  1  0.49909000  0.61334700  0.77264300  1
  C  C20  1  0.50072100  0.38720000  0.22051500  1
  C  C21  1  0.47197600  0.40862600  0.77241500  1
  C  C22  1  0.52989000  0.59137700  0.22066400  1
  C  C23  1  0.52233600  0.71444100  0.65414700  1
  C  C24  1  0.47741100  0.28620300  0.33896600  1
  C  C25  1  0.50318400  0.61197800  0.69358300  1
  C  C26  1  0.49693400  0.38858400  0.29955700  1
  C  C27  1  0.48973300  0.50705700  0.65395200  1
  C  C28  1  0.51103900  0.49334400  0.33917500  1
  C  C29  1  0.47301400  0.40495900  0.69359500  1
  C  C30  1  0.52840700  0.59523500  0.29950200  1
  C  C31  1  0.45907400  0.29916400  0.65461400  1
  C  C32  1  0.54252100  0.70102200  0.33848600  1
  C  C33  1  0.54855700  0.81302300  0.53554000  1
  C  C34  1  0.45175900  0.18748300  0.45755500  1
  C  C35  1  0.52813500  0.71118700  0.57521000  1
  C  C36  1  0.47206400  0.28935500  0.41790300  1
  C  C37  1  0.51405000  0.60581500  0.53581900  1
  C  C38  1  0.48648700  0.39465800  0.45729800  1
  C  C39  1  0.55369400  0.80965200  0.45673100  1
  C  C40  1  0.44716400  0.19072800  0.53637300  1
  C  C41  1  0.53871400  0.70438900  0.41739500  1
  C  C42  1  0.46236100  0.29594200  0.57570900  1
  C  C43  1  0.49477400  0.50371000  0.57524800  1
  C  C44  1  0.50592800  0.49672600  0.41787400  1
  C  C45  1  0.48117300  0.39809300  0.53607400  1
  C  C46  1  0.51962100  0.60232000  0.45704400  1
  C  C47  1  0.32278000  0.89815100  0.00870500  1
  C  C48  1  0.39129000  0.88692600  0.08874200  1
  C  C49  1  0.68089500  0.10192400  0.00774600  1
  C  C50  1  0.62748300  0.11142700  0.08781700  1
  N  N1  1  0.48327300  0.51219500  0.81075400  1
  N  N2  1  0.51775100  0.48794300  0.18228200  1
  O  O1  1  0.35542100  0.37861600  0.05845800  1
  O  O2  1  0.64569100  0.62135300  0.93454100  1
  O  O3  1  0.34811900  0.38486500  0.92642100  1
  O  O4  1  0.65287600  0.61522500  0.06654700  1
  O  O5  1  0.30699900  0.63569000  0.93361600  1
  O  O6  1  0.69410600  0.36446800  0.05939100  1
  O  O7  1  0.32517600  0.62902100  0.06538000  1
  O  O8  1  0.67571800  0.37082500  0.92759900  1
  O  O9  1  0.39808700  0.85473400  0.95492900  1
  O  O10  1  0.59455900  0.14402200  0.95402600  1
