# generated using pymatgen
data_ZnH25C25(NO)4
_symmetry_space_group_name_H-M   'P 1'
_cell_length_a   11.85022700
_cell_length_b   13.06980000
_cell_length_c   15.06061300
_cell_angle_alpha   90.00016200
_cell_angle_beta   85.91431100
_cell_angle_gamma   91.18927400
_symmetry_Int_Tables_number   1
_chemical_formula_structural   ZnH25C25(NO)4
_chemical_formula_sum   'Zn2 H50 C50 N8 O8'
_cell_volume   2326.15743914
_cell_formula_units_Z   2
loop_
 _symmetry_equiv_pos_site_id
 _symmetry_equiv_pos_as_xyz
  1  'x, y, z'
loop_
 _atom_site_type_symbol
 _atom_site_label
 _atom_site_symmetry_multiplicity
 _atom_site_fract_x
 _atom_site_fract_y
 _atom_site_fract_z
 _atom_site_occupancy
  Zn  Zn1  1  0.37236600  0.51183100  0.50898900  1
  Zn  Zn2  1  0.62816800  0.48791000  0.49063300  1
  H  H1  1  0.57532400  0.35661200  0.21786500  1
  H  H2  1  0.42521400  0.64312900  0.78175300  1
  H  H3  1  0.40710900  0.63925700  0.22374800  1
  H  H4  1  0.59342500  0.36048400  0.77587100  1
  H  H5  1  0.36925400  0.72142200  0.09006100  1
  H  H6  1  0.63128400  0.27832200  0.90955700  1
  H  H7  1  0.62975300  0.16608700  0.53801200  1
  H  H8  1  0.37078100  0.83365500  0.46161200  1
  H  H9  1  0.71652100  0.00680400  0.54990300  1
  H  H10  1  0.28401200  0.99293600  0.44972500  1
  H  H11  1  0.19048300  0.41458600  0.42200000  1
  H  H12  1  0.81005100  0.58515500  0.57762000  1
  H  H13  1  0.01472000  0.35389000  0.37204100  1
  H  H14  1  0.98581800  0.64584900  0.62758300  1
  H  H15  1  0.19785300  0.69894000  0.95331800  1
  H  H16  1  0.21291100  0.82023300  0.89617200  1
  H  H17  1  0.24845800  0.81179200  0.00991800  1
  H  H18  1  0.52378700  0.81295800  0.88480400  1
  H  H19  1  0.44557500  0.86361300  0.98190900  1
  H  H20  1  0.40541400  0.89512700  0.87170800  1
  H  H21  1  0.47676900  0.18677900  0.11482100  1
  H  H22  1  0.59513900  0.10460900  0.12791300  1
  H  H23  1  0.55498000  0.13612600  0.01771600  1
  H  H24  1  0.80268900  0.30081600  0.04630500  1
  H  H25  1  0.75209700  0.18795900  0.98970100  1
  H  H26  1  0.78765200  0.17951900  0.10344000  1
  H  H27  1  0.30701500  0.13522900  0.32481900  1
  H  H28  1  0.24870000  0.26109500  0.32894200  1
  H  H29  1  0.15805500  0.15115900  0.35597000  1
  H  H30  1  0.19401600  0.18594600  0.58264500  1
  H  H31  1  0.13707200  0.09643000  0.50511300  1
  H  H32  1  0.10375200  0.23028500  0.49983600  1
  H  H33  1  0.80651200  0.81379400  0.41697300  1
  H  H34  1  0.89678500  0.76946100  0.49977700  1
  H  H35  1  0.86346100  0.90331200  0.49450000  1
  H  H36  1  0.69353400  0.86451300  0.67480300  1
  H  H37  1  0.84249200  0.84858200  0.64364600  1
  H  H38  1  0.75184900  0.73864800  0.67067800  1
  H  H39  1  0.20038000  0.77415000  0.54518000  1
  H  H40  1  0.26291100  0.80627000  0.64788600  1
  H  H41  1  0.11195100  0.78617700  0.64727400  1
  H  H42  1  0.20250800  0.54817200  0.74014000  1
  H  H43  1  0.09472200  0.64420500  0.74878600  1
  H  H44  1  0.23742700  0.67884500  0.76888400  1
  H  H45  1  0.80016300  0.22559000  0.45445000  1
  H  H46  1  0.88858800  0.21356300  0.35235300  1
  H  H47  1  0.73762600  0.19346300  0.35174900  1
  H  H48  1  0.79802100  0.45155900  0.25948400  1
  H  H49  1  0.76310500  0.32088500  0.23074400  1
  H  H50  1  0.90581100  0.35552900  0.25084300  1
  C  C1  1  0.52609300  0.69971200  0.49909500  1
  C  C2  1  0.47444200  0.30002800  0.50052700  1
  C  C3  1  0.50523300  0.49970200  0.67314900  1
  C  C4  1  0.49530200  0.50003800  0.32647300  1
  C  C5  1  0.54175800  0.41877200  0.18158300  1
  C  C6  1  0.45877900  0.58096900  0.81804000  1
  C  C7  1  0.49320400  0.49833500  0.22954800  1
  C  C8  1  0.50733100  0.50140600  0.77007500  1
  C  C9  1  0.44483400  0.57686700  0.18589500  1
  C  C10  1  0.55570100  0.42287400  0.81372700  1
  C  C11  1  0.44887400  0.57785800  0.09409600  1
  C  C12  1  0.55166100  0.42188300  0.90552700  1
  C  C13  1  0.49845400  0.49888600  0.04574900  1
  C  C14  1  0.50208200  0.50085500  0.95387400  1
  C  C15  1  0.54424900  0.41817200  0.08940000  1
  C  C16  1  0.45628900  0.58156900  0.91022200  1
  C  C17  1  0.40464600  0.65911600  0.05090600  1
  C  C18  1  0.59589200  0.34062600  0.94871600  1
  C  C19  1  0.40777500  0.66164100  0.95894400  1
  C  C20  1  0.59276500  0.33810200  0.04067900  1
  C  C21  1  0.46171100  0.18753100  0.49853900  1
  C  C22  1  0.53882400  0.81221000  0.50108500  1
  C  C23  1  0.64123600  0.96758800  0.52998600  1
  C  C24  1  0.35929800  0.03215300  0.46964100  1
  C  C25  1  0.63726100  0.86164300  0.52508600  1
  C  C26  1  0.36327400  0.13809800  0.47453900  1
  C  C27  1  0.44716700  0.87030800  0.48197300  1
  C  C28  1  0.55336800  0.12943200  0.51765200  1
  C  C29  1  0.45187100  0.97558200  0.48777800  1
  C  C30  1  0.54866300  0.02415800  0.51184900  1
  C  C31  1  0.96907300  0.40533700  0.41702200  1
  C  C32  1  0.03146200  0.59440300  0.58260100  1
  C  C33  1  0.85199500  0.40934400  0.42056600  1
  C  C34  1  0.14854000  0.59039500  0.57905900  1
  C  C35  1  0.85505200  0.53428200  0.53179000  1
  C  C36  1  0.14548300  0.46546000  0.46783100  1
  C  C37  1  0.97160800  0.53217200  0.52854000  1
  C  C38  1  0.02892800  0.46756900  0.47108200  1
  C  C39  1  0.24984000  0.77036800  0.94565700  1
  C  C40  1  0.43867900  0.83428500  0.91337500  1
  C  C41  1  0.56187500  0.16545700  0.08624800  1
  C  C42  1  0.75071000  0.22938400  0.05396200  1
  C  C43  1  0.24414900  0.18457900  0.36091200  1
  C  C44  1  0.17063600  0.17543100  0.51317800  1
  C  C45  1  0.82989700  0.82431100  0.48643900  1
  C  C46  1  0.75639600  0.81516200  0.63870700  1
  C  C47  1  0.19521300  0.76083300  0.61803000  1
  C  C48  1  0.18454700  0.62973400  0.72810300  1
  C  C49  1  0.80532600  0.23890400  0.38160000  1
  C  C50  1  0.81598500  0.36999900  0.27152300  1
  N  N1  1  0.20400800  0.52610500  0.52138000  1
  N  N2  1  0.79652700  0.47363500  0.47824300  1
  N  N3  1  0.36396600  0.74597000  0.91458500  1
  N  N4  1  0.63658200  0.25377600  0.08503700  1
  N  N5  1  0.26871200  0.19496200  0.45291600  1
  N  N6  1  0.73182600  0.80477900  0.54670500  1
  N  N7  1  0.20979300  0.65374500  0.63536300  1
  N  N8  1  0.79074200  0.34599100  0.36426400  1
  O  O1  1  0.42271300  0.66090900  0.50546300  1
  O  O2  1  0.57782300  0.33883200  0.49415900  1
  O  O3  1  0.61636700  0.64246000  0.49235900  1
  O  O4  1  0.38416800  0.35728100  0.50726300  1
  O  O5  1  0.40735300  0.50970100  0.63871500  1
  O  O6  1  0.59318300  0.49004000  0.36090700  1
  O  O7  1  0.60104400  0.48911900  0.62501400  1
  O  O8  1  0.39949100  0.51062200  0.37460800  1
