# Generated by REPEAT Assigner based on pymatgen
data_DB0-m3_o3_o4_f0_pcu.sym.12
_audit_creation_date              2022-05-24
_audit_creation_method            REPEAT_Assigner
_cell_length_a                    19.545491
_cell_length_b                    18.277722
_cell_length_c                    10.987290
_cell_angle_alpha                 90.000000
_cell_angle_beta                  90.010164
_cell_angle_gamma                 90.000000
_cell_volume                      3925.176734
_symmetry_space_group_name_H-M    P1
_symmetry_Int_Tables_number       1
loop_
    _symmetry_equiv_pos_site_id
    _symmetry_equiv_pos_as_xyz
    1  x,y,z
loop_
    _atom_site_type_symbol
    _atom_site_label
    _atom_site_fract_x
    _atom_site_fract_y
    _atom_site_fract_z
    _atom_type_partial_charge
    O   O1   0.398015  0.569262  0.500180  -0.605153
    O   O2   0.601985  0.569262  0.499820  -0.605151
    O   O3   0.398060  0.443164  0.501221  -0.693269
    O   O4   0.601939  0.443164  0.498779  -0.693276
    C   C1   0.365780  0.506186  0.500970  0.740630
    C   C2   0.634220  0.506186  0.499030  0.740629
    O   O5   0.499857  0.569258  0.318554  -0.694667
    O   O6   0.500143  0.569258  0.681446  -0.694663
    O   O7   0.499330  0.443126  0.318647  -0.651463
    O   O8   0.500670  0.443126  0.681353  -0.651462
    C   C3   0.499453  0.506106  0.261624  0.821890
    C   C4   0.500547  0.506106  0.738376  0.821885
    Zn  Zn1  0.500000  0.589375  0.500000  0.986754
    Zn  Zn2  0.500000  0.423000  0.500000  1.048542
    C   C5   0.499586  0.568460  0.060494  0.219630
    C   C6   0.500413  0.568460  0.939506  0.219636
    C   C7   0.499473  0.505352  0.128207  -0.300841
    C   C8   0.500526  0.505352  0.871793  -0.300837
    C   C9   0.499795  0.439997  0.063470  -0.079489
    C   C10  0.500204  0.439997  0.936530  -0.079494
    H   H1   0.499717  0.388097  0.110565  0.100120
    H   H2   0.500283  0.388097  0.889435  0.100123
    C   C11  0.500679  0.649360  0.929078  -0.229152
    C   C12  0.499321  0.649360  0.070922  -0.229128
    H   H3   0.549502  0.670506  0.891717  0.105167
    H   H4   0.450498  0.670506  0.108283  0.105159
    H   H5   0.452914  0.670897  0.888016  0.077245
    H   H6   0.547085  0.670897  0.111984  0.077242
    C   C13  0.743361  0.443333  0.457804  -0.034488
    C   C14  0.256638  0.443333  0.542196  -0.034480
    H   H7   0.714892  0.397850  0.420587  0.107901
    H   H8   0.285108  0.397850  0.579413  0.107895
    C   C15  0.813947  0.440034  0.457156  -0.265667
    C   C16  0.186053  0.440034  0.542844  -0.265665
    H   H9   0.837889  0.392870  0.416223  0.126536
    H   H10  0.162111  0.392870  0.583777  0.126535
    C   C17  0.852425  0.496519  0.505950  0.190927
    C   C18  0.147575  0.496519  0.494050  0.190929
    C   C19  0.818194  0.556321  0.553757  -0.472409
    C   C20  0.181806  0.556321  0.446243  -0.472404
    H   H11  0.845758  0.599401  0.599576  0.183466
    H   H12  0.154241  0.599401  0.400424  0.183461
    C   C21  0.748029  0.563120  0.543263  0.529180
    C   C22  0.251971  0.563120  0.456737  0.529178
    C   C23  0.709628  0.505024  0.499222  -0.245191
    C   C24  0.290372  0.505024  0.500778  -0.245196
    C   C25  0.964836  0.560045  0.499904  -0.140053
    C   C26  0.035164  0.560045  0.500096  -0.140043
    H   H13  0.939678  0.612499  0.495542  0.100786
    H   H14  0.060322  0.612499  0.504458  0.100786
    C   C27  0.071699  0.495185  0.496665  0.081300
    C   C28  0.928301  0.495185  0.503335  0.081310
    C   C29  0.035358  0.430031  0.497336  -0.159698
    C   C30  0.964642  0.430031  0.502664  -0.159700
    H   H15  0.061182  0.377920  0.492632  0.116659
    H   H16  0.938818  0.377920  0.507368  0.116659
    C   C31  0.522819  0.735549  0.598258  0.003256
    C   C32  0.477181  0.735549  0.401742  0.003256
    H   H17  0.541646  0.705950  0.676284  0.122553
    H   H18  0.458354  0.705950  0.323716  0.122555
    C   C33  0.523453  0.811001  0.599605  -0.188641
    C   C34  0.476547  0.811001  0.400395  -0.188644
    H   H19  0.541333  0.839162  0.680037  0.113248
    H   H20  0.458666  0.839162  0.319964  0.113248
    C   C35  0.500000  0.849571  0.500000  0.115564
    N   N1   0.500000  0.698869  0.500000  0.004868
    C   C36  0.445088  0.968214  0.452900  -0.128059
    C   C37  0.554912  0.968214  0.547100  -0.128058
    H   H21  0.400842  0.939560  0.418145  0.113265
    H   H22  0.599158  0.939559  0.581855  0.113263
    C   C38  0.444904  0.043660  0.453450  -0.140172
    C   C39  0.555096  0.043660  0.546550  -0.140169
    H   H23  0.400233  0.071872  0.419541  0.118703
    H   H24  0.599767  0.071872  0.580459  0.118702
    C   C40  0.500000  0.082136  0.500000  0.051742
    C   C41  0.500000  0.929951  0.500000  0.084384
    C   C42  0.529346  0.201533  0.594603  -0.152651
    C   C43  0.470654  0.201533  0.405397  -0.152649
    H   H25  0.551524  0.173781  0.671934  0.113847
    H   H26  0.448476  0.173781  0.328066  0.113846
    C   C44  0.529087  0.276973  0.592921  -0.024777
    C   C45  0.470913  0.276973  0.407079  -0.024777
    H   H27  0.552246  0.306723  0.667245  0.140389
    H   H28  0.447753  0.306723  0.332755  0.140389
    N   N2   0.500000  0.313541  0.500000  -0.043553
    C   C46  0.500000  0.162768  0.500000  0.132379
    O   O9   0.717530  0.626874  0.580075  -0.452097
    C   C47  0.739560  0.679685  0.496387  0.406279
    H   H29  0.748421  0.654122  0.406163  -0.053045
    H   H30  0.787309  0.705801  0.529399  -0.057514
    C   C48  0.685773  0.738463  0.482402  -0.200317
    H   H31  0.672946  0.761138  0.573147  0.070165
    H   H32  0.705993  0.782784  0.423604  0.013179
    H   H33  0.639697  0.714693  0.439158  0.062135
    O   O10  0.282470  0.626874  0.419925  -0.452094
    C   C49  0.260440  0.679685  0.503613  0.406283
    H   H34  0.251578  0.654122  0.593837  -0.053046
    H   H35  0.212691  0.705801  0.470601  -0.057515
    C   C50  0.314226  0.738463  0.517598  -0.200322
    H   H36  0.327053  0.761138  0.426853  0.070166
    H   H37  0.294007  0.782784  0.576396  0.013183
    H   H38  0.360303  0.714693  0.560842  0.062131
