# generated using pymatgen
data_ZnH25C53N(Cl3O2)2
_symmetry_space_group_name_H-M   'P 1'
_cell_length_a   16.09815100
_cell_length_b   16.17098800
_cell_length_c   15.01543000
_cell_angle_alpha   90.00835300
_cell_angle_beta   89.98977300
_cell_angle_gamma   89.99428100
_symmetry_Int_Tables_number   1
_chemical_formula_structural   ZnH25C53N(Cl3O2)2
_chemical_formula_sum   'Zn2 H50 C106 N2 Cl12 O8'
_cell_volume   3908.86176035
_cell_formula_units_Z   2
loop_
 _symmetry_equiv_pos_site_id
 _symmetry_equiv_pos_as_xyz
  1  'x, y, z'
loop_
 _atom_site_type_symbol
 _atom_site_label
 _atom_site_symmetry_multiplicity
 _atom_site_fract_x
 _atom_site_fract_y
 _atom_site_fract_z
 _atom_site_occupancy
  Zn  Zn1  1  0.50115900  0.50054200  0.59915000  1
  Zn  Zn2  1  0.50601700  0.50208100  0.39615900  1
  H  H1  1  0.40790200  0.41356600  0.08636800  1
  H  H2  1  0.59946300  0.58199100  0.90815200  1
  H  H3  1  0.95987100  0.14845000  0.41783600  1
  H  H4  1  0.10522300  0.10644800  0.39988700  1
  H  H5  1  0.21620300  0.20897300  0.41918200  1
  H  H6  1  0.18394900  0.34964800  0.45440500  1
  H  H7  1  0.05009200  0.84763600  0.59089400  1
  H  H8  1  0.90513700  0.88843000  0.61453800  1
  H  H9  1  0.79401000  0.78559300  0.59429900  1
  H  H10  1  0.82561500  0.64741400  0.55150000  1
  H  H11  1  0.05745600  0.25945700  0.78626600  1
  H  H12  1  0.91347300  0.23581400  0.83274300  1
  H  H13  1  0.80021500  0.30745300  0.75528000  1
  H  H14  1  0.82843600  0.39813100  0.63285200  1
  H  H15  1  0.95054700  0.74557600  0.22258300  1
  H  H16  1  0.09436200  0.77254700  0.17760300  1
  H  H17  1  0.20836700  0.69897800  0.25179900  1
  H  H18  1  0.18053300  0.60170300  0.36811000  1
  H  H19  1  0.03651300  0.38998000  0.13112400  1
  H  H20  1  0.88987100  0.37133000  0.09238100  1
  H  H21  1  0.78228400  0.40097200  0.20360900  1
  H  H22  1  0.81878700  0.45004800  0.34849700  1
  H  H23  1  0.97597000  0.60516800  0.87211300  1
  H  H24  1  0.12319000  0.61812600  0.91068500  1
  H  H25  1  0.22957900  0.58633400  0.79865100  1
  H  H26  1  0.19087000  0.54344500  0.65210700  1
  H  H27  1  0.69319300  0.21259500  0.74829900  1
  H  H28  1  0.59943500  0.19977900  0.87637100  1
  H  H29  1  0.47167200  0.11745700  0.86330600  1
  H  H30  1  0.43802400  0.04842600  0.72255200  1
  H  H31  1  0.50203400  0.79558000  0.17813300  1
  H  H32  1  0.35082100  0.78248600  0.15832200  1
  H  H33  1  0.25620100  0.85139900  0.26356000  1
  H  H34  1  0.31284200  0.93166100  0.38824000  1
  H  H35  1  0.73808000  0.84995900  0.74428800  1
  H  H36  1  0.63979800  0.78836300  0.85029100  1
  H  H37  1  0.48915900  0.80502600  0.82746500  1
  H  H38  1  0.43739800  0.88436400  0.69962400  1
  H  H39  1  0.51864900  0.18443700  0.16319500  1
  H  H40  1  0.36979500  0.21285800  0.14325200  1
  H  H41  1  0.26907400  0.16391200  0.25456700  1
  H  H42  1  0.31712700  0.08632600  0.38542800  1
  H  H43  1  0.17480300  0.36990900  0.89658700  1
  H  H44  1  0.22084900  0.25348500  0.80362200  1
  H  H45  1  0.36951700  0.23029500  0.77786800  1
  H  H46  1  0.47284900  0.32075700  0.84827400  1
  H  H47  1  0.67888800  0.80296200  0.09270000  1
  H  H48  1  0.79747700  0.74004800  0.17041100  1
  H  H49  1  0.80491600  0.58869400  0.18713600  1
  H  H50  1  0.69244700  0.50129300  0.13069000  1
  C  C1  1  0.50231800  0.33965500  0.49604900  1
  C  C2  1  0.50413600  0.66310800  0.49944600  1
  C  C3  1  0.34134500  0.50196500  0.49298300  1
  C  C4  1  0.66608600  0.50035500  0.50257000  1
  C  C5  1  0.97946800  0.44604000  0.56286500  1
  C  C6  1  0.02914300  0.55200200  0.43848900  1
  C  C7  1  0.03076200  0.42336700  0.48084000  1
  C  C8  1  0.97796300  0.57453500  0.52064000  1
  C  C9  1  0.25224100  0.50092800  0.49176900  1
  C  C10  1  0.75554500  0.49952500  0.50495400  1
  C  C11  1  0.03412100  0.52166500  0.57940400  1
  C  C12  1  0.97462100  0.47624900  0.42185700  1
  C  C13  1  0.08616700  0.49909900  0.49720100  1
  C  C14  1  0.92229700  0.49887600  0.50404000  1
  C  C15  1  0.17726400  0.49995300  0.49342400  1
  C  C16  1  0.83075000  0.49900900  0.50554200  1
  C  C17  1  0.52779800  0.95916600  0.57389500  1
  C  C18  1  0.47306600  0.04400000  0.42527800  1
  C  C19  1  0.50019000  0.91606300  0.50032100  1
  C  C20  1  0.50005900  0.08722100  0.49913800  1
  C  C21  1  0.47211800  0.95834200  0.42632200  1
  C  C22  1  0.52707800  0.04501400  0.57401100  1
  C  C23  1  0.50132200  0.82686800  0.50055000  1
  C  C24  1  0.49917600  0.17622500  0.49763400  1
  C  C25  1  0.50020800  0.25082400  0.49620000  1
  C  C26  1  0.50270800  0.75215100  0.50019200  1
  C  C27  1  0.44415500  0.44997200  0.95500300  1
  C  C28  1  0.55994200  0.54937800  0.03912400  1
  C  C29  1  0.49914800  0.49679200  0.90513400  1
  C  C30  1  0.50692400  0.50091900  0.08954400  1
  C  C31  1  0.55665400  0.54568400  0.94749800  1
  C  C32  1  0.44938200  0.45139800  0.04705400  1
  C  C33  1  0.49731800  0.49763500  0.80939900  1
  C  C34  1  0.50890700  0.50272700  0.18564200  1
  C  C35  1  0.05104800  0.33366200  0.45776200  1
  C  C36  1  0.98863500  0.27426700  0.44682800  1
  C  C37  1  0.00878800  0.19358700  0.42608300  1
  C  C38  1  0.09010100  0.16983900  0.41599900  1
  C  C39  1  0.15202500  0.22716100  0.42668800  1
  C  C40  1  0.13284700  0.30792700  0.44709700  1
  C  C41  1  0.95830300  0.66381200  0.54559200  1
  C  C42  1  0.02091500  0.72284000  0.55755400  1
  C  C43  1  0.00108100  0.80275000  0.58176300  1
  C  C44  1  0.91997800  0.82581200  0.59502200  1
  C  C45  1  0.85801000  0.76864500  0.58357900  1
  C  C46  1  0.87679100  0.68900600  0.55885000  1
  C  C47  1  0.96147900  0.38453000  0.63730100  1
  C  C48  1  0.02539400  0.34370700  0.68265100  1
  C  C49  1  0.00742900  0.29038500  0.75171700  1
  C  C50  1  0.92688500  0.27696600  0.77787400  1
  C  C51  1  0.86358300  0.31658100  0.73418500  1
  C  C52  1  0.88045100  0.36887300  0.66418800  1
  C  C53  1  0.04725000  0.61476600  0.36508600  1
  C  C54  1  0.98319300  0.65710900  0.32182000  1
  C  C55  1  0.00077000  0.71327300  0.25527100  1
  C  C56  1  0.08123600  0.72857800  0.22996100  1
  C  C57  1  0.14485500  0.68758400  0.27160000  1
  C  C58  1  0.12820600  0.63171600  0.33844500  1
  C  C59  1  0.95130700  0.44826700  0.32788900  1
  C  C60  1  0.01180600  0.43031900  0.26363500  1
  C  C61  1  0.98901900  0.40353500  0.17988700  1
  C  C62  1  0.90699900  0.39300600  0.15795400  1
  C  C63  1  0.84697800  0.40985300  0.22006300  1
  C  C64  1  0.86867100  0.43791300  0.30344400  1
  C  C65  1  0.05851500  0.54872300  0.67345300  1
  C  C66  1  0.99886000  0.56676800  0.73858100  1
  C  C67  1  0.02282000  0.59139400  0.82271500  1
  C  C68  1  0.10521500  0.59867200  0.84457400  1
  C  C69  1  0.16450200  0.58095700  0.78191300  1
  C  C70  1  0.14156000  0.55635100  0.69765100  1
  C  C71  1  0.54759400  0.09016700  0.65588000  1
  C  C72  1  0.61907600  0.13749600  0.66314000  1
  C  C73  1  0.63721700  0.17648100  0.74243100  1
  C  C74  1  0.58471600  0.16910200  0.81439000  1
  C  C75  1  0.51326800  0.12294100  0.80709900  1
  C  C76  1  0.49457200  0.08407200  0.72798400  1
  C  C77  1  0.43931800  0.91185500  0.35071600  1
  C  C78  1  0.49232900  0.87316400  0.29161600  1
  C  C79  1  0.46029500  0.82654900  0.22309000  1
  C  C80  1  0.37561700  0.81902700  0.21242600  1
  C  C81  1  0.32265200  0.85753200  0.27134400  1
  C  C82  1  0.35450100  0.90312100  0.34091200  1
  C  C83  1  0.55868200  0.91300500  0.65078200  1
  C  C84  1  0.64302300  0.90250100  0.66290800  1
  C  C85  1  0.67202800  0.85816800  0.73486000  1
  C  C86  1  0.61685500  0.82346700  0.79422800  1
  C  C87  1  0.53256600  0.83276700  0.78143400  1
  C  C88  1  0.50350000  0.87728600  0.70968000  1
  C  C89  1  0.44478600  0.08966600  0.34680000  1
  C  C90  1  0.50140000  0.11817600  0.28475900  1
  C  C91  1  0.47432000  0.16219300  0.21167100  1
  C  C92  1  0.39088300  0.17825000  0.20054200  1
  C  C93  1  0.33445500  0.15080100  0.26290500  1
  C  C94  1  0.36141600  0.10698600  0.33614400  1
  C  C95  1  0.38206000  0.39732300  0.91169600  1
  C  C96  1  0.29802800  0.41066200  0.92544800  1
  C  C97  1  0.24038300  0.35910200  0.88631900  1
  C  C98  1  0.26610000  0.29405800  0.83387400  1
  C  C99  1  0.34954200  0.28097700  0.81955700  1
  C  C100  1  0.40741900  0.33222100  0.85863800  1
  C  C101  1  0.62201200  0.60269500  0.08042800  1
  C  C102  1  0.61916500  0.68737200  0.06795400  1
  C  C103  1  0.68152700  0.73669000  0.10165700  1
  C  C104  1  0.74796200  0.70143800  0.14529600  1
  C  C105  1  0.75181900  0.61683600  0.15555100  1
  C  C106  1  0.68858200  0.56766300  0.12398100  1
  N  N1  1  0.50947200  0.50338500  0.26289900  1
  N  N2  1  0.49756500  0.49907000  0.73231100  1
  Cl  Cl1  1  0.88247500  0.29572600  0.45830100  1
  Cl  Cl2  1  0.12694100  0.70167000  0.54422000  1
  Cl  Cl3  1  0.13086100  0.35670200  0.65763500  1
  Cl  Cl4  1  0.87807900  0.64343200  0.34773000  1
  Cl  Cl5  1  0.11884200  0.43879300  0.28246400  1
  Cl  Cl6  1  0.89154000  0.56016400  0.72079500  1
  Cl  Cl7  1  0.68846300  0.14842000  0.57382400  1
  Cl  Cl8  1  0.60031100  0.88139700  0.30344700  1
  Cl  Cl9  1  0.71338500  0.94236300  0.58512300  1
  Cl  Cl10  1  0.60788100  0.10024400  0.29899900  1
  Cl  Cl11  1  0.26293900  0.49446900  0.98931800  1
  Cl  Cl12  1  0.53655400  0.73314600  0.00995200  1
  O  O1  1  0.50110100  0.37761500  0.57321300  1
  O  O2  1  0.50579700  0.62509000  0.42210800  1
  O  O3  1  0.50454500  0.37858800  0.41926400  1
  O  O4  1  0.50235300  0.62402000  0.57610500  1
  O  O5  1  0.37815800  0.50137700  0.57086000  1
  O  O6  1  0.62912200  0.50112000  0.42451500  1
  O  O7  1  0.38159700  0.50241700  0.41687000  1
  O  O8  1  0.62556700  0.50007600  0.57847200  1
