# Generated by REPEAT Assigner based on pymatgen
data_DB0-m3_o146_o6_f0_fsc.sym.9
_audit_creation_date              2022-05-24
_audit_creation_method            REPEAT_Assigner
_cell_length_a                    15.333064
_cell_length_b                    11.815392
_cell_length_c                    14.415514
_cell_angle_alpha                 90.149412
_cell_angle_beta                  89.989660
_cell_angle_gamma                 90.000000
_cell_volume                      2611.594326
_symmetry_space_group_name_H-M    P1
_symmetry_Int_Tables_number       1
loop_
    _symmetry_equiv_pos_site_id
    _symmetry_equiv_pos_as_xyz
    1  x,y,z
loop_
    _atom_site_type_symbol
    _atom_site_label
    _atom_site_fract_x
    _atom_site_fract_y
    _atom_site_fract_z
    _atom_type_partial_charge
    C   C1   0.301349  0.731066  0.006365  -0.054127
    C   C2   0.698651  0.268933  0.993635  -0.053925
    C   C3   0.077703  0.940835  0.007920  -0.005590
    C   C4   0.922296  0.059164  0.992080  -0.005543
    C   C5   0.177640  0.808342  0.085545  -0.122557
    C   C6   0.822360  0.191658  0.914455  -0.122592
    H   H1   0.136711  0.812030  0.146552  0.092086
    H   H2   0.863288  0.187969  0.853448  0.092093
    C   C7   0.280760  0.794942  0.929210  -0.118273
    C   C8   0.719239  0.205058  0.070790  -0.118269
    H   H3   0.319801  0.789661  0.866925  0.124796
    H   H4   0.680198  0.210339  0.133075  0.124850
    C   C9   0.250052  0.739236  0.084990  -0.151485
    C   C10  0.749947  0.260764  0.915010  -0.151497
    H   H5   0.264135  0.689005  0.145705  0.117893
    H   H6   0.735864  0.310994  0.854295  0.117846
    C   C11  0.157538  0.872781  0.008827  0.235619
    C   C12  0.842462  0.127219  0.991173  0.235630
    C   C13  0.209580  0.866300  0.930813  -0.183260
    C   C14  0.790419  0.133700  0.069187  -0.183359
    H   H7   0.193170  0.914470  0.869601  0.088533
    H   H8   0.806830  0.085529  0.130399  0.088533
    C   C15  0.307099  0.260673  0.994949  -0.058455
    C   C16  0.692901  0.739327  0.005051  -0.058568
    C   C17  0.079139  0.056427  0.991329  0.039590
    C   C18  0.920861  0.943573  0.008671  0.039467
    C   C19  0.177560  0.195105  0.918095  -0.158125
    C   C20  0.822439  0.804894  0.081905  -0.158136
    H   H9   0.133149  0.200584  0.860041  0.106462
    H   H10  0.866851  0.799415  0.139959  0.106455
    C   C21  0.290993  0.184825  0.066686  0.056405
    C   C22  0.709006  0.815174  0.933314  0.056685
    C   C23  0.250515  0.263230  0.920149  -0.145993
    C   C24  0.749485  0.736769  0.079851  -0.145969
    H   H11  0.260779  0.321804  0.863756  0.132489
    H   H12  0.739221  0.678196  0.136244  0.132494
    C   C25  0.160801  0.121426  0.989894  0.171547
    C   C26  0.839199  0.878573  0.010106  0.171596
    C   C27  0.218010  0.116571  0.063742  -0.123441
    C   C28  0.781989  0.883429  0.936258  -0.123570
    H   H13  0.204818  0.061094  0.121542  0.059692
    H   H14  0.795182  0.938905  0.878458  0.059714
    C   C29  0.998754  0.885812  0.017215  -0.230342
    C   C30  0.001246  0.114188  0.982785  -0.230406
    H   H15  0.998117  0.795056  0.026460  0.097857
    H   H16  0.001883  0.204944  0.973540  0.097828
    O   O1   0.593670  0.614354  0.081543  -0.680304
    O   O2   0.406330  0.385646  0.918458  -0.680314
    O   O3   0.589209  0.624659  0.922139  -0.599895
    O   O4   0.410791  0.375341  0.077862  -0.599680
    C   C31  0.620416  0.657528  0.002605  0.735902
    C   C32  0.379583  0.342472  0.997395  0.735753
    O   O5   0.596524  0.389637  0.917690  -0.677988
    O   O6   0.403476  0.610363  0.082310  -0.678096
    O   O7   0.594151  0.379314  0.077173  -0.647472
    O   O8   0.405849  0.620685  0.922827  -0.647385
    C   C33  0.625524  0.348680  0.996275  0.732035
    C   C34  0.374476  0.651320  0.003725  0.732191
    Zn  Zn1  0.500223  0.502850  0.897199  1.055862
    Zn  Zn2  0.499776  0.497150  0.102801  1.055802
    H   H17  0.499610  0.322104  0.588212  0.155607
    H   H18  0.500389  0.677895  0.411788  0.155603
    C   C35  0.500208  0.397617  0.453794  -0.256675
    C   C36  0.499792  0.602382  0.546206  -0.256550
    H   H19  0.500339  0.317376  0.417601  0.218300
    H   H20  0.499661  0.682623  0.582399  0.218236
    C   C37  0.500461  0.497352  0.404358  0.298289
    C   C38  0.499539  0.502647  0.595642  0.297939
    C   C39  0.500236  0.599714  0.450567  -0.136315
    C   C40  0.499763  0.400285  0.549433  -0.136159
    C   C41  0.500689  0.494876  0.304827  0.043969
    C   C42  0.499311  0.505124  0.695173  0.044322
    N   N1   0.499281  0.506306  0.775431  -0.100052
    N   N2   0.500719  0.493693  0.224569  -0.099808
    Cl  Cl1  0.361543  0.168369  0.161651  -0.112849
    Cl  Cl2  0.638457  0.831631  0.838350  -0.112944
