# Generated by REPEAT Assigner based on pymatgen
data_DB0-m29_o99_o53_f0_pts.sym.85
_audit_creation_date              2022-05-24
_audit_creation_method            REPEAT_Assigner
_cell_length_a                    15.811336
_cell_length_b                    9.278915
_cell_length_c                    24.502377
_cell_angle_alpha                 94.557262
_cell_angle_beta                  101.767215
_cell_angle_gamma                 100.344317
_cell_volume                      3436.808782
_symmetry_space_group_name_H-M    P1
_symmetry_Int_Tables_number       1
loop_
    _symmetry_equiv_pos_site_id
    _symmetry_equiv_pos_as_xyz
    1  x,y,z
loop_
    _atom_site_type_symbol
    _atom_site_label
    _atom_site_fract_x
    _atom_site_fract_y
    _atom_site_fract_z
    _atom_type_partial_charge
    C   C1   0.221103  0.004218  0.918066  -0.126945
    H   H1   0.226414  0.993701  0.874701  0.120184
    C   C2   0.140006  0.003910  0.930175  -0.101764
    H   H2   0.082645  0.991507  0.896297  0.128738
    C   C3   0.132274  0.020495  0.985106  0.221425
    C   C4   0.206147  0.037834  0.028025  -0.192546
    H   H3   0.198103  0.047902  0.070812  0.161317
    C   C5   0.288625  0.039623  0.016382  0.068677
    C   C6   0.295803  0.024067  0.960535  -0.012020
    C   C7   0.046706  0.016591  0.997182  -0.115673
    C   C8   0.973520  0.011785  0.005370  -0.104060
    C   C9   0.807379  0.953847  0.974312  0.106128
    C   C10  0.727012  0.960742  0.990027  -0.152846
    C   C11  0.726573  0.009974  0.045112  0.080023
    C   C12  0.804739  0.061337  0.083643  -0.165957
    H   H4   0.805016  0.099232  0.126555  0.153390
    C   C13  0.883364  0.060368  0.068476  -0.116774
    H   H5   0.944318  0.100491  0.099342  0.138225
    C   C14  0.886317  0.006288  0.015066  0.135101
    O   O1   0.518128  0.191631  0.843438  -0.585683
    C   C15  0.469601  0.191926  0.793085  0.599184
    O   O2   0.441473  0.155671  0.961119  -0.441236
    O   O3   0.417878  0.070456  0.765410  -0.510251
    O   O4   0.388136  0.939435  0.903920  -0.493008
    C   C16  0.380193  0.036016  0.943785  0.569817
    Fe  Fe1  0.496889  0.004914  0.876892  1.344141
    O   O5   0.589455  0.028008  0.948282  -0.474761
    O   O6   0.622883  0.825004  0.907118  -0.405884
    C   C17  0.642810  0.934534  0.947518  0.573967
    O   O7   0.496012  0.856126  0.812509  -0.514850
    O   O8   0.446549  0.699939  0.871167  -0.414571
    C   C18  0.468974  0.720732  0.823281  0.537829
    O   O9   0.523773  0.170973  0.194458  -0.426158
    O   O10  0.520367  0.314015  0.123847  -0.426794
    C   C19  0.521026  0.300188  0.176810  0.484780
    O   O11  0.439643  0.020791  0.055322  -0.374596
    O   O12  0.354965  0.073417  0.115306  -0.496082
    C   C20  0.364514  0.048849  0.063648  0.465501
    O   O13  0.586710  0.949437  0.239623  -0.502774
    O   O14  0.638978  0.089474  0.107267  -0.577484
    C   C21  0.644122  0.998105  0.064762  0.593243
    O   O15  0.493464  0.836705  0.157562  -0.568446
    C   C22  0.534518  0.831678  0.209492  0.573578
    O   O16  0.579236  0.884795  0.044832  -0.474867
    Fe  Fe2  0.525029  0.027958  0.128835  1.357211
    C   C23  0.449325  0.580229  0.382182  0.427974
    N   N1   0.515247  0.531685  0.363727  -0.122612
    C   C24  0.574794  0.474392  0.398515  0.409502
    C   C25  0.569309  0.465454  0.453857  -0.075289
    C   C26  0.502596  0.515285  0.473235  0.081025
    C   C27  0.442132  0.572883  0.437233  -0.099273
    C   C28  0.630332  0.408125  0.490062  -0.061945
    C   C29  0.624167  0.400622  0.545120  -0.059883
    C   C30  0.556845  0.450137  0.564371  -0.104746
    C   C31  0.496322  0.507520  0.528330  0.096242
    C   C32  0.429486  0.557036  0.547653  -0.080938
    C   C33  0.368486  0.614444  0.511467  -0.063283
    C   C34  0.374813  0.622397  0.456471  -0.055682
    C   C35  0.549678  0.442966  0.619456  0.436039
    N   N2   0.483455  0.490836  0.637815  -0.142717
    C   C36  0.423754  0.547600  0.602912  0.412872
    O   O17  0.389241  0.633060  0.346436  -0.465874
    O   O18  0.640926  0.429437  0.379603  -0.459159
    H   H6   0.683457  0.368453  0.476049  0.134883
    H   H7   0.672633  0.355141  0.572523  0.129550
    O   O19  0.610050  0.390927  0.655283  -0.466967
    O   O20  0.357129  0.591424  0.621600  -0.461362
    H   H8   0.315290  0.653949  0.525449  0.134510
    H   H9   0.326392  0.668002  0.429082  0.129953
    C   C37  0.476127  0.603510  0.729828  -0.253085
    H   H10  0.480346  0.709668  0.714195  0.199835
    C   C38  0.471258  0.591911  0.785071  0.124152
    C   C39  0.469841  0.456629  0.805142  -0.220036
    C   C40  0.469541  0.332616  0.770097  0.103052
    C   C41  0.470597  0.343168  0.714489  -0.217078
    H   H11  0.469767  0.245577  0.687009  0.162738
    C   C42  0.476078  0.479103  0.694486  0.244538
    C   C43  0.519816  0.418368  0.271233  -0.221282
    H   H12  0.515002  0.312165  0.286843  0.183924
    C   C44  0.521164  0.429370  0.215408  0.105294
    C   C45  0.523107  0.564663  0.195529  -0.213447
    C   C46  0.528251  0.689460  0.231393  0.148026
    C   C47  0.528934  0.679217  0.287226  -0.246379
    H   H13  0.532726  0.777369  0.315254  0.174228
    C   C48  0.522125  0.543124  0.306979  0.231512
    H   H14  0.468177  0.446333  0.848540  0.163702
    H   H15  0.524124  0.574951  0.152058  0.160157
    C   C49  0.801382  0.893136  0.913588  -0.307459
    C   C50  0.883779  0.881166  0.891899  0.690578
    C   C51  0.920881  0.750174  0.913154  -0.402622
    C   C52  0.858223  0.853158  0.828198  -0.456208
    H   H16  0.765412  0.961753  0.885922  0.045301
    H   H17  0.763211  0.778404  0.906728  0.112853
    H   H18  0.932023  0.986442  0.901434  -0.111918
    H   H19  0.881701  0.646720  0.887603  0.080026
    H   H20  0.917127  0.740267  0.957364  0.076337
    H   H21  0.990106  0.760711  0.909002  0.066933
    H   H22  0.801691  0.758692  0.814240  0.095770
    H   H23  0.915236  0.828420  0.811947  0.087371
    H   H24  0.839776  0.952935  0.810916  0.083939
