# generated using pymatgen
data_Zn2H14C13(NO4)2
_symmetry_space_group_name_H-M   'P 1'
_cell_length_a   7.80542200
_cell_length_b   8.94580900
_cell_length_c   11.09771300
_cell_angle_alpha   89.99478000
_cell_angle_beta   84.00008400
_cell_angle_gamma   91.44877700
_symmetry_Int_Tables_number   1
_chemical_formula_structural   Zn2H14C13(NO4)2
_chemical_formula_sum   'Zn2 H14 C13 N2 O8'
_cell_volume   770.41267404
_cell_formula_units_Z   1
loop_
 _symmetry_equiv_pos_site_id
 _symmetry_equiv_pos_as_xyz
  1  'x, y, z'
loop_
 _atom_site_type_symbol
 _atom_site_label
 _atom_site_symmetry_multiplicity
 _atom_site_fract_x
 _atom_site_fract_y
 _atom_site_fract_z
 _atom_site_occupancy
  Zn  Zn1  1  0.30808200  0.51936500  0.51424400  1
  Zn  Zn2  1  0.69748400  0.48531200  0.48811000  1
  H  H1  1  0.76407800  0.47510700  0.09250200  1
  H  H2  1  0.37425800  0.51115700  0.10383800  1
  H  H3  1  0.75621100  0.46657100  0.86827000  1
  H  H4  1  0.37034400  0.52310600  0.91964700  1
  H  H5  1  0.30898200  0.99920400  0.51472200  1
  H  H6  1  0.84710500  0.92544500  0.47660400  1
  H  H7  1  0.78000900  0.08429600  0.39904300  1
  H  H8  1  0.77913400  0.08342800  0.56483300  1
  H  H9  1  0.93124700  0.34781500  0.31155100  1
  H  H10  1  0.07317300  0.50901000  0.29812200  1
  H  H11  1  0.13686500  0.33641500  0.36874700  1
  H  H12  1  0.07472900  0.65591000  0.69061500  1
  H  H13  1  0.86858200  0.66698100  0.63390600  1
  H  H14  1  0.93450600  0.49373700  0.70265700  1
  C  C1  1  0.54462900  0.79353000  0.49803500  1
  C  C2  1  0.49799600  0.50267600  0.73719900  1
  C  C3  1  0.46190600  0.21086000  0.50432700  1
  C  C4  1  0.50656000  0.50194100  0.26539500  1
  C  C5  1  0.64104500  0.48683100  0.05678100  1
  C  C6  1  0.50009000  0.50116200  0.13424600  1
  C  C7  1  0.63661400  0.48483500  0.92386000  1
  C  C8  1  0.49370500  0.50443200  0.86947000  1
  C  C9  1  0.57285600  0.95638800  0.49619100  1
  C  C10  1  0.43859600  0.04722300  0.50576000  1
  C  C11  1  0.75444800  0.01746800  0.48350600  1
  C  C12  1  0.03009700  0.41182700  0.35647300  1
  C  C13  1  0.97593400  0.59197200  0.64558100  1
  N  N1  1  0.95359500  0.46365200  0.47172200  1
  N  N2  1  0.05203000  0.54093500  0.53025700  1
  O  O1  1  0.38631000  0.73743300  0.50831900  1
  O  O2  1  0.68139600  0.71078200  0.48927900  1
  O  O3  1  0.35112700  0.51574800  0.69104600  1
  O  O4  1  0.64637300  0.48950100  0.67099100  1
  O  O5  1  0.32421800  0.29345500  0.51325800  1
  O  O6  1  0.61899200  0.26776400  0.49395300  1
  O  O7  1  0.35935100  0.51491100  0.33177600  1
  O  O8  1  0.65433400  0.48910900  0.31102800  1
