# generated using pymatgen
data_Zn3H44(C4O)12
_symmetry_space_group_name_H-M   'P 1'
_cell_length_a   21.89752800
_cell_length_b   21.89751900
_cell_length_c   38.87523800
_cell_angle_alpha   90.00000000
_cell_angle_beta   90.00000000
_cell_angle_gamma   90.00000000
_symmetry_Int_Tables_number   1
_chemical_formula_structural   Zn3H44(C4O)12
_chemical_formula_sum   'Zn12 H176 C192 O48'
_cell_volume   18640.73631132
_cell_formula_units_Z   4
loop_
 _symmetry_equiv_pos_site_id
 _symmetry_equiv_pos_as_xyz
  1  'x, y, z'
loop_
 _atom_site_type_symbol
 _atom_site_label
 _atom_site_symmetry_multiplicity
 _atom_site_fract_x
 _atom_site_fract_y
 _atom_site_fract_z
 _atom_site_occupancy
  Zn  Zn1  1  0.49959800  0.06947100  0.50003100  1
  Zn  Zn2  1  0.93116100  0.49955600  0.50010500  1
  Zn  Zn3  1  0.49970500  0.93116800  0.49989500  1
  Zn  Zn4  1  0.06947200  0.49978200  0.49996400  1
  Zn  Zn5  1  0.00033000  0.56882200  0.99993800  1
  Zn  Zn6  1  0.43052400  0.00041600  0.99985900  1
  Zn  Zn7  1  0.00037800  0.43050900  0.00007700  1
  Zn  Zn8  1  0.56883100  0.00024400  0.00006500  1
  Zn  Zn9  1  0.99992700  0.99960900  0.46104900  1
  Zn  Zn10  1  0.99960400  0.99996700  0.53886800  1
  Zn  Zn11  1  0.50005700  0.50039400  0.96108100  1
  Zn  Zn12  1  0.50041600  0.50003000  0.03890000  1
  H  H1  1  0.59839000  0.99120700  0.89012900  1
  H  H2  1  0.00592800  0.59603600  0.89039600  1
  H  H3  1  0.40375000  0.00947700  0.89031400  1
  H  H4  1  0.99487200  0.40085400  0.89011200  1
  H  H5  1  0.59597100  0.00389700  0.10962600  1
  H  H6  1  0.00749100  0.40340300  0.10961700  1
  H  H7  1  0.40060300  0.99684500  0.10981800  1
  H  H8  1  0.99323000  0.59837700  0.10989000  1
  H  H9  1  0.09659000  0.49270800  0.39042600  1
  H  H10  1  0.50837500  0.09887500  0.39007700  1
  H  H11  1  0.90159000  0.50660400  0.39015100  1
  H  H12  1  0.49019400  0.90422700  0.39036600  1
  H  H13  1  0.09912300  0.50533000  0.60992800  1
  H  H14  1  0.50353100  0.90142500  0.60986600  1
  H  H15  1  0.90396200  0.49390900  0.60964800  1
  H  H16  1  0.49639200  0.09679100  0.60958000  1
  H  H17  1  0.59810400  0.99165800  0.82786800  1
  H  H18  1  0.00557800  0.59619600  0.82812300  1
  H  H19  1  0.40362500  0.00868200  0.82805900  1
  H  H20  1  0.99561100  0.40124800  0.82783700  1
  H  H21  1  0.59604300  0.00348800  0.17188300  1
  H  H22  1  0.00661700  0.40319200  0.17185900  1
  H  H23  1  0.40090800  0.99765400  0.17207800  1
  H  H24  1  0.99373200  0.59800800  0.17213500  1
  H  H25  1  0.09680100  0.49356900  0.32818500  1
  H  H26  1  0.50748700  0.09852500  0.32781800  1
  H  H27  1  0.90196200  0.50608900  0.32790500  1
  H  H28  1  0.49054200  0.90404000  0.32810700  1
  H  H29  1  0.09873500  0.50458300  0.67220300  1
  H  H30  1  0.50317400  0.90184200  0.67212700  1
  H  H31  1  0.90380600  0.49425200  0.67192100  1
  H  H32  1  0.49726300  0.09697500  0.67183400  1
  H  H33  1  0.43415200  0.07139000  0.78111600  1
  H  H34  1  0.93140400  0.43028300  0.78100900  1
  H  H35  1  0.56722800  0.92853500  0.78116400  1
  H  H36  1  0.07018600  0.56757800  0.78139500  1
  H  H37  1  0.42811700  0.93327700  0.21897700  1
  H  H38  1  0.93033800  0.56881700  0.21886100  1
  H  H39  1  0.56912400  0.06830600  0.21862800  1
  H  H40  1  0.06955300  0.43191700  0.21887000  1
  H  H41  1  0.93103500  0.56952600  0.28117500  1
  H  H42  1  0.42741300  0.93453600  0.28131600  1
  H  H43  1  0.06819800  0.43056900  0.28117900  1
  H  H44  1  0.57026100  0.06761700  0.28096500  1
  H  H45  1  0.93255000  0.42969100  0.71864700  1
  H  H46  1  0.43290300  0.07014700  0.71878300  1
  H  H47  1  0.06958400  0.56873100  0.71903300  1
  H  H48  1  0.56793800  0.92914200  0.71882400  1
  H  H49  1  0.69058100  0.92955300  0.46406500  1
  H  H50  1  0.07109400  0.69055700  0.46419800  1
  H  H51  1  0.30865400  0.06989800  0.46325500  1
  H  H52  1  0.93097200  0.30868000  0.46320800  1
  H  H53  1  0.69103200  0.07330900  0.53574900  1
  H  H54  1  0.07211700  0.30816500  0.53664800  1
  H  H55  1  0.30815700  0.92880200  0.53672500  1
  H  H56  1  0.92739100  0.69108800  0.53591500  1
  H  H57  1  0.19182700  0.42831800  0.96329700  1
  H  H58  1  0.56955700  0.19134600  0.96321900  1
  H  H59  1  0.80896300  0.57219400  0.96407000  1
  H  H60  1  0.42833700  0.80940500  0.96422600  1
  H  H61  1  0.19137400  0.56940800  0.03677000  1
  H  H62  1  0.57207400  0.80894300  0.03592200  1
  H  H63  1  0.80943600  0.42844000  0.03575500  1
  H  H64  1  0.42844400  0.19180500  0.03667800  1
  H  H65  1  0.85859200  0.90123900  0.46799200  1
  H  H66  1  0.74004600  0.84520800  0.44440800  1
  H  H67  1  0.76354900  0.84121500  0.48906200  1
  H  H68  1  0.81210700  0.81159100  0.45537200  1
  H  H69  1  0.76549800  0.93416400  0.41170200  1
  H  H70  1  0.83661100  0.89319700  0.40632100  1
  H  H71  1  0.83709000  0.97263400  0.41890800  1
  H  H72  1  0.09873800  0.85874100  0.46774600  1
  H  H73  1  0.15622100  0.74005000  0.44556000  1
  H  H74  1  0.15877400  0.76467200  0.49005900  1
  H  H75  1  0.18903500  0.81262000  0.45627200  1
  H  H76  1  0.06799300  0.76422300  0.41183100  1
  H  H77  1  0.10853600  0.83554500  0.40633800  1
  H  H78  1  0.02878000  0.83566000  0.41827300  1
  H  H79  1  0.14026600  0.09704800  0.46636200  1
  H  H80  1  0.25868500  0.15464600  0.44385700  1
  H  H81  1  0.23416000  0.15816300  0.48833900  1
  H  H82  1  0.18592400  0.18735800  0.45439200  1
  H  H83  1  0.23542600  0.06496700  0.41106100  1
  H  H84  1  0.16404300  0.10512700  0.40495900  1
  H  H85  1  0.16401600  0.02578500  0.41774200  1
  H  H86  1  0.90305400  0.14048000  0.46666200  1
  H  H87  1  0.84699400  0.25883900  0.44284100  1
  H  H88  1  0.84203700  0.23531500  0.48744900  1
  H  H89  1  0.81343800  0.18657900  0.45356900  1
  H  H90  1  0.93731600  0.23424900  0.41101100  1
  H  H91  1  0.89668400  0.16309800  0.40501500  1
  H  H92  1  0.97570200  0.16264800  0.41841700  1
  H  H93  1  0.85940500  0.09981600  0.53217300  1
  H  H94  1  0.74110500  0.15811800  0.55435200  1
  H  H95  1  0.76575400  0.16048700  0.50985400  1
  H  H96  1  0.81389800  0.19043500  0.54364200  1
  H  H97  1  0.76469300  0.06975300  0.58810300  1
  H  H98  1  0.83629400  0.10980900  0.59358100  1
  H  H99  1  0.83585800  0.03004700  0.58166100  1
  H  H100  1  0.09809900  0.13959100  0.53350700  1
  H  H101  1  0.15655700  0.25760600  0.55598800  1
  H  H102  1  0.15986100  0.23304100  0.51150800  1
  H  H103  1  0.18874500  0.18461200  0.54545300  1
  H  H104  1  0.06676100  0.23497500  0.58882100  1
  H  H105  1  0.10640600  0.16330200  0.59490600  1
  H  H106  1  0.02705400  0.16385300  0.58214800  1
  H  H107  1  0.13976900  0.90203700  0.53324400  1
  H  H108  1  0.25773100  0.84516000  0.55708000  1
  H  H109  1  0.23418200  0.84034900  0.51247100  1
  H  H110  1  0.18524000  0.81210400  0.54635200  1
  H  H111  1  0.23376400  0.93565600  0.58889800  1
  H  H112  1  0.16232300  0.89553600  0.59489200  1
  H  H113  1  0.16244300  0.97455000  0.58148100  1
  H  H114  1  0.90019700  0.85928800  0.53196900  1
  H  H115  1  0.84339800  0.74112800  0.55558900  1
  H  H116  1  0.83951200  0.76463900  0.51093400  1
  H  H117  1  0.81024900  0.81340700  0.54462800  1
  H  H118  1  0.93255100  0.76600300  0.58826400  1
  H  H119  1  0.89206900  0.83739300  0.59364600  1
  H  H120  1  0.97149500  0.83733100  0.58103400  1
  H  H121  1  0.36036100  0.40227100  0.96639500  1
  H  H122  1  0.24241500  0.34404400  0.94366200  1
  H  H123  1  0.26662000  0.34059300  0.98819800  1
  H  H124  1  0.31529000  0.31173800  0.95435400  1
  H  H125  1  0.26513400  0.43402500  0.91106400  1
  H  H126  1  0.33674000  0.39426500  0.90495600  1
  H  H127  1  0.33631800  0.47356300  0.91782000  1
  H  H128  1  0.59740300  0.35959500  0.96670300  1
  H  H129  1  0.65366700  0.24117200  0.94308600  1
  H  H130  1  0.65854700  0.26502300  0.98764500  1
  H  H131  1  0.68711900  0.31354600  0.95366000  1
  H  H132  1  0.56346100  0.26566900  0.91108000  1
  H  H133  1  0.60397500  0.33688500  0.90508700  1
  H  H134  1  0.52492100  0.33721300  0.91842400  1
  H  H135  1  0.64079800  0.59942800  0.96797400  1
  H  H136  1  0.75889200  0.65605400  0.94416100  1
  H  H137  1  0.73568400  0.66001800  0.98886200  1
  H  H138  1  0.68671500  0.68929100  0.95526400  1
  H  H139  1  0.73395000  0.56678200  0.91165700  1
  H  H140  1  0.66261500  0.60736000  0.90626700  1
  H  H141  1  0.66257700  0.52796800  0.91894400  1
  H  H142  1  0.40077300  0.64117300  0.96782100  1
  H  H143  1  0.34306500  0.75992600  0.94587100  1
  H  H144  1  0.34063500  0.73495700  0.99031400  1
  H  H145  1  0.31036400  0.68723900  0.95642500  1
  H  H146  1  0.43112300  0.73584800  0.91192600  1
  H  H147  1  0.39070300  0.66445500  0.90645200  1
  H  H148  1  0.47050400  0.66447500  0.91829100  1
  H  H149  1  0.35961100  0.59727700  0.03327900  1
  H  H150  1  0.24118700  0.65353200  0.05689400  1
  H  H151  1  0.26503000  0.65839800  0.01233300  1
  H  H152  1  0.31355700  0.68698600  0.04631200  1
  H  H153  1  0.26569300  0.56333200  0.08890500  1
  H  H154  1  0.33690500  0.60385600  0.09489400  1
  H  H155  1  0.33724200  0.52479900  0.08156300  1
  H  H156  1  0.59934600  0.64079100  0.03201400  1
  H  H157  1  0.65594500  0.75889200  0.05582900  1
  H  H158  1  0.65990700  0.73569500  0.01112700  1
  H  H159  1  0.68919500  0.68672500  0.04472000  1
  H  H160  1  0.56667900  0.73392900  0.08833300  1
  H  H161  1  0.60727600  0.66260300  0.09372100  1
  H  H162  1  0.52788200  0.66254700  0.08104500  1
  H  H163  1  0.64121500  0.40084700  0.03215700  1
  H  H164  1  0.75997600  0.34315700  0.05410300  1
  H  H165  1  0.73501200  0.34074000  0.00965800  1
  H  H166  1  0.68729700  0.31044600  0.04354200  1
  H  H167  1  0.73588000  0.43119900  0.08805600  1
  H  H168  1  0.66449500  0.39076100  0.09352500  1
  H  H169  1  0.66449800  0.47056700  0.08169500  1
  H  H170  1  0.40238500  0.36033200  0.03357400  1
  H  H171  1  0.34415300  0.24238300  0.05629300  1
  H  H172  1  0.34073300  0.26658700  0.01175700  1
  H  H173  1  0.31185000  0.31525700  0.04559300  1
  H  H174  1  0.43411200  0.26510800  0.08891100  1
  H  H175  1  0.39434200  0.33671100  0.09501000  1
  H  H176  1  0.47364900  0.33629600  0.08216200  1
  C  C1  1  0.61908300  0.00158500  0.49992400  1
  C  C2  1  0.99897600  0.61909900  0.50006300  1
  C  C3  1  0.38024800  0.99904800  0.49998500  1
  C  C4  1  0.00165800  0.38026700  0.49998300  1
  C  C5  1  0.11975800  0.49859500  0.00005200  1
  C  C6  1  0.49868900  0.11973500  0.99991800  1
  C  C7  1  0.88092200  0.50073400  0.99997800  1
  C  C8  1  0.50066400  0.88089700  0.99999300  1
  C  C9  1  0.49981100  0.99891500  0.56741500  1
  C  C10  1  0.00172400  0.49968600  0.56748600  1
  C  C11  1  0.49947700  0.00172800  0.43252900  1
  C  C12  1  0.99890600  0.49963700  0.43260000  1
  C  C13  1  0.00038400  0.50107400  0.06744200  1
  C  C14  1  0.49816600  0.00031100  0.06741400  1
  C  C15  1  0.00033800  0.49826000  0.93255600  1
  C  C16  1  0.50119300  0.00036200  0.93252900  1
  C  C17  1  0.55525800  0.99512600  0.87682000  1
  C  C18  1  0.00359500  0.55289200  0.87698100  1
  C  C19  1  0.44679800  0.00550800  0.87692400  1
  C  C20  1  0.99727200  0.44411500  0.87682200  1
  C  C21  1  0.55276600  0.00247400  0.12301800  1
  C  C22  1  0.00442900  0.44650800  0.12302500  1
  C  C23  1  0.44388800  0.99833700  0.12312500  1
  C  C24  1  0.99623500  0.55515100  0.12317700  1
  C  C25  1  0.05348000  0.49568700  0.37701800  1
  C  C26  1  0.50439200  0.05572600  0.37679100  1
  C  C27  1  0.94482200  0.50367700  0.37686400  1
  C  C28  1  0.49406200  0.94726100  0.37695300  1
  C  C29  1  0.05586700  0.50284800  0.62321900  1
  C  C30  1  0.50210700  0.94473300  0.62315200  1
  C  C31  1  0.94710200  0.49632200  0.62306300  1
  C  C32  1  0.49791900  0.05360900  0.62299200  1
  C  C33  1  0.55508600  0.99480600  0.84136600  1
  C  C34  1  0.00397400  0.55300100  0.84152700  1
  C  C35  1  0.44673400  0.00563000  0.84147000  1
  C  C36  1  0.99711800  0.44432300  0.84136700  1
  C  C37  1  0.55283200  0.00281500  0.15847100  1
  C  C38  1  0.00450100  0.44638700  0.15847900  1
  C  C39  1  0.44403700  0.99822800  0.15858000  1
  C  C40  1  0.99594900  0.55494000  0.15863100  1
  C  C41  1  0.05360200  0.49560700  0.34156400  1
  C  C42  1  0.50446000  0.05551900  0.34133700  1
  C  C43  1  0.94503300  0.50395600  0.34141000  1
  C  C44  1  0.49368300  0.94716200  0.34149900  1
  C  C45  1  0.05566200  0.50299800  0.65867400  1
  C  C46  1  0.50247600  0.94494700  0.65860600  1
  C  C47  1  0.94699700  0.49593800  0.65851600  1
  C  C48  1  0.49784300  0.05373900  0.65844500  1
  C  C49  1  0.50084900  0.00015400  0.82344500  1
  C  C50  1  0.00061300  0.49874200  0.82348100  1
  C  C51  1  0.49848900  0.00059300  0.17649800  1
  C  C52  1  0.00015600  0.50057800  0.17653400  1
  C  C53  1  0.99940300  0.49984600  0.32350800  1
  C  C54  1  0.49899600  0.00126300  0.32344500  1
  C  C55  1  0.00125100  0.49939800  0.67656200  1
  C  C56  1  0.50023600  0.99943100  0.67649900  1
  C  C57  1  0.50108500  0.00035300  0.89482000  1
  C  C58  1  0.00038600  0.49842400  0.89484800  1
  C  C59  1  0.49827300  0.00035800  0.10512300  1
  C  C60  1  0.00037100  0.50091200  0.10515200  1
  C  C61  1  0.99906800  0.49964700  0.39489000  1
  C  C62  1  0.49931000  0.00157000  0.39482000  1
  C  C63  1  0.00156300  0.49963500  0.60519400  1
  C  C64  1  0.49994100  0.99908500  0.60512400  1
  C  C65  1  0.46314500  0.03936900  0.76768500  1
  C  C66  1  0.96251300  0.46034000  0.76763800  1
  C  C67  1  0.53812500  0.96042400  0.76770900  1
  C  C68  1  0.03919100  0.53764500  0.76785400  1
  C  C69  1  0.45898700  0.96358300  0.23234400  1
  C  C70  1  0.96144000  0.53884800  0.23229500  1
  C  C71  1  0.53834700  0.03812300  0.23215000  1
  C  C72  1  0.03831100  0.46175100  0.23229700  1
  C  C73  1  0.96106500  0.53847700  0.26774400  1
  C  C74  1  0.45931700  0.96352500  0.26779400  1
  C  C75  1  0.03830700  0.46175200  0.26774800  1
  C  C76  1  0.53826000  0.03850700  0.26759900  1
  C  C77  1  0.96242600  0.46074100  0.73218800  1
  C  C78  1  0.46320900  0.03939400  0.73223400  1
  C  C79  1  0.03958700  0.53756300  0.73240400  1
  C  C80  1  0.53775100  0.96003500  0.73226000  1
  C  C81  1  0.50039900  0.99962100  0.71427000  1
  C  C82  1  0.00108500  0.49923400  0.71432500  1
  C  C83  1  0.49885200  0.00109800  0.28567400  1
  C  C84  1  0.99958900  0.50002000  0.28573000  1
  C  C85  1  0.99997300  0.50039400  0.21431200  1
  C  C86  1  0.49860800  0.00076700  0.21426900  1
  C  C87  1  0.00077300  0.49891200  0.78571700  1
  C  C88  1  0.50071200  0.99998700  0.78567400  1
  C  C89  1  0.71681400  0.95999700  0.48010900  1
  C  C90  1  0.04046700  0.71679200  0.48013300  1
  C  C91  1  0.28251100  0.03981600  0.47956800  1
  C  C92  1  0.96086900  0.28251700  0.47961500  1
  C  C93  1  0.71705600  0.04250100  0.51981400  1
  C  C94  1  0.04185400  0.28224100  0.52033100  1
  C  C95  1  0.28221100  0.95885800  0.52030100  1
  C  C96  1  0.95799200  0.71711200  0.51985700  1
  C  C97  1  0.21776900  0.45856200  0.97961600  1
  C  C98  1  0.53966500  0.21749500  0.97963700  1
  C  C99  1  0.78292300  0.54158700  0.98011500  1
  C  C100  1  0.45897600  0.78319000  0.98016500  1
  C  C101  1  0.21752000  0.53951700  0.02035100  1
  C  C102  1  0.54146900  0.78290100  0.01987700  1
  C  C103  1  0.78321800  0.45908300  0.01982100  1
  C  C104  1  0.45869800  0.21774600  0.02036400  1
  C  C105  1  0.78000800  0.95807800  0.48032600  1
  C  C106  1  0.04218100  0.77998200  0.48018700  1
  C  C107  1  0.21932400  0.04148000  0.47961500  1
  C  C108  1  0.95897400  0.21932800  0.47980100  1
  C  C109  1  0.78025700  0.04379500  0.51974900  1
  C  C110  1  0.04308500  0.21904400  0.52027000  1
  C  C111  1  0.21901000  0.95739500  0.52010200  1
  C  C112  1  0.95649200  0.78031900  0.51963000  1
  C  C113  1  0.28096300  0.45734500  0.97964800  1
  C  C114  1  0.54157100  0.28068700  0.97984900  1
  C  C115  1  0.71971800  0.54306700  0.98031300  1
  C  C116  1  0.45725200  0.71999700  0.98024900  1
  C  C117  1  0.28071000  0.54142800  0.02013700  1
  C  C118  1  0.54296100  0.71969800  0.01967800  1
  C  C119  1  0.72002700  0.45735000  0.01973700  1
  C  C120  1  0.45747700  0.28093900  0.02033100  1
  C  C121  1  0.81245100  0.00070200  0.50013800  1
  C  C122  1  0.99931800  0.81247000  0.49980300  1
  C  C123  1  0.18690900  0.99942100  0.49976500  1
  C  C124  1  0.00078800  0.18692900  0.50012700  1
  C  C125  1  0.31309400  0.49961800  0.99980300  1
  C  C126  1  0.49975300  0.31307000  0.00017900  1
  C  C127  1  0.68755300  0.50023600  0.00013100  1
  C  C128  1  0.50014000  0.68752800  0.99985600  1
  C  C129  1  0.68571000  0.00135500  0.49995400  1
  C  C130  1  0.99913300  0.68572700  0.50001000  1
  C  C131  1  0.31360700  0.99924000  0.49994500  1
  C  C132  1  0.00147000  0.31362600  0.49997200  1
  C  C133  1  0.18639800  0.49889200  0.00001200  1
  C  C134  1  0.49903200  0.18637500  0.99997200  1
  C  C135  1  0.81429500  0.50047000  0.99998200  1
  C  C136  1  0.50035700  0.81427000  0.00000600  1
  C  C137  1  0.00029000  0.11965500  0.50034600  1
  C  C138  1  0.87979600  0.00024700  0.50036100  1
  C  C139  1  0.99932400  0.87981800  0.49957300  1
  C  C140  1  0.11963300  0.99941200  0.49955300  1
  C  C141  1  0.50020500  0.62018200  0.99960900  1
  C  C142  1  0.38036800  0.50006200  0.99959800  1
  C  C143  1  0.50018200  0.38034400  0.00038200  1
  C  C144  1  0.62020600  0.50027800  0.00037400  1
  C  C145  1  0.81136000  0.90951800  0.45915100  1
  C  C146  1  0.77936200  0.84820200  0.46228500  1
  C  C147  1  0.81265000  0.92859400  0.42161300  1
  C  C148  1  0.09101800  0.81125800  0.45918600  1
  C  C149  1  0.15245700  0.77977900  0.46309800  1
  C  C150  1  0.07293000  0.81160900  0.42148800  1
  C  C151  1  0.18790000  0.08940600  0.45804300  1
  C  C152  1  0.21900200  0.15112600  0.46144500  1
  C  C153  1  0.18794800  0.07009300  0.42054100  1
  C  C154  1  0.91128400  0.18786900  0.45807200  1
  C  C155  1  0.84972300  0.21952100  0.46073100  1
  C  C156  1  0.93153500  0.18699600  0.42073000  1
  C  C157  1  0.81187200  0.09242900  0.54073800  1
  C  C158  1  0.78081200  0.15407800  0.53681800  1
  C  C159  1  0.81211000  0.07435900  0.57844000  1
  C  C160  1  0.09080600  0.18727900  0.54182800  1
  C  C161  1  0.15274100  0.21794200  0.53840600  1
  C  C162  1  0.07153200  0.18746200  0.57933600  1
  C  C163  1  0.18721300  0.90993700  0.54183600  1
  C  C164  1  0.21843500  0.84815600  0.53918700  1
  C  C165  1  0.18647500  0.93020900  0.57917600  1
  C  C166  1  0.90816600  0.81200700  0.54081500  1
  C  C167  1  0.84663400  0.78041700  0.53770600  1
  C  C168  1  0.92728800  0.81318600  0.57834700  1
  C  C169  1  0.31270500  0.40967300  0.95804500  1
  C  C170  1  0.28194600  0.34776400  0.96134600  1
  C  C171  1  0.31262400  0.42911700  0.92056400  1
  C  C172  1  0.58927300  0.31217100  0.95814300  1
  C  C173  1  0.65086800  0.28061200  0.96088800  1
  C  C174  1  0.56912600  0.31294500  0.92078300  1
  C  C175  1  0.68805000  0.59137400  0.95910200  1
  C  C176  1  0.71971600  0.65288100  0.96212700  1
  C  C177  1  0.68678700  0.57214600  0.92158700  1
  C  C178  1  0.40838200  0.68869000  0.95928900  1
  C  C179  1  0.34691500  0.72007000  0.96331000  1
  C  C180  1  0.42632000  0.68843900  0.92156900  1
  C  C181  1  0.31219000  0.58913900  0.04184000  1
  C  C182  1  0.28062400  0.65073000  0.03909100  1
  C  C183  1  0.31296800  0.56900000  0.07920100  1
  C  C184  1  0.59127800  0.68804000  0.04088700  1
  C  C185  1  0.65277700  0.71972000  0.03786100  1
  C  C186  1  0.57205400  0.68676800  0.07840200  1
  C  C187  1  0.68873000  0.40846500  0.04069000  1
  C  C188  1  0.72012200  0.34700600  0.03666300  1
  C  C189  1  0.68847200  0.42638900  0.07841300  1
  C  C190  1  0.40978800  0.31267800  0.04192500  1
  C  C191  1  0.34788300  0.28191500  0.03861000  1
  C  C192  1  0.42920700  0.31259700  0.07941000  1
  O  O1  1  0.59085700  0.05439300  0.49966100  1
  O  O2  1  0.94619400  0.59082400  0.49979300  1
  O  O3  1  0.40848300  0.94629400  0.50124200  1
  O  O4  1  0.05439100  0.40854700  0.50125400  1
  O  O5  1  0.59050500  0.94893500  0.50019600  1
  O  O6  1  0.94902800  0.40880500  0.49879200  1
  O  O7  1  0.40883100  0.05165400  0.49877400  1
  O  O8  1  0.05165400  0.59057100  0.50031600  1
  O  O9  1  0.09112400  0.55117100  0.00124800  1
  O  O10  1  0.44587700  0.09160300  0.00116100  1
  O  O11  1  0.90954700  0.44810900  0.99972500  1
  O  O12  1  0.55352400  0.90902400  0.99974200  1
  O  O13  1  0.09157600  0.44580800  0.99878400  1
  O  O14  1  0.44806500  0.90957200  0.00022200  1
  O  O15  1  0.90909900  0.55357000  0.00025000  1
  O  O16  1  0.55124100  0.09105100  0.99874700  1
  O  O17  1  0.50040200  0.05152600  0.55123700  1
  O  O18  1  0.94911000  0.50024100  0.55131100  1
  O  O19  1  0.49911200  0.94619400  0.55138500  1
  O  O20  1  0.05444200  0.49910800  0.55145400  1
  O  O21  1  0.49747300  0.94914500  0.44870600  1
  O  O22  1  0.94621900  0.50170800  0.44863100  1
  O  O23  1  0.50166200  0.05441500  0.44855600  1
  O  O24  1  0.05149200  0.49766500  0.44877400  1
  O  O25  1  0.99822100  0.55375700  0.05141200  1
  O  O26  1  0.44547300  0.00106100  0.05135600  1
  O  O27  1  0.00245000  0.44849200  0.05126700  1
  O  O28  1  0.55080200  0.99959000  0.05126200  1
  O  O29  1  0.00100800  0.44554200  0.94858800  1
  O  O30  1  0.44858900  0.00249800  0.94867800  1
  O  O31  1  0.99969100  0.55087300  0.94873200  1
  O  O32  1  0.55385000  0.99812600  0.94858300  1
  O  O33  1  0.00290300  0.09061800  0.47084800  1
  O  O34  1  0.90887000  0.00023700  0.47084100  1
  O  O35  1  0.99929300  0.90825600  0.46986500  1
  O  O36  1  0.09123200  0.99664400  0.46987300  1
  O  O37  1  0.99954200  0.90890300  0.52909000  1
  O  O38  1  0.90824300  0.00001400  0.53006600  1
  O  O39  1  0.99732000  0.09128700  0.53002900  1
  O  O40  1  0.09062700  0.00225400  0.52905400  1
  O  O41  1  0.50031400  0.59175100  0.96989700  1
  O  O42  1  0.40874600  0.50297700  0.96991800  1
  O  O43  1  0.49745900  0.40937100  0.97088200  1
  O  O44  1  0.59111800  0.50014900  0.97086100  1
  O  O45  1  0.50307300  0.40872200  0.03006200  1
  O  O46  1  0.40939600  0.49735800  0.02909800  1
  O  O47  1  0.50009600  0.59109100  0.02912200  1
  O  O48  1  0.59177300  0.50036200  0.03008600  1
