# Generated by REPEAT Assigner based on pymatgen
data_DB0-m2_o1_o9_f0_nbo.sym.104
_audit_creation_date              2022-05-24
_audit_creation_method            REPEAT_Assigner
_cell_length_a                    18.768846
_cell_length_b                    18.739137
_cell_length_c                    18.747531
_cell_angle_alpha                 109.424592
_cell_angle_beta                  109.498702
_cell_angle_gamma                 109.503905
_cell_volume                      5075.006197
_symmetry_space_group_name_H-M    P1
_symmetry_Int_Tables_number       1
loop_
    _symmetry_equiv_pos_site_id
    _symmetry_equiv_pos_as_xyz
    1  x,y,z
loop_
    _atom_site_type_symbol
    _atom_site_label
    _atom_site_fract_x
    _atom_site_fract_y
    _atom_site_fract_z
    _atom_type_partial_charge
    O   O1   0.603736  0.535895  0.469183  -0.451032
    O   O2   0.571983  0.639732  0.537332  -0.481965
    C   C1   0.617417  0.616581  0.503441  0.547342
    O   O3   0.428625  0.467872  0.363165  -0.542347
    O   O4   0.394962  0.537346  0.464330  -0.576842
    C   C2   0.383765  0.503576  0.384524  0.676066
    Cu  Cu1  0.496989  0.439535  0.441755  0.832851
    Cu  Cu2  0.498298  0.561470  0.562275  0.902303
    O   O5   0.390386  0.362166  0.433056  -0.402454
    O   O6   0.424531  0.464273  0.568594  -0.504312
    O   O7   0.565685  0.430225  0.539116  -0.506772
    O   O8   0.601483  0.566672  0.641344  -0.559412
    C   C3   0.377890  0.384203  0.500747  0.472408
    C   C4   0.612178  0.497824  0.619252  0.548677
    C   C5   0.273384  0.227568  0.189255  -0.051149
    H   H1   0.308552  0.200301  0.165335  0.099092
    C   C6   0.285604  0.307816  0.199363  -0.269126
    H   H2   0.330052  0.343206  0.182939  0.142557
    C   C7   0.241006  0.342937  0.230309  0.377011
    C   C8   0.182811  0.296597  0.249290  -0.290247
    C   C9   0.169980  0.216159  0.238124  0.148926
    C   C10  0.215509  0.181639  0.208648  -0.058928
    C   C11  0.191346  0.427384  0.173078  -0.139315
    C   C12  0.194805  0.505119  0.182611  0.013077
    C   C13  0.264346  0.583503  0.256506  0.070835
    C   C14  0.324801  0.582796  0.323002  -0.157882
    C   C15  0.318095  0.504477  0.315406  -0.043048
    C   C16  0.251944  0.426962  0.239355  0.015475
    C   C17  0.318976  0.710972  0.236246  -0.314288
    C   C18  0.325798  0.789638  0.245984  0.133361
    H   H3   0.361002  0.823184  0.221236  0.053845
    C   C19  0.287778  0.825552  0.287137  -0.302908
    H   H4   0.293135  0.887166  0.294600  0.179890
    C   C20  0.243555  0.783229  0.319402  0.036607
    H   H5   0.214336  0.811688  0.352332  0.039518
    C   C21  0.236778  0.704684  0.309865  -0.326634
    H   H6   0.203448  0.672203  0.336352  0.088468
    C   C22  0.273467  0.667775  0.267500  0.454917
    C   C23  0.719173  0.771208  0.557665  0.059438
    H   H7   0.697615  0.791864  0.603513  0.117450
    C   C24  0.782563  0.833750  0.556042  -0.281772
    H   H8   0.809568  0.902282  0.600085  0.147312
    C   C25  0.810867  0.809306  0.497779  0.071772
    C   C26  0.775555  0.721581  0.441279  -0.055934
    C   C27  0.714091  0.658999  0.444600  0.014167
    H   H9   0.687207  0.590790  0.399639  0.098033
    C   C28  0.685155  0.683373  0.502408  -0.183390
    C   C29  0.681539  0.510643  0.764616  -0.120838
    C   C30  0.744918  0.509219  0.827318  -0.095735
    C   C31  0.807009  0.493162  0.812545  0.197095
    C   C32  0.804660  0.478644  0.734250  -0.172508
    C   C33  0.741680  0.480353  0.671721  -0.019543
    C   C34  0.679502  0.496507  0.686314  0.171520
    C   C35  0.247937  0.330990  0.518842  0.027741
    C   C36  0.182629  0.266144  0.516276  -0.274029
    C   C37  0.179467  0.187079  0.498751  0.363165
    C   C38  0.242964  0.174149  0.485196  -0.310617
    H   H10  0.242270  0.113351  0.473512  0.138208
    C   C39  0.306877  0.237420  0.484872  -0.018563
    C   C40  0.309587  0.316473  0.500900  0.122552
    O   O9   0.947556  0.533389  0.088560  -0.534797
    O   O10  0.047173  0.641105  0.083487  -0.503195
    C   C41  0.001260  0.615746  0.118888  0.600481
    O   O11  0.043066  0.449683  0.089516  -0.534075
    O   O12  0.144590  0.559256  0.088593  -0.484541
    C   C42  0.124278  0.502837  0.115014  0.538413
    Cu  Cu3  0.941347  0.436568  0.999411  0.918288
    Cu  Cu4  0.059167  0.561298  0.996025  0.918636
    O   O13  0.946243  0.356473  0.905347  -0.521085
    O   O14  0.050496  0.464139  0.904651  -0.565550
    O   O15  0.855759  0.445107  0.913479  -0.568144
    O   O16  0.957754  0.551023  0.908500  -0.548638
    C   C43  0.001212  0.381798  0.878760  0.494124
    C   C44  0.876703  0.494488  0.879632  0.605019
    O   O17  0.049261  0.908247  0.457756  -0.582575
    O   O18  0.940432  0.907234  0.352649  -0.537832
    C   C45  0.995989  0.880348  0.375795  0.696268
    O   O19  0.959911  0.905545  0.548315  -0.656424
    O   O20  0.851973  0.900942  0.438974  -0.633315
    C   C46  0.877413  0.876660  0.496346  0.827516
    Cu  Cu5  0.057284  0.996580  0.556836  1.021445
    Cu  Cu6  0.932360  0.996205  0.435411  0.944106
    O   O21  0.053576  0.090031  0.639342  -0.606142
    O   O22  0.936557  0.080140  0.534632  -0.598653
    O   O23  0.137571  0.083235  0.544404  -0.579764
    O   O24  0.029724  0.087235  0.443913  -0.492201
    C   C47  0.995595  0.114135  0.616103  0.594976
    C   C48  0.112262  0.118357  0.498287  0.521051
    C   C49  0.991223  0.747902  0.171693  -0.070303
    H   H11  0.985546  0.748483  0.112612  0.062133
    C   C50  0.986245  0.810827  0.230641  -0.009529
    C   C51  0.995921  0.812445  0.307986  -0.101678
    C   C52  0.006349  0.748036  0.322365  0.213432
    H   H12  0.012937  0.747621  0.381705  -0.047485
    C   C53  0.003831  0.680908  0.259916  -0.063139
    C   C54  0.999012  0.682315  0.185060  0.076984
    C   C55  0.077346  0.321728  0.814679  -0.178422
    H   H13  0.139075  0.378286  0.868137  0.095952
    C   C56  0.076030  0.255044  0.752777  -0.116756
    H   H14  0.136766  0.260676  0.757191  0.113788
    C   C57  0.997378  0.182991  0.683887  0.071255
    C   C58  0.920204  0.177054  0.678124  -0.076098
    H   H15  0.858347  0.120770  0.624549  0.117942
    C   C59  0.921712  0.241397  0.742541  -0.207929
    H   H16  0.860950  0.235267  0.738482  0.096895
    C   C60  0.000191  0.314389  0.810315  0.280159
    I   I1   0.195269  0.058209  0.191018  -0.050632
    I   I2   0.812235  0.680536  0.347648  -0.042684
    I   I3   0.586569  0.529800  0.791187  0.029076
    I   I4   0.746623  0.538490  0.946961  0.034537
    I   I5   0.893417  0.448763  0.704002  0.052221
    I   I6   0.749341  0.464131  0.558028  0.007129
    I   I7   0.247014  0.449702  0.548926  0.042437
    I   I8   0.093275  0.294208  0.546838  0.041402
    I   I9   0.403235  0.211727  0.468250  -0.009620
    I   I10  0.968124  0.902728  0.197539  -0.028468
    I   I11  0.010042  0.580834  0.285367  0.017792
    I   I12  0.108690  0.344578  0.290862  0.054747
    I   I13  0.077828  0.146458  0.263719  0.005570
    I   I14  0.098916  0.307897  0.054235  -0.004180
    I   I15  0.430102  0.703124  0.433612  0.033407
    I   I16  0.378273  0.658064  0.173431  -0.023418
