# Generated by REPEAT Assigner based on pymatgen
data_DB0-m3_o49_o159_f0_fsc.sym.5
_audit_creation_date              2022-05-24
_audit_creation_method            REPEAT_Assigner
_cell_length_a                    8.578735
_cell_length_b                    10.798098
_cell_length_c                    13.403553
_cell_angle_alpha                 90.000000
_cell_angle_beta                  90.000000
_cell_angle_gamma                 90.000000
_cell_volume                      1241.625056
_symmetry_space_group_name_H-M    P1
_symmetry_Int_Tables_number       1
loop_
    _symmetry_equiv_pos_site_id
    _symmetry_equiv_pos_as_xyz
    1  x,y,z
loop_
    _atom_site_type_symbol
    _atom_site_label
    _atom_site_fract_x
    _atom_site_fract_y
    _atom_site_fract_z
    _atom_type_partial_charge
    C   C1   0.999764  0.685656  0.982679  -0.108207
    C   C2   0.859972  0.746734  0.986696  -0.193928
    C   C3   0.138584  0.745656  0.997697  -0.206132
    C   C4   0.859973  0.874731  0.988691  0.126300
    C   C5   0.138713  0.873212  0.007287  0.147220
    C   C6   0.723218  0.939846  0.976408  -0.242579
    C   C7   0.276031  0.936729  0.022391  -0.264209
    C   C8   0.724129  0.067323  0.977419  -0.141953
    C   C9   0.276900  0.064212  0.023405  -0.129300
    C   C10  0.999758  0.937944  0.998643  0.009055
    C   C11  0.000349  0.066045  0.001274  0.060155
    C   C12  0.861440  0.130805  0.992595  0.051582
    C   C13  0.140092  0.129283  0.011204  0.041065
    C   C14  0.861626  0.258365  0.002194  -0.102963
    C   C15  0.139985  0.257275  0.013234  -0.099752
    C   C16  0.000303  0.318340  0.017336  -0.187965
    H   H1   0.615677  0.891769  0.961983  0.119474
    H   H2   0.383396  0.887456  0.034546  0.136770
    H   H3   0.616807  0.116630  0.965195  0.137945
    H   H4   0.384440  0.112332  0.037771  0.118881
    H   H5   0.000247  0.588520  0.968880  0.134051
    H   H6   0.999773  0.415455  0.031216  0.135497
    O   O1   0.663425  0.369019  0.913466  -0.700977
    O   O2   0.671718  0.381486  0.084718  -0.604220
    O   O3   0.331262  0.368493  0.919558  -0.634291
    O   O4   0.336261  0.380151  0.090877  -0.714758
    C   C17  0.720221  0.334669  0.000111  0.780147
    C   C18  0.281658  0.333258  0.007919  0.818986
    O   O5   0.667964  0.636213  0.080687  -0.724553
    O   O6   0.663036  0.624469  0.908582  -0.724232
    O   O7   0.337285  0.635563  0.086795  -0.703189
    O   O8   0.329232  0.623293  0.914721  -0.709966
    C   C19  0.718102  0.670771  0.991965  0.914809
    C   C20  0.280172  0.669398  0.999784  0.885866
    Zn  Zn1  0.504226  0.507671  0.110611  1.014361
    Zn  Zn2  0.495816  0.495799  0.889260  1.018013
    C   C21  0.491272  0.600821  0.708358  -0.166786
    C   C22  0.505746  0.615436  0.295759  -0.172974
    N   N1   0.490196  0.492773  0.758486  -0.012775
    N   N2   0.509825  0.510580  0.241478  0.006676
    C   C23  0.489965  0.384709  0.708789  0.396443
    C   C24  0.512534  0.399654  0.287700  0.358575
    C   C25  0.492876  0.382921  0.606047  -0.349632
    C   C26  0.510366  0.391258  0.389871  -0.326113
    C   C27  0.497097  0.493010  0.552212  0.103494
    C   C28  0.503254  0.497054  0.447871  0.106140
    C   C29  0.494301  0.602666  0.605274  0.127952
    C   C30  0.502688  0.610188  0.399160  0.121376
    C   C31  0.498345  0.718571  0.453379  -0.184011
    C   C32  0.495123  0.714796  0.555971  -0.182803
    H   H7   0.503128  0.704004  0.258218  0.183476
    H   H8   0.491126  0.687012  0.749356  0.179699
    H   H9   0.498037  0.807069  0.415701  0.135221
    H   H10  0.492546  0.800484  0.597657  0.135311
    H   H11  0.491455  0.292943  0.572013  0.163811
    H   H12  0.514261  0.299285  0.420142  0.162051
    O   O9   0.487910  0.275403  0.760073  -0.475931
    H   H13  0.594537  0.241737  0.752128  0.350825
    O   O10  0.515698  0.292673  0.233397  -0.475787
    H   H14  0.414267  0.252499  0.247411  0.358760
