# generated using pymatgen
data_Fe2H26C65(NO10)2
_symmetry_space_group_name_H-M   'P 1'
_cell_length_a   14.06367600
_cell_length_b   24.43508100
_cell_length_c   10.91129600
_cell_angle_alpha   119.45272000
_cell_angle_beta   94.40963200
_cell_angle_gamma   76.88448100
_symmetry_Int_Tables_number   1
_chemical_formula_structural   Fe2H26C65(NO10)2
_chemical_formula_sum   'Fe2 H26 C65 N2 O20'
_cell_volume   3177.20720481
_cell_formula_units_Z   1
loop_
 _symmetry_equiv_pos_site_id
 _symmetry_equiv_pos_as_xyz
  1  'x, y, z'
loop_
 _atom_site_type_symbol
 _atom_site_label
 _atom_site_symmetry_multiplicity
 _atom_site_fract_x
 _atom_site_fract_y
 _atom_site_fract_z
 _atom_site_occupancy
  Fe  Fe1  1  0.49892800  0.99189900  0.24603700  1
  Fe  Fe2  1  0.49124000  0.00243900  0.71113400  1
  H  H1  1  0.86696600  0.97930300  0.20272500  1
  H  H2  1  0.78813600  0.02227300  0.80749800  1
  H  H3  1  0.95378300  0.02792800  0.79117300  1
  H  H4  1  0.12171600  0.02816800  0.76841300  1
  H  H5  1  0.19795600  0.98160300  0.15910300  1
  H  H6  1  0.03277800  0.97910600  0.17864900  1
  H  H7  1  0.37651600  0.25170100  0.93671500  1
  H  H8  1  0.28372800  0.33840700  0.89781100  1
  H  H9  1  0.29389600  0.49221800  0.74781900  1
  H  H10  1  0.71223200  0.79959000  0.52135900  1
  H  H11  1  0.02240900  0.71274700  0.59710200  1
  H  H12  1  0.11163200  0.64097500  0.66950900  1
  H  H13  1  0.20732700  0.56798700  0.68456300  1
  H  H14  1  0.28948200  0.20809800  0.45766100  1
  H  H15  1  0.97026300  0.30864900  0.45028000  1
  H  H16  1  0.82823400  0.43219300  0.27901800  1
  H  H17  1  0.74184600  0.50738700  0.21398100  1
  H  H18  1  0.75628100  0.66231400  0.08677700  1
  H  H19  1  0.87791900  0.38253500  0.38564400  1
  H  H20  1  0.68417200  0.68162900  0.91898600  1
  H  H21  1  0.69373400  0.75717600  0.94107800  1
  H  H22  1  0.55741000  0.79066100  0.83403100  1
  H  H23  1  0.38174800  0.80924700  0.79672900  1
  H  H24  1  0.27248900  0.77442300  0.89689100  1
  H  H25  1  0.33975500  0.72032700  0.03413800  1
  H  H26  1  0.51537000  0.70156000  0.07264100  1
  C  C1  1  0.84839400  0.98849300  0.11563100  1
  C  C2  1  0.75370200  0.99215300  0.07014300  1
  C  C3  1  0.73239800  0.00352900  0.95652700  1
  C  C4  1  0.80441100  0.01415700  0.89644100  1
  C  C5  1  0.89859000  0.00977400  0.94191000  1
  C  C6  1  0.92064000  0.99614800  0.05037500  1
  C  C7  1  0.97119900  0.01734000  0.87657400  1
  C  C8  1  0.06612300  0.01096700  0.91971400  1
  C  C9  1  0.08792900  0.99678700  0.02747100  1
  C  C10  1  0.01530200  0.98987700  0.09351800  1
  C  C11  1  0.13923500  0.01838000  0.85488700  1
  C  C12  1  0.23437800  0.01241200  0.89862100  1
  C  C13  1  0.25510000  0.99961900  0.00988400  1
  C  C14  1  0.18217500  0.99057500  0.07126300  1
  C  C15  1  0.67847200  0.98631400  0.14756300  1
  C  C16  1  0.59190500  0.87137800  0.20800800  1
  C  C17  1  0.34970300  0.00196600  0.07540300  1
  C  C18  1  0.39171500  0.10556400  0.45734100  1
  C  C19  1  0.61181800  0.89663000  0.50066300  1
  C  C20  1  0.63921500  0.99757600  0.88653700  1
  C  C21  1  0.43135400  0.12636900  0.74779000  1
  C  C22  1  0.31145600  0.01737800  0.82273600  1
  C  C23  1  0.24932400  0.38264800  0.69014700  1
  C  C24  1  0.13632900  0.31751500  0.58241300  1
  C  C25  1  0.30837600  0.21756500  0.56318000  1
  C  C26  1  0.36378200  0.16844700  0.58273500  1
  C  C27  1  0.35957000  0.24139800  0.83022800  1
  C  C28  1  0.30681900  0.29081800  0.80868800  1
  C  C29  1  0.27905300  0.27857400  0.67518600  1
  C  C30  1  0.11166900  0.41768300  0.58280700  1
  C  C31  1  0.19568800  0.42814600  0.65638700  1
  C  C32  1  0.22735600  0.48315200  0.69223700  1
  C  C33  1  0.08166400  0.36206700  0.54716000  1
  C  C34  1  0.38710800  0.17940300  0.71827400  1
  C  C35  1  0.63723900  0.81926500  0.24085500  1
  C  C36  1  0.03388900  0.56384600  0.54839000  1
  C  C37  1  0.92670600  0.49156100  0.41867200  1
  C  C38  1  0.95457600  0.54929100  0.46309400  1
  C  C39  1  0.05561300  0.62390900  0.59674600  1
  C  C40  1  0.00288500  0.66675100  0.55674700  1
  C  C41  1  0.92675300  0.65127500  0.46833400  1
  C  C42  1  0.90255700  0.59289000  0.42192300  1
  C  C43  1  0.82555400  0.57871700  0.33413700  1
  C  C44  1  0.77367200  0.62281000  0.29532200  1
  C  C45  1  0.87402600  0.69442700  0.42762900  1
  C  C46  1  0.70278500  0.78733600  0.41221900  1
  C  C47  1  0.64950500  0.83320500  0.38089300  1
  C  C48  1  0.67362200  0.75622000  0.13418900  1
  C  C49  1  0.72566100  0.71057100  0.16878400  1
  C  C50  1  0.74205400  0.72632300  0.30721000  1
  C  C51  1  0.08915100  0.51846300  0.58366500  1
  C  C52  1  0.05871300  0.46197500  0.54417900  1
  C  C53  1  0.97614700  0.44912300  0.46554300  1
  C  C54  1  0.17520000  0.52766600  0.65640900  1
  C  C55  1  0.99701200  0.35107400  0.47642000  1
  C  C56  1  0.85049300  0.47733000  0.32631900  1
  C  C57  1  0.80055800  0.52048700  0.28540100  1
  C  C58  1  0.94461000  0.39400300  0.43656600  1
  C  C59  1  0.65495500  0.73422900  0.98155400  1
  C  C60  1  0.54783200  0.74655100  0.95950600  1
  C  C61  1  0.51000700  0.77592200  0.88029800  1
  C  C62  1  0.41117100  0.78610600  0.85837900  1
  C  C63  1  0.34993400  0.76650700  0.91432600  1
  C  C64  1  0.38764300  0.73624600  0.99135900  1
  C  C65  1  0.48645400  0.72599400  0.01340000  1
  N  N1  1  0.21960400  0.32790200  0.65140700  1
  N  N2  1  0.79828900  0.67988500  0.34264500  1
  O  O1  1  0.58546100  0.00172400  0.12678800  1
  O  O2  1  0.61361400  0.86757500  0.08903500  1
  O  O3  1  0.70394900  0.97050400  0.24618800  1
  O  O4  1  0.53797100  0.92522300  0.30425700  1
  O  O5  1  0.38141300  0.96593800  0.13441900  1
  O  O6  1  0.39317900  0.04826300  0.09910500  1
  O  O7  1  0.48438500  0.07755500  0.42214900  1
  O  O8  1  0.32363300  0.07932300  0.37486800  1
  O  O9  1  0.51843100  0.91523100  0.53846600  1
  O  O10  1  0.67303600  0.93220900  0.57838800  1
  O  O11  1  0.60116500  0.03564100  0.83419700  1
  O  O12  1  0.60385500  0.94678100  0.85228400  1
  O  O13  1  0.28779500  0.04556900  0.74541900  1
  O  O14  1  0.44896000  0.06637700  0.64557600  1
  O  O15  1  0.40313800  0.98961500  0.82334200  1
  O  O16  1  0.44378300  0.13847300  0.87847200  1
  O  O17  1  0.33340400  0.39176400  0.75685600  1
  O  O18  1  0.89950100  0.75077800  0.47083800  1
  O  O19  1  0.10606900  0.26358200  0.54858700  1
  O  O20  1  0.69624600  0.60967800  0.21402400  1
