# generated using pymatgen
data_FeH12C22(NO4)2
_symmetry_space_group_name_H-M   'P 1'
_cell_length_a   9.39433800
_cell_length_b   17.14290600
_cell_length_c   19.21881900
_cell_angle_alpha   103.66671000
_cell_angle_beta   85.61522600
_cell_angle_gamma   76.85682800
_symmetry_Int_Tables_number   1
_chemical_formula_structural   FeH12C22(NO4)2
_chemical_formula_sum   'Fe2 H24 C44 N4 O16'
_cell_volume   2900.85548915
_cell_formula_units_Z   2
loop_
 _symmetry_equiv_pos_site_id
 _symmetry_equiv_pos_as_xyz
  1  'x, y, z'
loop_
 _atom_site_type_symbol
 _atom_site_label
 _atom_site_symmetry_multiplicity
 _atom_site_fract_x
 _atom_site_fract_y
 _atom_site_fract_z
 _atom_site_occupancy
  Fe  Fe1  1  0.48540700  0.99221300  0.37743000  1
  Fe  Fe2  1  0.46438600  0.00432900  0.63619600  1
  H  H1  1  0.91745700  0.01537900  0.66467400  1
  H  H2  1  0.17919100  0.00620500  0.83571800  1
  H  H3  1  0.72950000  0.99564400  0.86582200  1
  H  H4  1  0.84331300  0.90805400  0.93333200  1
  H  H5  1  0.85733500  0.90686600  0.05834400  1
  H  H6  1  0.10550600  0.08972300  0.08030000  1
  H  H7  1  0.09159400  0.09083900  0.95527100  1
  H  H8  1  0.21911900  0.00244800  0.14793900  1
  H  H9  1  0.03095400  0.98287400  0.34913000  1
  H  H10  1  0.76980400  0.99110600  0.17780800  1
  H  H11  1  0.17646800  0.28568900  0.45049500  1
  H  H12  1  0.34278300  0.31916400  0.68864800  1
  H  H13  1  0.81763700  0.56072900  0.35590500  1
  H  H14  1  0.68000400  0.67616700  0.31742400  1
  H  H15  1  0.77029900  0.71663700  0.57004100  1
  H  H16  1  0.25561800  0.45376700  0.72147200  1
  H  H17  1  0.09492800  0.49804200  0.68892300  1
  H  H18  1  0.26344600  0.52957400  0.59214700  1
  H  H19  1  0.41897100  0.48100300  0.62968100  1
  H  H20  1  0.32770600  0.58454500  0.74817700  1
  H  H21  1  0.16877700  0.63236900  0.71151000  1
  H  H22  1  0.49353000  0.61464300  0.65630500  1
  H  H23  1  0.36434000  0.70800000  0.71111500  1
  H  H24  1  0.33408000  0.66317000  0.62015600  1
  C  C1  1  0.06199100  0.01159100  0.74524600  1
  C  C2  1  0.07475100  0.00716900  0.81555500  1
  C  C3  1  0.95529600  0.00173800  0.85952600  1
  C  C4  1  0.82409000  0.99902800  0.83206900  1
  C  C5  1  0.81024800  0.00517400  0.76253800  1
  C  C6  1  0.92835900  0.01257500  0.71962600  1
  C  C7  1  0.89962200  0.94907500  0.96535500  1
  C  C8  1  0.90729100  0.94851100  0.03661900  1
  C  C9  1  0.98217900  0.99829600  0.07867400  1
  C  C10  1  0.04925600  0.04866600  0.04828100  1
  C  C11  1  0.04163100  0.04920400  0.97701100  1
  C  C12  1  0.96670900  0.99944000  0.93496800  1
  C  C13  1  0.12454600  0.99906100  0.18169800  1
  C  C14  1  0.13826000  0.99317000  0.25131200  1
  C  C15  1  0.02016600  0.98563000  0.29416000  1
  C  C16  1  0.88677200  0.98611600  0.26838600  1
  C  C17  1  0.87411400  0.99041900  0.19804500  1
  C  C18  1  0.99348800  0.99607700  0.15415000  1
  C  C19  1  0.75939800  0.98433200  0.31670400  1
  C  C20  1  0.58107600  0.83433100  0.39224500  1
  C  C21  1  0.27585900  0.99787100  0.28090000  1
  C  C22  1  0.33133300  0.14672200  0.46524800  1
  C  C23  1  0.29569400  0.22613300  0.52034700  1
  C  C24  1  0.21307600  0.29466600  0.50306500  1
  C  C25  1  0.17558500  0.37260500  0.55134100  1
  C  C26  1  0.22960500  0.38197200  0.61790600  1
  C  C27  1  0.30640200  0.31221600  0.63610800  1
  C  C28  1  0.33624400  0.23387800  0.58929600  1
  C  C29  1  0.89813500  0.56212000  0.48817800  1
  C  C30  1  0.07868000  0.44101300  0.52938200  1
  C  C31  1  0.77600600  0.61995000  0.39528800  1
  C  C32  1  0.69656200  0.68596600  0.37353400  1
  C  C33  1  0.64443400  0.76368200  0.42154700  1
  C  C34  1  0.66785400  0.77310800  0.49360200  1
  C  C35  1  0.74833700  0.70673400  0.51468600  1
  C  C36  1  0.80439300  0.63028900  0.46579300  1
  C  C37  1  0.67278900  0.00030000  0.73293600  1
  C  C38  1  0.62497000  0.85333600  0.54750000  1
  C  C39  1  0.18954700  0.01293600  0.69682700  1
  C  C40  1  0.39592700  0.16195100  0.61782400  1
  C  C41  1  0.21214500  0.46422600  0.67157300  1
  C  C42  1  0.30130600  0.51606800  0.64214200  1
  C  C43  1  0.28640900  0.59728900  0.69841000  1
  C  C44  1  0.37553300  0.64904500  0.66945700  1
  N  N1  1  0.99558400  0.50849300  0.57885600  1
  N  N2  1  0.90748900  0.56851300  0.55863800  1
  N  N3  1  0.97862300  0.49395900  0.43848500  1
  N  N4  1  0.06738700  0.43418400  0.45886300  1
  O  O1  1  0.62767300  0.99308100  0.29636900  1
  O  O2  1  0.58873800  0.82338900  0.32200000  1
  O  O3  1  0.77547500  0.97714300  0.38231100  1
  O  O4  1  0.52910100  0.90957800  0.43449400  1
  O  O5  1  0.30698100  0.96632500  0.33562400  1
  O  O6  1  0.36204700  0.03834800  0.25601700  1
  O  O7  1  0.46939800  0.10363100  0.44507900  1
  O  O8  1  0.22527700  0.12003300  0.43459500  1
  O  O9  1  0.64038600  0.03286000  0.67890200  1
  O  O10  1  0.58857100  0.95808600  0.75667600  1
  O  O11  1  0.48503600  0.89172000  0.56945300  1
  O  O12  1  0.72804300  0.88614700  0.57494000  1
  O  O13  1  0.40810900  0.17411600  0.68689500  1
  O  O14  1  0.32148600  0.00318500  0.71694800  1
  O  O15  1  0.41965600  0.08556000  0.57784200  1
  O  O16  1  0.17338000  0.02072000  0.63138700  1
