# generated using pymatgen
data_CuH20C30(NO4)3
_symmetry_space_group_name_H-M   'P 1'
_cell_length_a   17.72863000
_cell_length_b   16.22690100
_cell_length_c   19.19921200
_cell_angle_alpha   90.00000000
_cell_angle_beta   90.00613300
_cell_angle_gamma   90.00000000
_symmetry_Int_Tables_number   1
_chemical_formula_structural   CuH20C30(NO4)3
_chemical_formula_sum   'Cu2 H40 C60 N6 O24'
_cell_volume   5523.24317436
_cell_formula_units_Z   2
loop_
 _symmetry_equiv_pos_site_id
 _symmetry_equiv_pos_as_xyz
  1  'x, y, z'
loop_
 _atom_site_type_symbol
 _atom_site_label
 _atom_site_symmetry_multiplicity
 _atom_site_fract_x
 _atom_site_fract_y
 _atom_site_fract_z
 _atom_site_occupancy
  Cu  Cu1  1  0.49836300  0.58220000  0.49889400  1
  Cu  Cu2  1  0.50068300  0.41775200  0.49668200  1
  H  H1  1  0.51726400  0.63321200  0.27938700  1
  H  H2  1  0.49012500  0.36613100  0.71601600  1
  H  H3  1  0.48280100  0.62823400  0.71543400  1
  H  H4  1  0.50679100  0.37109300  0.27952300  1
  H  H5  1  0.88012300  0.61834800  0.46790400  1
  H  H6  1  0.12293700  0.38593900  0.42507100  1
  H  H7  1  0.12121800  0.59877700  0.55245300  1
  H  H8  1  0.87605000  0.37391500  0.54263900  1
  H  H9  1  0.55399300  0.86518700  0.59656800  1
  H  H10  1  0.45827700  0.13578900  0.39143900  1
  H  H11  1  0.44290800  0.86328900  0.39999600  1
  H  H12  1  0.53988100  0.13498600  0.59977600  1
  H  H13  1  0.55295500  0.71375900  0.59642000  1
  H  H14  1  0.45893500  0.28687500  0.39302200  1
  H  H15  1  0.44284600  0.71294700  0.40203600  1
  H  H16  1  0.54299300  0.28513900  0.59836400  1
  H  H17  1  0.48010300  0.84887000  0.18644100  1
  H  H18  1  0.46495300  0.80360700  0.10157300  1
  H  H19  1  0.56003200  0.81485900  0.13570600  1
  H  H20  1  0.53539200  0.15290500  0.81704000  1
  H  H21  1  0.45076200  0.18285900  0.86286000  1
  H  H22  1  0.54268100  0.20200600  0.90124400  1
  H  H23  1  0.43410100  0.84069400  0.82095200  1
  H  H24  1  0.52399600  0.81434500  0.85936200  1
  H  H25  1  0.43684600  0.79107900  0.90510400  1
  H  H26  1  0.54352300  0.15529100  0.17989400  1
  H  H27  1  0.54614000  0.20286300  0.09482300  1
  H  H28  1  0.45673100  0.18817300  0.13926500  1
  H  H29  1  0.74970800  0.79799700  0.36316000  1
  H  H30  1  0.75312900  0.81592900  0.45597600  1
  H  H31  1  0.66777400  0.77579000  0.41605300  1
  H  H32  1  0.23290600  0.18898300  0.34668500  1
  H  H33  1  0.32619100  0.22918600  0.36251500  1
  H  H34  1  0.26814300  0.27217500  0.29346000  1
  H  H35  1  0.28130600  0.68062500  0.72356200  1
  H  H36  1  0.25900100  0.74903600  0.65255300  1
  H  H37  1  0.35069800  0.69946900  0.65679400  1
  H  H38  1  0.76881500  0.16681600  0.59636600  1
  H  H39  1  0.67624700  0.21272600  0.59504400  1
  H  H40  1  0.74188700  0.23819400  0.66416300  1
  C  C1  1  0.35466000  0.49813100  0.48770700  1
  C  C2  1  0.64484600  0.50237300  0.50974700  1
  C  C3  1  0.50985500  0.50210200  0.36409200  1
  C  C4  1  0.48866700  0.49770100  0.63127400  1
  C  C5  1  0.51333600  0.57561000  0.25151000  1
  C  C6  1  0.48906300  0.42385900  0.74396900  1
  C  C7  1  0.48389100  0.57068200  0.74364700  1
  C  C8  1  0.50922100  0.42879400  0.25169500  1
  C  C9  1  0.51190600  0.57626600  0.17957200  1
  C  C10  1  0.48880900  0.42347200  0.81597100  1
  C  C11  1  0.48812900  0.57186200  0.81544500  1
  C  C12  1  0.50643600  0.42780300  0.17988300  1
  C  C13  1  0.50748300  0.50196100  0.14329100  1
  C  C14  1  0.48961700  0.49788200  0.85227400  1
  C  C15  1  0.51152700  0.50232500  0.28775200  1
  C  C16  1  0.48591300  0.49716600  0.70763600  1
  C  C17  1  0.49402400  0.49850500  0.92853000  1
  C  C18  1  0.50324100  0.50159500  0.06724000  1
  C  C19  1  0.84800100  0.56528200  0.48448100  1
  C  C20  1  0.15415500  0.43272300  0.45298100  1
  C  C21  1  0.15270600  0.55264500  0.52409200  1
  C  C22  1  0.84546200  0.42797800  0.52619500  1
  C  C23  1  0.77103000  0.57179800  0.49328300  1
  C  C24  1  0.23206100  0.43623700  0.44868800  1
  C  C25  1  0.23014700  0.55734600  0.52121900  1
  C  C26  1  0.76824000  0.43231600  0.53553400  1
  C  C27  1  0.72875800  0.50326800  0.51514600  1
  C  C28  1  0.27129100  0.49811200  0.48436100  1
  C  C29  1  0.88512000  0.49352400  0.49991600  1
  C  C30  1  0.11480700  0.49059800  0.49053700  1
  C  C31  1  0.96594800  0.49012200  0.49542100  1
  C  C32  1  0.03388200  0.48899300  0.49273300  1
  C  C33  1  0.52934100  0.83198300  0.55330400  1
  C  C34  1  0.47660300  0.16848900  0.43751000  1
  C  C35  1  0.46740900  0.83108800  0.44368100  1
  C  C36  1  0.52217100  0.16787600  0.55362400  1
  C  C37  1  0.52844600  0.74691700  0.55313900  1
  C  C38  1  0.47745200  0.25353100  0.43857100  1
  C  C39  1  0.46747100  0.74631400  0.44499500  1
  C  C40  1  0.52333800  0.25272000  0.55278400  1
  C  C41  1  0.49877700  0.87436100  0.49795000  1
  C  C42  1  0.49963900  0.12534800  0.49537100  1
  C  C43  1  0.49946100  0.96274000  0.49654500  1
  C  C44  1  0.49961700  0.03696400  0.49559000  1
  C  C45  1  0.51640300  0.65713500  0.14447300  1
  C  C46  1  0.50041000  0.80167200  0.14915200  1
  C  C47  1  0.48521100  0.34309600  0.85163400  1
  C  C48  1  0.51018300  0.19993400  0.85189500  1
  C  C49  1  0.49408000  0.65265300  0.85018100  1
  C  C50  1  0.46440400  0.79474200  0.85327600  1
  C  C51  1  0.49843600  0.34700500  0.14524300  1
  C  C52  1  0.51739500  0.20282700  0.14614700  1
  C  C53  1  0.73906500  0.65417900  0.48240800  1
  C  C54  1  0.73038200  0.77519700  0.41454500  1
  C  C55  1  0.26949400  0.37613800  0.40255000  1
  C  C56  1  0.26793500  0.24560700  0.34670200  1
  C  C57  1  0.26572000  0.62496400  0.55997600  1
  C  C58  1  0.28956800  0.69199600  0.66716500  1
  C  C59  1  0.73319300  0.36338200  0.57359300  1
  C  C60  1  0.73623900  0.22348200  0.60799900  1
  N  N1  1  0.44385900  0.53624900  0.03492700  1
  N  N2  1  0.55341100  0.46379700  0.96091600  1
  N  N3  1  0.43935300  0.53486900  0.96624600  1
  N  N4  1  0.55792000  0.46523500  0.02960300  1
  N  N5  1  0.49718700  0.70542700  0.49937900  1
  N  N6  1  0.50236200  0.29449600  0.49530400  1
  O  O1  1  0.38988100  0.56898600  0.48722900  1
  O  O2  1  0.60963700  0.43125400  0.50600000  1
  O  O3  1  0.60811200  0.57209400  0.50483500  1
  O  O4  1  0.39080300  0.42761300  0.49285500  1
  O  O5  1  0.51063700  0.57233000  0.39765700  1
  O  O6  1  0.49061000  0.42737800  0.59785300  1
  O  O7  1  0.49186700  0.56887200  0.59932400  1
  O  O8  1  0.50489800  0.43124500  0.39592200  1
  O  O9  1  0.54255400  0.66376700  0.08597400  1
  O  O10  1  0.49525500  0.72538400  0.17935700  1
  O  O11  1  0.45309500  0.33615100  0.90750300  1
  O  O12  1  0.51293300  0.27547200  0.81992100  1
  O  O13  1  0.53147900  0.66084400  0.90307500  1
  O  O14  1  0.46137200  0.71931100  0.82108500  1
  O  O15  1  0.46433200  0.34029400  0.09035000  1
  O  O16  1  0.52504600  0.27870400  0.17683300  1
  O  O17  1  0.70510600  0.68830200  0.52953900  1
  O  O18  1  0.75610800  0.69633800  0.42409300  1
  O  O19  1  0.32521400  0.39548100  0.36900400  1
  O  O20  1  0.23787400  0.30135500  0.39277200  1
  O  O21  1  0.29171500  0.68395800  0.52868600  1
  O  O22  1  0.26165500  0.62642500  0.63009700  1
  O  O23  1  0.68254900  0.37612700  0.61524900  1
  O  O24  1  0.76353500  0.28744100  0.56877200  1
