# Generated by REPEAT Assigner based on pymatgen
data_DB0-m29_o81_o43_f0_pts.sym.12
_audit_creation_date              2022-05-24
_audit_creation_method            REPEAT_Assigner
_cell_length_a                    16.093218
_cell_length_b                    9.432175
_cell_length_c                    19.210727
_cell_angle_alpha                 85.710658
_cell_angle_beta                  83.760788
_cell_angle_gamma                 108.584208
_cell_volume                      2729.054464
_symmetry_space_group_name_H-M    P1
_symmetry_Int_Tables_number       1
loop_
    _symmetry_equiv_pos_site_id
    _symmetry_equiv_pos_as_xyz
    1  x,y,z
loop_
    _atom_site_type_symbol
    _atom_site_label
    _atom_site_fract_x
    _atom_site_fract_y
    _atom_site_fract_z
    _atom_type_partial_charge
    C   C1   0.892353  0.983112  0.891464  -0.155474
    C   C2   0.267461  0.935814  0.963100  -0.001178
    C   C3   0.182430  0.902989  0.944920  -0.071271
    C   C4   0.123792  0.967276  0.978684  0.083269
    C   C5   0.046653  0.964953  0.952110  -0.217921
    C   C6   0.986808  0.025464  0.985294  0.022691
    C   C7   0.812391  0.970322  0.868991  -0.165297
    C   C8   0.744306  0.987922  0.913086  0.070204
    C   C9   0.907404  0.019070  0.959001  0.088531
    C   C10  0.841256  0.050801  0.001024  0.127138
    C   C11  0.757178  0.023431  0.980797  -0.091988
    C   C12  0.284258  0.995043  0.025969  0.025190
    C   C13  0.222673  0.043817  0.062924  -0.218288
    C   C14  0.144766  0.040706  0.037337  0.163927
    C   C15  0.086817  0.106265  0.070650  -0.191794
    C   C16  0.005096  0.088456  0.047183  0.145271
    C   C17  0.941118  0.133431  0.084732  -0.151789
    C   C18  0.860461  0.112715  0.062641  -0.159268
    H   H1   0.942298  0.970720  0.852726  0.131243
    H   H2   0.032526  0.911399  0.905826  0.175347
    H   H3   0.802207  0.941773  0.816402  0.144083
    H   H4   0.239753  0.087559  0.111488  0.155960
    H   H5   0.949248  0.179521  0.134090  0.154534
    H   H6   0.815171  0.154482  0.093537  0.131374
    O   O1   0.609935  0.035756  0.015611  -0.520828
    C   C19  0.680531  0.010085  0.033755  0.578792
    O   O2   0.520183  0.711020  0.088645  -0.483092
    O   O3   0.678849  0.957377  0.099260  -0.518551
    O   O4   0.508722  0.845497  0.179836  -0.534750
    C   C20  0.513369  0.720209  0.156737  0.564590
    Fe  Fe1  0.519074  0.996808  0.099253  1.458459
    O   O5   0.400769  0.913047  0.066347  -0.605177
    O   O6   0.411676  0.159237  0.066503  -0.489340
    C   C21  0.369373  0.023348  0.052246  0.637355
    O   O7   0.553057  0.199013  0.135092  -0.607747
    O   O8   0.452227  0.067117  0.228992  -0.521084
    C   C22  0.506203  0.195474  0.195831  0.595834
    O   O9   0.471839  0.766257  0.809072  -0.591160
    O   O10  0.565182  0.895834  0.710914  -0.513103
    C   C23  0.514258  0.767978  0.746593  0.592305
    O   O11  0.624859  0.060289  0.872816  -0.619742
    O   O12  0.616034  0.814247  0.877748  -0.509076
    C   C24  0.657939  0.952984  0.888537  0.646980
    O   O13  0.336751  0.967045  0.842890  -0.560496
    O   O14  0.511398  0.117744  0.761579  -0.526329
    C   C25  0.500519  0.239006  0.784986  0.596290
    O   O15  0.416776  0.932736  0.928017  -0.517440
    C   C26  0.341353  0.937125  0.909935  0.591689
    O   O16  0.489946  0.245395  0.853248  -0.503774
    Fe  Fe2  0.505228  0.970706  0.842796  1.471011
    H   H7   0.499257  0.507959  0.819115  0.205628
    C   C27  0.502456  0.368725  0.736313  0.032575
    C   C28  0.505570  0.362058  0.664212  -0.161361
    H   H8   0.502944  0.257942  0.643129  0.145734
    C   C29  0.508681  0.487148  0.619572  0.097908
    C   C30  0.513023  0.619990  0.647008  -0.217457
    H   H9   0.519680  0.720193  0.612660  0.143233
    C   C31  0.508391  0.626214  0.718453  0.120210
    C   C32  0.501354  0.500300  0.763166  -0.220413
    C   C33  0.460870  0.557179  0.507703  -0.116577
    H   H10  0.421563  0.614280  0.535775  0.104234
    C   C34  0.461424  0.556888  0.435879  -0.168780
    H   H11  0.422555  0.613108  0.409598  0.127064
    C   C35  0.508459  0.480733  0.398761  0.093496
    C   C36  0.555311  0.405781  0.434499  -0.133358
    H   H12  0.594821  0.348934  0.406494  0.108969
    C   C37  0.554620  0.405858  0.506320  -0.151610
    H   H13  0.593435  0.349573  0.532639  0.125409
    C   C38  0.507531  0.481869  0.543431  0.076480
    C   C39  0.504105  0.342307  0.295347  -0.235552
    H   H14  0.498277  0.242484  0.329645  0.144770
    C   C40  0.509502  0.336038  0.223937  0.128779
    C   C41  0.514911  0.460610  0.179060  -0.221333
    H   H15  0.517569  0.452463  0.123123  0.205886
    C   C42  0.512140  0.591448  0.205687  0.071660
    C   C43  0.509202  0.598937  0.277770  -0.186680
    H   H16  0.510929  0.702854  0.298679  0.155216
    C   C44  0.507142  0.474797  0.322636  0.103031
    C   C45  0.153626  0.791250  0.892569  0.208782
    C   C46  0.080414  0.650326  0.928303  -0.269342
    H   H17  0.103366  0.603818  0.974415  0.060314
    H   H18  0.018545  0.672473  0.946213  0.053406
    H   H19  0.066068  0.565323  0.890474  0.063742
    H   H20  0.133209  0.841846  0.846229  -0.005853
    H   H21  0.207238  0.749248  0.872457  0.028620
    C   C47  0.114707  0.204088  0.128370  0.269238
    C   C48  0.088023  0.110483  0.200059  -0.238951
    H   H22  0.015218  0.055675  0.210402  0.059125
    H   H23  0.119600  0.021919  0.201922  0.066325
    H   H24  0.109465  0.184620  0.241466  0.062073
    H   H25  0.186724  0.265865  0.119713  -0.012579
    H   H26  0.086821  0.297188  0.127741  -0.028170
