# Generated by REPEAT Assigner based on pymatgen
data_DB0-m2_o4_o4_f0_nbo.sym.25
_audit_creation_date              2022-05-24
_audit_creation_method            REPEAT_Assigner
_cell_length_a                    30.581808
_cell_length_b                    21.659016
_cell_length_c                    21.694937
_cell_angle_alpha                 90.000000
_cell_angle_beta                  134.814476
_cell_angle_gamma                 90.000000
_cell_volume                      10194.055548
_symmetry_space_group_name_H-M    P1
_symmetry_Int_Tables_number       1
loop_
    _symmetry_equiv_pos_site_id
    _symmetry_equiv_pos_as_xyz
    1  x,y,z
loop_
    _atom_site_type_symbol
    _atom_site_label
    _atom_site_fract_x
    _atom_site_fract_y
    _atom_site_fract_z
    _atom_type_partial_charge
    O   O1    0.089788  0.511690  0.146118  -0.569044
    O   O2    0.590587  0.988952  0.147057  -0.570030
    O   O3    0.091649  0.504769  0.041822  -0.558223
    O   O4    0.592413  0.995399  0.042695  -0.560382
    C   C1    0.119241  0.512376  0.122463  0.701519
    C   C2    0.620027  0.988091  0.123390  0.701728
    O   O5    0.996969  0.597861  0.046464  -0.618100
    O   O6    0.007942  0.419080  0.069367  -0.608824
    O   O7    0.508425  0.081283  0.069894  -0.610132
    O   O8    0.498063  0.902460  0.047775  -0.620787
    O   O9    0.998728  0.590857  0.942383  -0.587515
    O   O10   0.010424  0.412123  0.965647  -0.574119
    O   O11   0.511268  0.088116  0.966528  -0.574892
    O   O12   0.499402  0.909380  0.943278  -0.581277
    C   C3    0.993715  0.622967  0.988423  0.821169
    C   C4    0.008969  0.386847  0.019090  0.887592
    C   C5    0.509592  0.113445  0.019717  0.893381
    C   C6    0.494615  0.877295  0.989587  0.811776
    Cu  Cu1   0.000026  0.508909  0.063778  0.952132
    Cu  Cu2   0.500818  0.991432  0.064703  0.955109
    Cu  Cu3   0.002267  0.500766  0.943431  0.960947
    Cu  Cu4   0.503032  0.999468  0.944320  0.961972
    O   O13   0.910918  0.500531  0.965787  -0.598023
    O   O14   0.411682  0.999487  0.966671  -0.596760
    O   O15   0.912850  0.492961  0.861874  -0.603640
    O   O16   0.413623  0.007367  0.862775  -0.605340
    C   C7    0.883045  0.497323  0.884657  0.644030
    C   C8    0.383835  0.002802  0.885560  0.636865
    C   C9    0.961625  0.724392  0.997105  0.184926
    C   C10   0.976989  0.285585  0.028300  0.158117
    C   C11   0.477078  0.214680  0.027941  0.159307
    C   C12   0.464729  0.775985  0.002315  0.180326
    C   C13   0.991517  0.690371  0.982648  -0.387234
    C   C14   0.014904  0.319840  0.028987  -0.403197
    C   C15   0.515392  0.180449  0.029425  -0.405186
    C   C16   0.492113  0.809873  0.983643  -0.383355
    C   C17   0.022232  0.723375  0.967501  0.282259
    C   C18   0.056812  0.287435  0.034534  0.227536
    C   C19   0.557562  0.212861  0.035556  0.222708
    C   C20   0.519868  0.776688  0.963788  0.279955
    C   C21   0.023979  0.787820  0.971124  0.172029
    C   C22   0.058924  0.223017  0.038581  0.288662
    C   C23   0.559548  0.277280  0.039399  0.280025
    C   C24   0.521285  0.712228  0.966958  0.191353
    C   C25   0.992755  0.819988  0.985836  -0.270940
    C   C26   0.017188  0.190258  0.033077  -0.396206
    C   C27   0.517436  0.310011  0.033110  -0.348262
    C   C28   0.492623  0.680241  0.985958  -0.328821
    C   C29   0.960868  0.785564  0.996247  0.087929
    C   C30   0.976904  0.224397  0.027807  0.155477
    C   C31   0.476889  0.275858  0.027258  0.138807
    C   C32   0.463609  0.714821  0.001112  0.100828
    C   C33   0.925432  0.790883  0.019165  -0.116606
    C   C34   0.923863  0.218861  0.017841  -0.158457
    C   C35   0.423443  0.281358  0.016388  -0.153094
    C   C36   0.431870  0.709620  0.029806  -0.159395
    C   C37   0.925807  0.718819  0.019483  -0.187079
    C   C38   0.923632  0.290939  0.017586  -0.169145
    C   C39   0.423343  0.209281  0.016362  -0.173407
    C   C40   0.432706  0.781677  0.030655  -0.119757
    H   H1    0.878953  0.810872  0.965631  0.078948
    H   H2    0.882683  0.198649  0.954356  0.088020
    H   H3    0.382437  0.301459  0.952663  0.091072
    H   H4    0.384894  0.689938  0.978685  0.089049
    H   H5    0.953273  0.811003  0.084700  0.063516
    H   H6    0.937411  0.198915  0.076343  0.091511
    H   H7    0.436529  0.301396  0.074527  0.091385
    H   H8    0.461908  0.689255  0.095670  0.074989
    H   H9    0.879550  0.698592  0.965822  0.083832
    H   H10   0.882553  0.310796  0.953698  0.085400
    H   H11   0.382518  0.189314  0.952371  0.085439
    H   H12   0.386191  0.802247  0.979827  0.048903
    H   H13   0.953434  0.698925  0.085072  0.099318
    H   H14   0.936573  0.311211  0.075559  0.090332
    H   H15   0.435904  0.189095  0.074103  0.092329
    H   H16   0.462861  0.801286  0.096945  0.084053
    C   C41   0.220553  0.547854  0.262924  0.259618
    C   C42   0.721402  0.952742  0.263776  0.258302
    C   C43   0.186520  0.511875  0.189794  -0.186674
    C   C44   0.687295  0.988811  0.190731  -0.185177
    C   C45   0.219123  0.473739  0.182444  -0.082706
    C   C46   0.719803  0.027275  0.183525  -0.081426
    H   H17   0.194782  0.443827  0.126670  0.148274
    H   H18   0.695377  0.057274  0.127814  0.148387
    C   C47   0.283271  0.471438  0.248400  -0.167448
    C   C48   0.783948  0.029749  0.249520  -0.173519
    H   H19   0.307635  0.440175  0.242374  0.165518
    H   H20   0.808241  0.061217  0.243578  0.168688
    C   C49   0.315861  0.509684  0.320385  0.077024
    C   C50   0.816618  0.991363  0.321386  0.079672
    C   C51   0.281848  0.548080  0.323558  -0.196571
    C   C52   0.782690  0.952684  0.324426  -0.196657
    C   C53   0.286885  0.594318  0.378540  0.658866
    C   C54   0.787831  0.906131  0.379210  0.657549
    C   C55   0.214997  0.594578  0.307185  -0.378410
    C   C56   0.715945  0.905691  0.307837  -0.373760
    H   H21   0.195013  0.638600  0.270547  0.131994
    H   H22   0.194851  0.575021  0.329898  0.123125
    H   H23   0.695737  0.924928  0.330603  0.121992
    H   H24   0.696078  0.861725  0.271031  0.130547
    C   C57   0.781555  0.524541  0.826590  0.233923
    C   C58   0.282295  0.971525  0.824184  0.178140
    C   C59   0.815814  0.493567  0.817586  -0.154144
    C   C60   0.316634  0.006464  0.818527  -0.117807
    C   C61   0.783391  0.459392  0.741881  -0.091601
    C   C62   0.284347  0.044723  0.746411  -0.107687
    H   H25   0.807916  0.433579  0.731368  0.135764
    H   H26   0.309031  0.073724  0.738766  0.138219
    C   C63   0.718969  0.457139  0.679524  -0.159780
    C   C64   0.219925  0.047026  0.684289  -0.151504
    H   H27   0.694378  0.430328  0.621016  0.136761
    H   H28   0.195468  0.077121  0.628663  0.137835
    C   C65   0.686455  0.491382  0.690503  -0.124318
    C   C66   0.187288  0.008866  0.691685  -0.134703
    C   C67   0.720536  0.524824  0.765574  0.045713
    C   C68   0.221287  0.971415  0.763190  0.085602
    C   C69   0.714850  0.567333  0.813137  -0.058010
    C   C70   0.215601  0.923783  0.806259  -0.079925
    C   C71   0.786778  0.567425  0.884777  -0.321888
    C   C72   0.287527  0.923498  0.877751  -0.295153
    H   H29   0.694783  0.544289  0.834179  0.079419
    H   H30   0.694703  0.612503  0.779963  0.077806
    H   H31   0.195341  0.880191  0.768577  0.071997
    H   H32   0.195681  0.942628  0.829591  0.086146
    H   H33   0.806857  0.544913  0.946008  0.115434
    H   H34   0.806640  0.612549  0.890987  0.118501
    H   H35   0.307225  0.879943  0.879180  0.131600
    H   H36   0.307771  0.941646  0.941158  0.110669
    O   O17   0.952135  0.016485  0.869651  -0.592338
    O   O18   0.452021  0.488299  0.869024  -0.568266
    O   O19   0.058261  0.009299  0.974639  -0.543350
    O   O20   0.558131  0.495823  0.974098  -0.554475
    C   C73   0.005046  0.011313  0.893223  0.822752
    C   C74   0.505338  0.488243  0.893236  0.798452
    O   O21   0.945952  0.919402  0.945099  -0.615378
    O   O22   0.958272  0.098155  0.968353  -0.587393
    O   O23   0.458568  0.402096  0.968455  -0.609814
    O   O24   0.445801  0.580808  0.944676  -0.598746
    O   O25   0.051914  0.912046  0.049147  -0.588754
    O   O26   0.064370  0.090716  0.073450  -0.568386
    O   O27   0.564378  0.409626  0.073184  -0.588628
    O   O28   0.551989  0.588324  0.049308  -0.575416
    C   C75   0.997012  0.886963  0.995590  0.800661
    C   C76   0.013270  0.122936  0.027164  0.817861
    C   C77   0.513458  0.377318  0.027105  0.783098
    C   C78   0.496937  0.613275  0.995575  0.855859
    Cu  Cu5   0.943819  0.009233  0.950783  0.949135
    Cu  Cu6   0.443884  0.490973  0.950599  0.938434
    Cu  Cu7   0.066400  0.000613  0.071904  0.957458
    Cu  Cu8   0.566438  0.499730  0.071851  0.972448
    O   O29   0.952421  0.005456  0.048836  -0.582950
    O   O30   0.452015  0.499396  0.047910  -0.574960
    O   O31   0.058171  0.997384  0.153333  -0.581598
    O   O32   0.557868  0.507370  0.152642  -0.598752
    C   C79   0.005032  0.996640  0.129313  0.611471
    C   C80   0.505056  0.502890  0.129211  0.622939
    O   O33   0.506794  0.558371  0.425897  -0.605831
    O   O34   0.500279  0.452104  0.413772  -0.564662
    O   O35   0.001286  0.048596  0.415010  -0.562616
    O   O36   0.007447  0.942317  0.426853  -0.610324
    C   C81   0.500859  0.506885  0.388608  0.759416
    C   C82   0.001696  0.993805  0.389701  0.769174
    O   O37   0.414527  0.558480  0.421435  -0.566440
    O   O38   0.408870  0.452472  0.410486  -0.630814
    O   O39   0.909741  0.048467  0.411446  -0.627935
    O   O40   0.915180  0.942452  0.422387  -0.561939
    C   C83   0.382996  0.506796  0.390062  0.615785
    C   C84   0.883758  0.994194  0.390995  0.610169
    Cu  Cu9   0.504484  0.561919  0.513548  0.980307
    Cu  Cu10  0.497852  0.439192  0.500390  1.004292
    Cu  Cu11  0.998750  0.061565  0.501509  0.999433
    Cu  Cu12  0.005126  0.938831  0.514500  0.981755
    O   O41   0.506130  0.548665  0.604150  -0.584185
    O   O42   0.500783  0.442672  0.593256  -0.634133
    O   O43   0.001526  0.058137  0.594227  -0.631239
    O   O44   0.006789  0.952145  0.605114  -0.595978
    O   O45   0.593508  0.548958  0.599408  -0.578310
    O   O46   0.587805  0.442706  0.587277  -0.600818
    O   O47   0.088705  0.057861  0.588538  -0.597058
    O   O48   0.094173  0.951601  0.600374  -0.571730
    C   C85   0.501152  0.494363  0.625160  0.828689
    C   C86   0.001754  0.006471  0.626027  0.841320
    C   C87   0.619264  0.494180  0.624307  0.724596
    C   C88   0.120065  0.006306  0.625412  0.709489
    C   C89   0.966062  0.046763  0.752788  0.142985
    C   C90   0.467085  0.452675  0.753491  0.110359
    C   C91   0.005633  0.011376  0.826477  -0.376812
    C   C92   0.505697  0.489057  0.826257  -0.340413
    C   C93   0.046398  0.974023  0.834620  0.206389
    C   C94   0.545181  0.527819  0.833135  0.195783
    C   C95   0.543463  0.530018  0.767290  0.316752
    C   C96   0.044956  0.971975  0.769035  0.306818
    C   C97   0.504269  0.491489  0.695439  -0.413355
    C   C98   0.004731  0.009410  0.696175  -0.408002
    C   C99   0.467591  0.452644  0.692794  0.223169
    C   C100  0.966822  0.047046  0.692330  0.210268
    C   C101  0.418052  0.405882  0.637776  -0.134936
    C   C102  0.915780  0.092142  0.635760  -0.166604
    C   C103  0.915230  0.092240  0.707206  -0.148801
    C   C104  0.417829  0.405510  0.709549  -0.175879
    H   H37   0.434921  0.362048  0.634214  0.075206
    H   H38   0.375297  0.425478  0.575241  0.073994
    H   H39   0.873789  0.071198  0.573729  0.080913
    H   H40   0.931265  0.136588  0.631048  0.082075
    H   H41   0.872772  0.071725  0.684787  0.087217
    H   H42   0.930758  0.136641  0.742799  0.079684
    H   H43   0.434927  0.361584  0.746465  0.083974
    H   H44   0.374809  0.424529  0.686848  0.093962
    C   C105  0.959235  0.021117  0.184919  0.298442
    C   C106  0.458817  0.479370  0.184224  0.301786
    C   C107  0.004710  0.993266  0.196230  -0.141964
    C   C108  0.504445  0.507029  0.195777  -0.146148
    C   C109  0.050241  0.962259  0.274247  -0.047282
    C   C110  0.549860  0.538163  0.273733  -0.051597
    H   H45   0.087030  0.938966  0.286546  0.124543
    H   H46   0.586817  0.561326  0.286337  0.133923
    C   C111  0.547739  0.540632  0.335976  -0.163114
    C   C112  0.048381  0.959973  0.336768  -0.156541
    H   H47   0.583433  0.564895  0.396371  0.142761
    H   H48   0.084132  0.935721  0.397149  0.142859
    C   C113  0.501802  0.509685  0.322426  -0.050441
    C   C114  0.002549  0.990982  0.323409  -0.067611
    C   C115  0.458544  0.479287  0.245059  -0.202941
    C   C116  0.959221  0.021355  0.246028  -0.189817
    C   C117  0.402324  0.440902  0.194050  0.721422
    C   C118  0.902927  0.059599  0.195113  0.698054
    C   C119  0.902938  0.059774  0.123311  -0.440040
    C   C120  0.402681  0.440530  0.122589  -0.463464
    H   H49   0.912881  0.105830  0.113329  0.136298
    H   H50   0.863663  0.034000  0.064092  0.139003
    H   H51   0.363432  0.466127  0.063124  0.147298
    H   H52   0.412878  0.394452  0.113036  0.134174
    F   F1    0.054141  0.693360  0.954636  -0.160700
    F   F2    0.096285  0.318293  0.036392  -0.160042
    F   F3    0.597417  0.182004  0.038199  -0.158026
    F   F4    0.549257  0.806457  0.946561  -0.161510
    F   F5    0.086096  0.936737  0.904736  -0.142660
    F   F6    0.583908  0.566219  0.902156  -0.133720
    F   F7    0.581569  0.569425  0.775124  -0.192462
    F   F8    0.084208  0.933763  0.777956  -0.184339
    F   F9    0.056431  0.819027  0.960029  -0.130680
    F   F10   0.099389  0.192629  0.042117  -0.168285
    F   F11   0.600288  0.307681  0.043525  -0.166537
    F   F12   0.551005  0.680799  0.951392  -0.134356
    F   F13   0.352848  0.472321  0.169890  -0.281260
    F   F14   0.413130  0.383585  0.230602  -0.277277
    F   F15   0.913713  0.117011  0.231441  -0.275160
    F   F16   0.853655  0.028119  0.171482  -0.277040
    F   F17   0.312556  0.649430  0.384777  -0.269616
    F   F18   0.312285  0.570550  0.457161  -0.267825
    F   F19   0.813166  0.929609  0.457925  -0.268085
    F   F20   0.813634  0.851206  0.385223  -0.270093
