data_DB0-m3_o115_o6_f0_fsc.sym.10_repeat
_audit_creation_date              2024-02-23
_audit_creation_method            'Materials Studio'
_symmetry_space_group_name_H-M    'P1'
_symmetry_Int_Tables_number       1
_symmetry_cell_setting            triclinic
loop_
_symmetry_equiv_pos_as_xyz
  x,y,z
_cell_length_a                    14.3705
_cell_length_b                    16.5487
_cell_length_c                    16.6636
_cell_angle_alpha                 90.0000
_cell_angle_beta                  98.8149
_cell_angle_gamma                 90.0000
loop_
_atom_site_label
_atom_site_type_symbol
_atom_site_fract_x
_atom_site_fract_y
_atom_site_fract_z
_atom_site_U_iso_or_equiv
_atom_site_adp_type
_atom_site_occupancy
H1     H     0.07367   0.92054   0.72239   0.00000  Uiso   1.00
H2     H     0.92633   0.07946   0.27761   0.00000  Uiso   1.00
H3     H     0.92633   0.92054   0.27761   0.00000  Uiso   1.00
H4     H     0.07367   0.07946   0.72239   0.00000  Uiso   1.00
C1     C     0.00044   0.25639   0.95883   0.00000  Uiso   1.00
C2     C     0.99956   0.74361   0.04117   0.00000  Uiso   1.00
C3     C     0.99956   0.25639   0.04117   0.00000  Uiso   1.00
C4     C     0.00044   0.74361   0.95883   0.00000  Uiso   1.00
C5     C     0.99871   0.17630   0.06453   0.00000  Uiso   1.00
C6     C     0.00129   0.82370   0.93547   0.00000  Uiso   1.00
C7     C     0.00129   0.17630   0.93547   0.00000  Uiso   1.00
C8     C     0.99871   0.82370   0.06453   0.00000  Uiso   1.00
N1     N     0.00000   0.12752   0.00000   0.00000  Uiso   1.00
N2     N     0.00000   0.87248   0.00000   0.00000  Uiso   1.00
C9     C     0.99423   0.15118   0.14021   0.00000  Uiso   1.00
C10    C     0.00577   0.84882   0.85979   0.00000  Uiso   1.00
C11    C     0.00577   0.15118   0.85979   0.00000  Uiso   1.00
C12    C     0.99423   0.84882   0.14021   0.00000  Uiso   1.00
C13    C     0.98447   0.06555   0.16280   0.00000  Uiso   1.00
C14    C     0.01553   0.93445   0.83720   0.00000  Uiso   1.00
C15    C     0.01553   0.06555   0.83720   0.00000  Uiso   1.00
C16    C     0.98447   0.93445   0.16280   0.00000  Uiso   1.00
C17    C     0.95012   0.04154   0.23201   0.00000  Uiso   1.00
C18    C     0.04988   0.95846   0.76799   0.00000  Uiso   1.00
C19    C     0.04988   0.04154   0.76799   0.00000  Uiso   1.00
C20    C     0.95012   0.95846   0.23201   0.00000  Uiso   1.00
N3     N     0.00700   0.00000   0.12149   0.00000  Uiso   1.00
N4     N     0.99301   0.00000   0.87851   0.00000  Uiso   1.00
H5     H     0.00148   0.30980   0.92161   0.00000  Uiso   1.00
H6     H     0.99852   0.69020   0.07839   0.00000  Uiso   1.00
H7     H     0.99852   0.30980   0.07839   0.00000  Uiso   1.00
H8     H     0.00148   0.69020   0.92161   0.00000  Uiso   1.00
H9     H     0.04128   0.00000   0.07095   0.00000  Uiso   1.00
H10    H     0.95872   0.00000   0.92905   0.00000  Uiso   1.00
C21    C     0.92360   0.76217   0.75209   0.00000  Uiso   1.00
C22    C     0.07640   0.23783   0.24791   0.00000  Uiso   1.00
C23    C     0.07640   0.76217   0.24791   0.00000  Uiso   1.00
C24    C     0.92360   0.23783   0.75209   0.00000  Uiso   1.00
H11    H     0.85772   0.78698   0.76455   0.00000  Uiso   1.00
H12    H     0.14228   0.21303   0.23545   0.00000  Uiso   1.00
H13    H     0.14228   0.78698   0.23545   0.00000  Uiso   1.00
H14    H     0.85772   0.21303   0.76455   0.00000  Uiso   1.00
C25    C     0.92363   0.70451   0.69252   0.00000  Uiso   1.00
C26    C     0.07637   0.29550   0.30748   0.00000  Uiso   1.00
C27    C     0.07637   0.70451   0.30748   0.00000  Uiso   1.00
C28    C     0.92363   0.29550   0.69252   0.00000  Uiso   1.00
C29    C     0.00769   0.67257   0.67606   0.00000  Uiso   1.00
C30    C     0.99231   0.32743   0.32394   0.00000  Uiso   1.00
C31    C     0.99231   0.67257   0.32394   0.00000  Uiso   1.00
C32    C     0.00769   0.32743   0.67606   0.00000  Uiso   1.00
C33    C     0.09167   0.69895   0.72010   0.00000  Uiso   1.00
C34    C     0.90833   0.30105   0.27990   0.00000  Uiso   1.00
C35    C     0.90833   0.69895   0.27990   0.00000  Uiso   1.00
C36    C     0.09167   0.30105   0.72010   0.00000  Uiso   1.00
H15    H     0.15822   0.67476   0.70862   0.00000  Uiso   1.00
H16    H     0.84178   0.32524   0.29138   0.00000  Uiso   1.00
H17    H     0.84178   0.67476   0.29138   0.00000  Uiso   1.00
H18    H     0.15822   0.32524   0.70862   0.00000  Uiso   1.00
C37    C     0.09127   0.75624   0.78025   0.00000  Uiso   1.00
C38    C     0.90873   0.24376   0.21975   0.00000  Uiso   1.00
C39    C     0.90873   0.75624   0.21975   0.00000  Uiso   1.00
C40    C     0.09127   0.24376   0.78025   0.00000  Uiso   1.00
H19    H     0.15696   0.77641   0.81486   0.00000  Uiso   1.00
H20    H     0.84304   0.22359   0.18514   0.00000  Uiso   1.00
H21    H     0.84304   0.77641   0.18514   0.00000  Uiso   1.00
H22    H     0.15696   0.22359   0.81486   0.00000  Uiso   1.00
C41    C     0.00720   0.78799   0.79617   0.00000  Uiso   1.00
C42    C     0.99280   0.21201   0.20383   0.00000  Uiso   1.00
C43    C     0.99280   0.78799   0.20383   0.00000  Uiso   1.00
C44    C     0.00720   0.21201   0.79617   0.00000  Uiso   1.00
H23    H     0.85696   0.31473   0.65899   0.00000  Uiso   1.00
H24    H     0.14304   0.68527   0.34101   0.00000  Uiso   1.00
H25    H     0.14304   0.31474   0.34101   0.00000  Uiso   1.00
H26    H     0.85696   0.68527   0.65899   0.00000  Uiso   1.00
O1     O     0.92505   0.58243   0.57880   0.00000  Uiso   1.00
O2     O     0.07495   0.41757   0.42120   0.00000  Uiso   1.00
O3     O     0.07495   0.58243   0.42120   0.00000  Uiso   1.00
O4     O     0.92505   0.41757   0.57880   0.00000  Uiso   1.00
O5     O     0.08700   0.58618   0.59274   0.00000  Uiso   1.00
O6     O     0.91300   0.41382   0.40726   0.00000  Uiso   1.00
O7     O     0.91300   0.58618   0.40726   0.00000  Uiso   1.00
O8     O     0.08700   0.41382   0.59274   0.00000  Uiso   1.00
C45    C     0.00681   0.61082   0.61281   0.00000  Uiso   1.00
C46    C     0.99320   0.38918   0.38719   0.00000  Uiso   1.00
C47    C     0.99320   0.61082   0.38719   0.00000  Uiso   1.00
C48    C     0.00681   0.38918   0.61281   0.00000  Uiso   1.00
Zn1    Zn    0.10480   0.50000   0.51079   0.00000  Uiso   1.00
Zn2    Zn    0.89520   0.50000   0.48921   0.00000  Uiso   1.00
C49    C     0.54666   0.42771   0.49476   0.00000  Uiso   1.00
C50    C     0.45335   0.57229   0.50524   0.00000  Uiso   1.00
C51    C     0.45335   0.42771   0.50524   0.00000  Uiso   1.00
C52    C     0.54666   0.57229   0.49476   0.00000  Uiso   1.00
C53    C     0.59358   0.50000   0.48918   0.00000  Uiso   1.00
C54    C     0.40643   0.50000   0.51082   0.00000  Uiso   1.00
C55    C     0.69195   0.50000   0.48170   0.00000  Uiso   1.00
C56    C     0.30806   0.50000   0.51830   0.00000  Uiso   1.00
N5     N     0.22828   0.50000   0.52180   0.00000  Uiso   1.00
N6     N     0.77172   0.50000   0.47820   0.00000  Uiso   1.00
N7     N     0.40616   0.35249   0.51000   0.00000  Uiso   1.00
H27    H     0.34924   0.34999   0.46289   0.00000  Uiso   1.00
H28    H     0.38118   0.34993   0.56558   0.00000  Uiso   1.00
N8     N     0.59384   0.64751   0.49000   0.00000  Uiso   1.00
H29    H     0.65077   0.65002   0.53711   0.00000  Uiso   1.00
H30    H     0.61882   0.65007   0.43442   0.00000  Uiso   1.00
N9     N     0.59384   0.35249   0.49000   0.00000  Uiso   1.00
H31    H     0.65077   0.34998   0.53711   0.00000  Uiso   1.00
H32    H     0.61882   0.34993   0.43442   0.00000  Uiso   1.00
N10    N     0.40616   0.64751   0.51000   0.00000  Uiso   1.00
H33    H     0.34924   0.65001   0.46288   0.00000  Uiso   1.00
H34    H     0.38118   0.65007   0.56558   0.00000  Uiso   1.00
