# generated using pymatgen
data_Fe2H36C53O19
_symmetry_space_group_name_H-M   'P 1'
_cell_length_a   15.74146300
_cell_length_b   16.41272100
_cell_length_c   13.21758800
_cell_angle_alpha   91.71619300
_cell_angle_beta   88.20416500
_cell_angle_gamma   112.43132700
_symmetry_Int_Tables_number   1
_chemical_formula_structural   Fe2H36C53O19
_chemical_formula_sum   'Fe2 H36 C53 O19'
_cell_volume   3154.37094885
_cell_formula_units_Z   1
loop_
 _symmetry_equiv_pos_site_id
 _symmetry_equiv_pos_as_xyz
  1  'x, y, z'
loop_
 _atom_site_type_symbol
 _atom_site_label
 _atom_site_symmetry_multiplicity
 _atom_site_fract_x
 _atom_site_fract_y
 _atom_site_fract_z
 _atom_site_occupancy
  Fe  Fe1  1  0.48049500  0.00171800  0.23147100  1
  Fe  Fe2  1  0.47743800  0.00175500  0.78217500  1
  H  H1  1  0.22560600  0.03618000  0.20527900  1
  H  H2  1  0.06579700  0.09126200  0.81755400  1
  H  H3  1  0.91961700  0.08998100  0.77625200  1
  H  H4  1  0.08730200  0.04707900  0.24927700  1
  H  H5  1  0.94328600  0.05001300  0.20792400  1
  H  H6  1  0.76455400  0.05554600  0.81329200  1
  H  H7  1  0.53779300  0.11492000  0.49074300  1
  H  H8  1  0.51948700  0.33328100  0.34544100  1
  H  H9  1  0.53049700  0.33333333  0.66866900  1
  H  H10  1  0.42547000  0.40250100  0.63438700  1
  H  H11  1  0.40632300  0.54235400  0.63121100  1
  H  H12  1  0.59987100  0.62366900  0.38435500  1
  H  H13  1  0.61835100  0.48347100  0.38652900  1
  H  H14  1  0.46265900  0.90013500  0.51473600  1
  H  H15  1  0.50819400  0.69826600  0.66523200  1
  H  H16  1  0.02793000  0.89696300  0.83059400  1
  H  H17  1  0.12437500  0.88293100  0.88714300  1
  H  H18  1  0.10280900  0.90479200  0.66059300  1
  H  H19  1  0.19828500  0.88905400  0.71764700  1
  H  H20  1  0.09149700  0.74491400  0.78417600  1
  H  H21  1  0.08679600  0.74845600  0.64795000  1
  H  H22  1  0.99604400  0.76055300  0.72647300  1
  H  H23  1  0.34659300  0.65910100  0.26339000  1
  H  H24  1  0.33617500  0.60693000  0.38427800  1
  H  H25  1  0.39845500  0.54637500  0.18319100  1
  H  H26  1  0.38625400  0.49375600  0.30408500  1
  H  H27  1  0.22005300  0.46894400  0.31107700  1
  H  H28  1  0.24966500  0.41897700  0.19875800  1
  H  H29  1  0.23231600  0.52123000  0.18972700  1
  H  H30  1  0.78541500  0.85749000  0.07154000  1
  H  H31  1  0.68717500  0.83989500  0.15542500  1
  H  H32  1  0.87756300  0.85049200  0.21752700  1
  H  H33  1  0.77940000  0.83312600  0.30138800  1
  H  H34  1  0.68995200  0.69614200  0.20445000  1
  H  H35  1  0.79401600  0.69182700  0.25363100  1
  H  H36  1  0.78868700  0.71351700  0.12115700  1
  C  C1  1  0.27811400  0.03413900  0.05568500  1
  C  C2  1  0.26026400  0.03204500  0.95296400  1
  C  C3  1  0.17430400  0.02795000  0.92340500  1
  C  C4  1  0.21199900  0.03486600  0.12550400  1
  C  C5  1  0.13058100  0.03828700  0.09627000  1
  C  C6  1  0.11087700  0.03818000  0.99521800  1
  C  C7  1  0.02736600  0.04536700  0.97064200  1
  C  C8  1  0.01236500  0.06896000  0.87488600  1
  C  C9  1  0.92931400  0.07172200  0.85164000  1
  C  C10  1  0.06967100  0.04309900  0.17040600  1
  C  C11  1  0.98515300  0.04112600  0.14603000  1
  C  C12  1  0.95985200  0.03593900  0.04576600  1
  C  C13  1  0.87121100  0.02893800  0.01924200  1
  C  C14  1  0.85824100  0.04877300  0.92166200  1
  C  C15  1  0.77361300  0.04381900  0.89148100  1
  C  C16  1  0.79415700  0.99978200  0.08545800  1
  C  C17  1  0.71089100  0.00359300  0.05808200  1
  C  C18  1  0.69939700  0.02010100  0.95759100  1
  C  C19  1  0.63982900  0.99661300  0.13795000  1
  C  C20  1  0.46513500  0.84279100  0.32661100  1
  C  C21  1  0.36327400  0.03298700  0.09608400  1
  C  C22  1  0.51551400  0.16981900  0.31515000  1
  C  C23  1  0.49820700  0.85807500  0.68814700  1
  C  C24  1  0.60958100  0.00339700  0.91403300  1
  C  C25  1  0.52257600  0.16467200  0.67963900  1
  C  C26  1  0.32800100  0.02871400  0.87438300  1
  C  C27  1  0.53366600  0.22204500  0.40904000  1
  C  C28  1  0.52837700  0.30383000  0.41431500  1
  C  C29  1  0.53044100  0.34588200  0.50721300  1
  C  C30  1  0.53267200  0.30282400  0.59558400  1
  C  C31  1  0.53440300  0.21906100  0.59000400  1
  C  C32  1  0.53832900  0.18089300  0.49644100  1
  C  C33  1  0.46515900  0.45104200  0.58002600  1
  C  C34  1  0.45383900  0.53030800  0.57779700  1
  C  C35  1  0.50011100  0.59227300  0.50605800  1
  C  C36  1  0.56010000  0.57490000  0.43844700  1
  C  C37  1  0.57097800  0.49545200  0.44018700  1
  C  C38  1  0.52311400  0.43263900  0.51046300  1
  C  C39  1  0.47365200  0.71224300  0.41542600  1
  C  C40  1  0.46563500  0.79379600  0.41800800  1
  C  C41  1  0.46595900  0.83559400  0.51020700  1
  C  C42  1  0.48026700  0.80114100  0.59819600  1
  C  C43  1  0.49245200  0.72251400  0.59600800  1
  C  C44  1  0.48782500  0.67676700  0.50521800  1
  C  C45  1  0.10290000  0.91280900  0.82360900  1
  C  C46  1  0.12356500  0.87458300  0.72440000  1
  C  C47  1  0.07094000  0.77562600  0.72068900  1
  C  C48  1  0.37388000  0.62019300  0.31047400  1
  C  C49  1  0.36011400  0.53334200  0.25664200  1
  C  C50  1  0.25883400  0.48240100  0.23790600  1
  C  C51  1  0.76330100  0.86833900  0.14949900  1
  C  C52  1  0.80142500  0.82259300  0.22323700  1
  C  C53  1  0.76610600  0.72459700  0.19886700  1
  O  O1  1  0.55942900  0.99632200  0.11404900  1
  O  O2  1  0.50031800  0.82752000  0.24029100  1
  O  O3  1  0.66078700  0.00221700  0.23393000  1
  O  O4  1  0.44337600  0.91229100  0.33862200  1
  O  O5  1  0.35766000  0.98660900  0.17720000  1
  O  O6  1  0.44374000  0.08713900  0.06221200  1
  O  O7  1  0.55900400  0.11628500  0.29780500  1
  O  O8  1  0.43805200  0.15549500  0.27010700  1
  O  O9  1  0.43031000  0.87736300  0.72750800  1
  O  O10  1  0.58292500  0.91379500  0.70111100  1
  O  O11  1  0.60277800  0.05418400  0.84244400  1
  O  O12  1  0.54076400  0.92836100  0.93111400  1
  O  O13  1  0.32985200  0.06266000  0.78535200  1
  O  O14  1  0.49330300  0.07884500  0.66487400  1
  O  O15  1  0.38713200  0.99256700  0.89332700  1
  O  O16  1  0.53497200  0.19934700  0.77141000  1
  O  O17  1  0.15019200  0.00445400  0.82484300  1
  O  O18  1  0.46778000  0.66720100  0.32524900  1
  O  O19  1  0.79595300  0.95857500  0.17359100  1
