# generated using pymatgen
data_ZnH18C28NO8
_symmetry_space_group_name_H-M   'P 1'
_cell_length_a   10.78436200
_cell_length_b   14.17528700
_cell_length_c   15.74091900
_cell_angle_alpha   95.88237400
_cell_angle_beta   90.06955400
_cell_angle_gamma   90.48695600
_symmetry_Int_Tables_number   1
_chemical_formula_structural   ZnH18C28NO8
_chemical_formula_sum   'Zn2 H36 C56 N2 O16'
_cell_volume   2393.57420788
_cell_formula_units_Z   2
loop_
 _symmetry_equiv_pos_site_id
 _symmetry_equiv_pos_as_xyz
  1  'x, y, z'
loop_
 _atom_site_type_symbol
 _atom_site_label
 _atom_site_symmetry_multiplicity
 _atom_site_fract_x
 _atom_site_fract_y
 _atom_site_fract_z
 _atom_site_occupancy
  Zn  Zn1  1  0.52315800  0.89637900  0.49051700  1
  Zn  Zn2  1  0.47474400  0.10437900  0.50476700  1
  H  H1  1  0.77754900  0.02248100  0.00105200  1
  H  H2  1  0.22052000  0.97932000  0.99416200  1
  H  H3  1  0.90626100  0.97032800  0.35885200  1
  H  H4  1  0.09163100  0.03032800  0.63628500  1
  H  H5  1  0.60131800  0.09046700  0.24253500  1
  H  H6  1  0.39660400  0.91045600  0.75281000  1
  H  H7  1  0.71172300  0.09381300  0.11269100  1
  H  H8  1  0.28621200  0.90741800  0.88271100  1
  H  H9  1  0.29347500  0.90913600  0.09105700  1
  H  H10  1  0.70502800  0.09301300  0.90409800  1
  H  H11  1  0.40540700  0.90849400  0.22098300  1
  H  H12  1  0.59304300  0.09351600  0.77411300  1
  H  H13  1  0.90063800  0.98548400  0.63175400  1
  H  H14  1  0.09722300  0.01496700  0.36355300  1
  H  H15  1  0.36911300  0.48158400  0.62313200  1
  H  H16  1  0.63188200  0.51890500  0.37503700  1
  H  H17  1  0.97250300  0.39757200  0.52849300  1
  H  H18  1  0.89995500  0.31276000  0.59216800  1
  H  H19  1  0.99985700  0.51002700  0.65914800  1
  H  H20  1  0.07609300  0.39822200  0.66857600  1
  H  H21  1  0.93007300  0.42390500  0.72227700  1
  H  H22  1  0.12735100  0.73144900  0.43828600  1
  H  H23  1  0.06170400  0.61707000  0.39832500  1
  H  H24  1  0.21447600  0.74701200  0.29345900  1
  H  H25  1  0.04704900  0.73515000  0.29190000  1
  H  H26  1  0.14273200  0.63493400  0.25479000  1
  H  H27  1  0.62984100  0.62962500  0.81698100  1
  H  H28  1  0.78035400  0.58852400  0.77805800  1
  H  H29  1  0.58567100  0.47245300  0.86581000  1
  H  H30  1  0.72677200  0.52375700  0.91371400  1
  H  H31  1  0.73498900  0.43032400  0.82641400  1
  H  H32  1  0.26217500  0.27658000  0.25731700  1
  H  H33  1  0.18834600  0.38872400  0.24392600  1
  H  H34  1  0.10015800  0.24185200  0.36162200  1
  H  H35  1  0.03313600  0.26164400  0.25947100  1
  H  H36  1  0.02645000  0.35365800  0.34804400  1
  C  C1  1  0.93864800  0.01219800  0.07669600  1
  C  C2  1  0.05937900  0.98924000  0.91857100  1
  C  C3  1  0.87636900  0.02074500  0.00031600  1
  C  C4  1  0.12169900  0.98088300  0.99494700  1
  C  C5  1  0.93620400  0.01514600  0.92174900  1
  C  C6  1  0.06187000  0.98638700  0.07350700  1
  C  C7  1  0.93817200  0.00485900  0.22926100  1
  C  C8  1  0.05979500  0.99613600  0.76597000  1
  C  C9  1  0.86902000  0.99898200  0.30339000  1
  C  C10  1  0.12889100  0.00179300  0.69180200  1
  C  C11  1  0.74708400  0.02650400  0.30683600  1
  C  C12  1  0.25081600  0.97427500  0.68840800  1
  C  C13  1  0.69534500  0.06455900  0.23880200  1
  C  C14  1  0.30257600  0.93636500  0.75650900  1
  C  C15  1  0.75879200  0.06296800  0.16333700  1
  C  C16  1  0.23915400  0.93814700  0.83199400  1
  C  C17  1  0.87777800  0.02545000  0.15551800  1
  C  C18  1  0.12021200  0.97575100  0.83975700  1
  C  C19  1  0.24541400  0.93547600  0.14838700  1
  C  C20  1  0.75289400  0.06634100  0.84678100  1
  C  C21  1  0.31006500  0.93154300  0.22316800  1
  C  C22  1  0.68827000  0.07019600  0.77196400  1
  C  C23  1  0.25747800  0.96402700  0.29960600  1
  C  C24  1  0.74057900  0.03702200  0.69560800  1
  C  C25  1  0.13455500  0.98922300  0.30207300  1
  C  C26  1  0.86340800  0.01159200  0.69317000  1
  C  C27  1  0.06485400  0.98645700  0.22704800  1
  C  C28  1  0.93316500  0.01464400  0.76818000  1
  C  C29  1  0.12476300  0.97051100  0.14891200  1
  C  C30  1  0.87335700  0.03096900  0.84631300  1
  C  C31  1  0.33542800  0.97659500  0.37605000  1
  C  C32  1  0.66249900  0.02422500  0.61922400  1
  C  C33  1  0.66986600  0.01606900  0.38121000  1
  C  C34  1  0.32803000  0.98468700  0.61405200  1
  C  C35  1  0.42859800  0.49028200  0.56699100  1
  C  C36  1  0.57188000  0.51037900  0.43095800  1
  C  C37  1  0.55546100  0.53853800  0.56835200  1
  C  C38  1  0.44529900  0.46219700  0.42995000  1
  C  C39  1  0.39484900  0.54204200  0.49030700  1
  C  C40  1  0.60594900  0.45850900  0.50771200  1
  C  C41  1  0.52041600  0.59009100  0.49254700  1
  C  C42  1  0.48022100  0.41076400  0.50542700  1
  C  C43  1  0.53628800  0.69193600  0.48643400  1
  C  C44  1  0.46262400  0.30888800  0.50991000  1
  C  C45  1  0.72562000  0.40773400  0.51508600  1
  C  C46  1  0.91595400  0.38919400  0.58611100  1
  C  C47  1  0.98509900  0.43329800  0.66425200  1
  C  C48  1  0.27437800  0.58978900  0.47853500  1
  C  C49  1  0.13857500  0.66819500  0.39135100  1
  C  C50  1  0.13544600  0.69839600  0.30189800  1
  C  C51  1  0.61687900  0.58128700  0.64845600  1
  C  C52  1  0.68324600  0.56708500  0.78993300  1
  C  C53  1  0.68266400  0.49348400  0.85318300  1
  C  C54  1  0.38003600  0.41759400  0.35229800  1
  C  C55  1  0.20595300  0.33513900  0.28907200  1
  C  C56  1  0.08321800  0.29541500  0.31638100  1
  N  N1  1  0.54398000  0.77303200  0.48352700  1
  N  N2  1  0.45393200  0.22771600  0.51180100  1
  O  O1  1  0.35938500  0.06349900  0.40950500  1
  O  O2  1  0.63852600  0.93729300  0.58578200  1
  O  O3  1  0.38969100  0.90179500  0.40143700  1
  O  O4  1  0.60821700  0.09896600  0.59382700  1
  O  O5  1  0.64507800  0.93023400  0.40131500  1
  O  O6  1  0.35283100  0.07051200  0.59396400  1
  O  O7  1  0.61425200  0.09209500  0.41628300  1
  O  O8  1  0.38364300  0.90867000  0.57899200  1
  O  O9  1  0.75291000  0.34348400  0.46099900  1
  O  O10  1  0.80444300  0.43386200  0.57994000  1
  O  O11  1  0.19715400  0.59412500  0.53528800  1
  O  O12  1  0.25000900  0.62604000  0.40446900  1
  O  O13  1  0.65310600  0.66342100  0.65444700  1
  O  O14  1  0.62961800  0.52918300  0.71489100  1
  O  O15  1  0.42846800  0.41819800  0.28239500  1
  O  O16  1  0.26775800  0.37670000  0.35959700  1
