# Generated by REPEAT Assigner based on pymatgen
data_DB0-m3_o155_o52_f0_fsc.sym.18
_audit_creation_date              2022-05-24
_audit_creation_method            REPEAT_Assigner
_cell_length_a                    17.538985
_cell_length_b                    8.547480
_cell_length_c                    14.994422
_cell_angle_alpha                 90.000000
_cell_angle_beta                  90.997367
_cell_angle_gamma                 90.000000
_cell_volume                      2247.535159
_symmetry_space_group_name_H-M    P1
_symmetry_Int_Tables_number       1
loop_
    _symmetry_equiv_pos_site_id
    _symmetry_equiv_pos_as_xyz
    1  x,y,z
loop_
    _atom_site_type_symbol
    _atom_site_label
    _atom_site_fract_x
    _atom_site_fract_y
    _atom_site_fract_z
    _atom_type_partial_charge
    H   H1   0.030830  0.024870  0.562185  0.109362
    H   H2   0.969171  0.024870  0.437815  0.109358
    C   C1   0.009959  0.164409  0.675778  -0.103862
    C   C2   0.990016  0.885334  0.324213  -0.105811
    C   C3   0.990042  0.164409  0.324222  -0.103848
    C   C4   0.009985  0.885334  0.675787  -0.105817
    C   C5   0.999719  0.165360  0.766736  0.050434
    C   C6   0.000255  0.884392  0.233256  0.039055
    C   C7   0.000281  0.165360  0.233264  0.050412
    C   C8   0.999745  0.884392  0.766744  0.039073
    H   H3   0.994481  0.275928  0.801029  0.021361
    H   H4   0.005479  0.773824  0.198959  0.024123
    H   H5   0.005519  0.275929  0.198971  0.021366
    H   H6   0.994521  0.773825  0.801042  0.024119
    C   C9   0.998551  0.024879  0.813137  -0.409688
    C   C10  0.001450  0.024879  0.186863  -0.409655
    C   C11  0.019823  0.024872  0.632371  -0.059549
    C   C12  0.980177  0.024872  0.367628  -0.059559
    N   N1   0.998930  0.888818  0.955913  -0.337850
    N   N2   0.001070  0.160951  0.044087  -0.342173
    N   N3   0.001070  0.888818  0.044087  -0.337847
    N   N4   0.998930  0.160951  0.955912  -0.342172
    C   C13  0.002507  0.024884  0.089180  0.882910
    C   C14  0.997494  0.024884  0.910820  0.882934
    O   O1   0.069764  0.694022  0.585864  -0.757645
    O   O2   0.930264  0.355577  0.414231  -0.758344
    O   O3   0.930237  0.694022  0.414136  -0.757651
    O   O4   0.069736  0.355577  0.585769  -0.758346
    O   O5   0.938920  0.688333  0.599232  -0.730945
    O   O6   0.061085  0.361557  0.400691  -0.712132
    O   O7   0.061080  0.688332  0.400768  -0.730955
    O   O8   0.938915  0.361557  0.599309  -0.712136
    C   C15  0.006497  0.743217  0.621810  0.906556
    C   C16  0.993518  0.306523  0.378202  0.888118
    C   C17  0.993503  0.743217  0.378190  0.906575
    C   C18  0.006482  0.306523  0.621798  0.888121
    Zn  Zn1  0.915257  0.524878  0.505796  1.058798
    Zn  Zn2  0.084743  0.524878  0.494204  1.058796
    C   C19  0.777114  0.531581  0.586942  -0.217619
    C   C20  0.222887  0.531581  0.413058  -0.217615
    N   N5   0.815360  0.524893  0.510048  0.161642
    N   N6   0.184641  0.524893  0.489952  0.161636
    C   C21  0.777416  0.517807  0.431472  -0.255515
    C   C22  0.222584  0.517807  0.568528  -0.255501
    C   C23  0.658344  0.524544  0.505712  -0.028769
    C   C24  0.341656  0.524544  0.494288  -0.028770
    C   C25  0.698064  0.531574  0.585689  0.090419
    C   C26  0.301936  0.531574  0.414311  0.090422
    C   C27  0.658608  0.540259  0.663861  0.299885
    C   C28  0.341392  0.540259  0.336138  0.299883
    C   C29  0.698934  0.517503  0.428366  0.240877
    C   C30  0.301066  0.517503  0.571634  0.240867
    C   C31  0.459389  0.521312  0.579026  0.104064
    C   C32  0.540612  0.521312  0.420974  0.104063
    C   C33  0.460896  0.528119  0.418121  0.035158
    C   C34  0.539104  0.528119  0.581879  0.035152
    C   C35  0.420919  0.524617  0.497140  -0.016977
    C   C36  0.579082  0.524617  0.502860  -0.016975
    C   C37  0.416824  0.509669  0.656372  -0.165188
    C   C38  0.583176  0.509669  0.343628  -0.165185
    C   C39  0.338610  0.508572  0.652319  -0.236879
    C   C40  0.661390  0.508572  0.347681  -0.236885
    C   C41  0.580205  0.539747  0.662089  -0.375880
    C   C42  0.419796  0.539747  0.337911  -0.375889
    H   H7   0.306890  0.499891  0.713291  0.147038
    H   H8   0.693110  0.499891  0.286708  0.147039
    H   H9   0.441515  0.496853  0.721929  0.131861
    H   H10  0.558485  0.496853  0.278071  0.131861
    H   H11  0.554029  0.553342  0.725753  0.200819
    H   H12  0.445972  0.553342  0.274247  0.200822
    H   H13  0.808847  0.512873  0.370193  0.175867
    H   H14  0.191153  0.512873  0.629807  0.175867
    H   H15  0.808827  0.537266  0.649275  0.194557
    H   H16  0.191173  0.537266  0.350725  0.194553
    O   O9   0.696705  0.551908  0.743896  -0.402318
    C   C43  0.701322  0.398657  0.775490  0.405977
    H   H17  0.715321  0.318643  0.719913  -0.065150
    H   H18  0.646011  0.364282  0.804375  -0.046583
    C   C44  0.763342  0.388160  0.846744  -0.296435
    H   H19  0.749655  0.468034  0.902508  0.084854
    H   H20  0.767057  0.266366  0.871940  0.071885
    H   H21  0.818739  0.422370  0.818004  0.099669
    O   O10  0.303295  0.551908  0.256104  -0.402305
    C   C45  0.298678  0.398657  0.224510  0.405951
    H   H22  0.284679  0.318643  0.280087  -0.065143
    H   H23  0.353990  0.364282  0.195625  -0.046577
    C   C46  0.236658  0.388160  0.153256  -0.296417
    H   H24  0.250345  0.468034  0.097492  0.084850
    H   H25  0.232943  0.266366  0.128060  0.071880
    H   H26  0.181262  0.422369  0.181995  0.099669
