# generated using pymatgen
data_FeH9C21NO8
_symmetry_space_group_name_H-M   'P 1'
_cell_length_a   13.18110200
_cell_length_b   9.39589900
_cell_length_c   19.76664100
_cell_angle_alpha   85.54237200
_cell_angle_beta   98.48213000
_cell_angle_gamma   112.19833800
_symmetry_Int_Tables_number   1
_chemical_formula_structural   FeH9C21NO8
_chemical_formula_sum   'Fe2 H18 C42 N2 O16'
_cell_volume   2241.17902412
_cell_formula_units_Z   2
loop_
 _symmetry_equiv_pos_site_id
 _symmetry_equiv_pos_as_xyz
  1  'x, y, z'
loop_
 _atom_site_type_symbol
 _atom_site_label
 _atom_site_symmetry_multiplicity
 _atom_site_fract_x
 _atom_site_fract_y
 _atom_site_fract_z
 _atom_site_occupancy
  Fe  Fe1  1  0.49026800  0.00117700  0.13930900  1
  Fe  Fe2  1  0.50397700  0.00104100  0.86136500  1
  H  H1  1  0.10338100  0.94740000  0.83357300  1
  H  H2  1  0.92293500  0.94662400  0.82304200  1
  H  H3  1  0.77377700  0.96896300  0.87145800  1
  H  H4  1  0.22476600  0.03957400  0.12985900  1
  H  H5  1  0.08156600  0.06714300  0.17865000  1
  H  H6  1  0.49190200  0.53709000  0.83629300  1
  H  H7  1  0.50345200  0.28862200  0.66748600  1
  H  H8  1  0.50554500  0.74450800  0.63769500  1
  H  H9  1  0.61989500  0.40300100  0.58046300  1
  H  H10  1  0.37840100  0.60331700  0.42145900  1
  H  H11  1  0.38055700  0.61264900  0.54417800  1
  H  H12  1  0.47988800  0.25298000  0.36173400  1
  H  H13  1  0.49598900  0.46117800  0.16350300  1
  H  H14  1  0.49475000  0.71514500  0.33315900  1
  H  H15  1  0.69630400  0.48061500  0.42510300  1
  H  H16  1  0.68622300  0.35299800  0.49110900  1
  H  H17  1  0.91315400  0.99318800  0.21413700  1
  H  H18  1  0.96406000  0.18655500  0.19441200  1
  C  C1  1  0.21256700  0.97290300  0.92722200  1
  C  C2  1  0.11417000  0.96229100  0.88815600  1
  C  C3  1  0.02917500  0.97334900  0.91771300  1
  C  C4  1  0.93273900  0.96467300  0.87734700  1
  C  C5  1  0.84776100  0.97859700  0.90558600  1
  C  C6  1  0.22376200  0.99004200  0.99744500  1
  C  C7  1  0.13817300  0.00316000  0.02693600  1
  C  C8  1  0.04097800  0.99565600  0.98688000  1
  C  C9  1  0.95608300  0.01205300  0.01562200  1
  C  C10  1  0.85881700  0.00358100  0.97506100  1
  C  C11  1  0.77195900  0.01344900  0.00440700  1
  C  C12  1  0.15052300  0.03013200  0.09602000  1
  C  C13  1  0.06700900  0.04709600  0.12447800  1
  C  C14  1  0.96872200  0.03682700  0.08484900  1
  C  C15  1  0.88304200  0.04918100  0.11414900  1
  C  C16  1  0.78271800  0.03102200  0.07474900  1
  C  C17  1  0.68839600  0.02399200  0.10913000  1
  C  C18  1  0.49024100  0.72880600  0.19542000  1
  C  C19  1  0.32957400  0.01366600  0.03936100  1
  C  C20  1  0.48441900  0.20336200  0.23223700  1
  C  C21  1  0.50415400  0.79623700  0.76735200  1
  C  C22  1  0.66570400  0.98777300  0.96209400  1
  C  C23  1  0.50034200  0.27057700  0.80445300  1
  C  C24  1  0.30397800  0.97399000  0.89202700  1
  C  C25  1  0.49918100  0.39889900  0.75717400  1
  C  C26  1  0.50291200  0.39168300  0.68789400  1
  C  C27  1  0.50135900  0.51407900  0.64432200  1
  C  C28  1  0.50147800  0.64581200  0.67071800  1
  C  C29  1  0.49706900  0.65305500  0.73936300  1
  C  C30  1  0.49348300  0.52874900  0.78228600  1
  C  C31  1  0.56572200  0.44428700  0.54514300  1
  C  C32  1  0.56629100  0.44154900  0.47532100  1
  C  C33  1  0.49802200  0.49754500  0.43030400  1
  C  C34  1  0.43293700  0.56081400  0.45580200  1
  C  C35  1  0.43408300  0.56573300  0.52538400  1
  C  C36  1  0.49973400  0.50641200  0.57035500  1
  C  C37  1  0.48715200  0.35321900  0.32913500  1
  C  C38  1  0.49094000  0.34574700  0.26044700  1
  C  C39  1  0.49557400  0.47028700  0.21759700  1
  C  C40  1  0.49229800  0.60130000  0.24289300  1
  C  C41  1  0.49236400  0.61060000  0.31252700  1
  C  C42  1  0.49319300  0.48779900  0.35606900  1
  N  N1  1  0.64100700  0.38790000  0.44992900  1
  N  N2  1  0.89788500  0.08224400  0.18500900  1
  O  O1  1  0.60060400  0.04213400  0.07522100  1
  O  O2  1  0.50155000  0.72262200  0.13097500  1
  O  O3  1  0.68827200  0.98992600  0.17474800  1
  O  O4  1  0.47818800  0.85016500  0.21632300  1
  O  O5  1  0.34067100  0.90927400  0.08490000  1
  O  O6  1  0.41202100  0.14592600  0.03516700  1
  O  O7  1  0.53679400  0.20886000  0.17996500  1
  O  O8  1  0.41985800  0.07088200  0.25593200  1
  O  O9  1  0.45476400  0.79256900  0.82084300  1
  O  O10  1  0.56796200  0.92795000  0.74259400  1
  O  O11  1  0.65421600  0.09036700  0.91549500  1
  O  O12  1  0.58290100  0.85660000  0.96796600  1
  O  O13  1  0.29739300  0.99370200  0.82529600  1
  O  O14  1  0.51716800  0.15209700  0.78429600  1
  O  O15  1  0.39448000  0.96317900  0.92580100  1
  O  O16  1  0.48420700  0.27373100  0.86816800  1
