# Generated by REPEAT Assigner based on pymatgen
data_DB0-m29_o92_o102_f0_pts.sym.17
_audit_creation_date              2022-05-24
_audit_creation_method            REPEAT_Assigner
_cell_length_a                    14.385725
_cell_length_b                    24.101733
_cell_length_c                    11.093054
_cell_angle_alpha                 118.453349
_cell_angle_beta                  94.436758
_cell_angle_gamma                 76.389419
_cell_volume                      3283.910336
_symmetry_space_group_name_H-M    P1
_symmetry_Int_Tables_number       1
loop_
    _symmetry_equiv_pos_site_id
    _symmetry_equiv_pos_as_xyz
    1  x,y,z
loop_
    _atom_site_type_symbol
    _atom_site_label
    _atom_site_fract_x
    _atom_site_fract_y
    _atom_site_fract_z
    _atom_type_partial_charge
    C   C1   0.843955  0.005311  0.152933  -0.260701
    C   C2   0.755539  0.001175  0.094663  0.058081
    C   C3   0.743756  0.997681  0.966105  0.003119
    C   C4   0.819919  0.997446  0.897610  -0.159827
    C   C5   0.908776  0.999039  0.953854  0.080930
    C   C6   0.921463  0.003223  0.082187  0.251010
    C   C7   0.984614  0.996623  0.881196  -0.180972
    C   C8   0.073959  0.998248  0.935889  0.048239
    C   C9   0.087642  0.002534  0.064165  0.305640
    C   C10  0.011109  0.005998  0.138703  -0.298816
    C   C11  0.149131  0.996446  0.862447  -0.096049
    C   C12  0.238776  0.999786  0.916741  -0.100873
    C   C13  0.252626  0.002854  0.044707  0.176688
    C   C14  0.178174  0.003331  0.116449  -0.366164
    H   H1   0.850923  0.009809  0.254342  0.134350
    H   H2   0.810188  0.993607  0.796538  0.152339
    H   H3   0.973861  0.993494  0.780831  0.145370
    H   H4   0.137097  0.992679  0.761898  0.133612
    H   H5   0.193161  0.005977  0.215646  0.183145
    C   C15  0.030553  0.077467  0.382584  0.470319
    H   H6   0.028195  0.116300  0.358620  0.046775
    N   N1   0.039018  0.088166  0.513002  -0.706902
    C   C16  0.041180  0.040197  0.543801  0.773272
    H   H7   0.047194  0.049708  0.649175  -0.017090
    N   N2   0.035444  0.980674  0.444390  -0.731826
    C   C17  0.026912  0.968335  0.312827  0.523861
    H   H8   0.021743  0.920588  0.233640  0.028328
    C   C18  0.023505  0.017130  0.279997  -0.154324
    O   O1   0.588229  0.007315  0.131951  -0.483855
    C   C19  0.676757  0.000571  0.171377  0.531473
    O   O2   0.615826  0.877309  0.119977  -0.498403
    O   O3   0.694827  0.993424  0.281589  -0.493149
    O   O4   0.544375  0.940532  0.331689  -0.499557
    C   C20  0.599086  0.885759  0.242906  0.577473
    Fe  Fe1  0.502710  0.000508  0.253249  1.455281
    O   O5   0.393794  0.966115  0.140865  -0.613047
    O   O6   0.369868  0.065448  0.154594  -0.506837
    C   C21  0.342624  0.011064  0.113150  0.619691
    O   O7   0.477688  0.090738  0.410903  -0.614425
    O   O8   0.366436  0.047480  0.448887  -0.479069
    C   C22  0.405777  0.096870  0.485446  0.647072
    O   O9   0.518158  0.911089  0.598365  -0.618407
    O   O10  0.631913  0.953896  0.564523  -0.495663
    C   C23  0.591513  0.904817  0.526020  0.665452
    O   O11  0.600886  0.034867  0.872653  -0.623023
    O   O12  0.629372  0.933431  0.849206  -0.515451
    C   C24  0.654650  0.988740  0.894802  0.679034
    O   O13  0.297326  0.006630  0.727150  -0.515107
    O   O14  0.452211  0.061775  0.681106  -0.506914
    C   C25  0.392529  0.114841  0.766487  0.571174
    O   O15  0.405669  0.993223  0.876079  -0.499390
    C   C26  0.316721  0.999834  0.837585  0.583745
    O   O16  0.371407  0.121988  0.886788  -0.492498
    Fe  Fe2  0.492483  0.000942  0.757624  1.461809
    C   C27  0.222567  0.377167  0.711037  0.604626
    O   O17  0.283295  0.391522  0.814288  -0.476670
    N   N3   0.215868  0.315042  0.634669  -0.222638
    C   C28  0.157953  0.298260  0.527799  0.437214
    C   C29  0.323006  0.209701  0.571720  -0.277636
    C   C30  0.362931  0.159445  0.600125  0.081173
    C   C31  0.299253  0.225443  0.830657  -0.099736
    C   C32  0.257048  0.274684  0.800237  -0.152436
    C   C33  0.267676  0.266784  0.670068  0.257275
    C   C34  0.109715  0.408372  0.570821  0.170990
    C   C35  0.168914  0.425152  0.681057  -0.412691
    C   C36  0.172177  0.489688  0.760017  0.563609
    C   C37  0.105200  0.344363  0.494052  -0.083510
    C   C38  0.351165  0.166971  0.730764  -0.045575
    H   H9   0.288895  0.232888  0.933177  0.130054
    H   H10  0.212621  0.318550  0.877956  0.121315
    C   C39  0.641212  0.833734  0.278711  -0.072291
    C   C40  0.010316  0.565213  0.576019  0.072457
    C   C41  0.935129  0.484421  0.400516  0.054459
    C   C42  0.945505  0.547919  0.472170  -0.009226
    C   C43  0.022684  0.628568  0.639092  -0.155348
    C   C44  0.968814  0.673843  0.605079  -0.070636
    C   C45  0.901787  0.657296  0.506574  -0.085521
    C   C46  0.890702  0.594512  0.439555  0.117759
    C   C47  0.824451  0.578862  0.339186  -0.129227
    C   C48  0.770755  0.625641  0.307342  0.446781
    N   N4   0.782562  0.686883  0.374699  -0.183123
    C   C49  0.847263  0.703128  0.472968  0.451978
    C   C50  0.676934  0.792652  0.440157  -0.279724
    C   C51  0.634118  0.842277  0.411143  0.077940
    C   C52  0.689507  0.774321  0.177092  -0.074196
    C   C53  0.733076  0.725236  0.207423  -0.195239
    C   C54  0.728576  0.734687  0.339751  0.294089
    O   O18  0.860845  0.763823  0.535654  -0.507362
    C   C55  0.061776  0.519004  0.613405  0.130308
    C   C56  0.054997  0.454920  0.537629  -0.075342
    C   C57  0.993687  0.437029  0.429020  0.086258
    C   C58  0.119194  0.535519  0.726622  -0.405075
    H   H11  0.673209  0.800584  0.544301  0.205356
    H   H12  0.980832  0.722363  0.657100  0.134539
    H   H13  0.075657  0.645281  0.713347  0.141908
    H   H14  0.123115  0.584551  0.796447  0.132697
    O   O19  0.148863  0.236610  0.456530  -0.476081
    C   C59  0.047682  0.326276  0.383301  -0.048631
    H   H15  0.331287  0.202656  0.469013  0.203688
    H   H16  0.044460  0.276202  0.319487  0.125856
    C   C60  0.865353  0.470120  0.302496  -0.189595
    C   C61  0.811305  0.516667  0.272138  -0.014990
    O   O20  0.705237  0.610410  0.210615  -0.494858
    C   C62  0.993122  0.371673  0.350480  -0.165229
    H   H17  0.847785  0.423541  0.248349  0.141589
    H   H18  0.695750  0.765922  0.073010  0.128228
    H   H19  0.758384  0.503209  0.195058  0.119034
    H   H20  0.774150  0.680334  0.127923  0.134001
    H   H21  0.953147  0.352696  0.259527  0.130627
    N   N5   0.228552  0.510786  0.878231  -0.593191
    H   H22  0.276305  0.534013  0.864181  0.271725
    H   H23  0.182725  0.544633  0.962558  0.249304
