# generated using pymatgen
data_ZnH11C20Br2NO4
_symmetry_space_group_name_H-M   'P 1'
_cell_length_a   14.02335900
_cell_length_b   15.23614700
_cell_length_c   17.50026200
_cell_angle_alpha   90.00303800
_cell_angle_beta   86.27274000
_cell_angle_gamma   90.00484700
_symmetry_Int_Tables_number   1
_chemical_formula_structural   ZnH11C20Br2NO4
_chemical_formula_sum   'Zn2 H22 C40 Br4 N2 O8'
_cell_volume   3731.23122643
_cell_formula_units_Z   2
loop_
 _symmetry_equiv_pos_site_id
 _symmetry_equiv_pos_as_xyz
  1  'x, y, z'
loop_
 _atom_site_type_symbol
 _atom_site_label
 _atom_site_symmetry_multiplicity
 _atom_site_fract_x
 _atom_site_fract_y
 _atom_site_fract_z
 _atom_site_occupancy
  Zn  Zn1  1  0.38647200  0.49957200  0.50424000  1
  Zn  Zn2  1  0.60270300  0.50366300  0.50687800  1
  H  H1  1  0.60582500  0.56676200  0.74761800  1
  H  H2  1  0.37953100  0.44297300  0.26375400  1
  H  H3  1  0.60243300  0.51246000  0.00016100  1
  H  H4  1  0.38477300  0.49119100  0.01031200  1
  H  H5  1  0.33241900  0.43262400  0.89279600  1
  H  H6  1  0.65927200  0.56439400  0.11755500  1
  H  H7  1  0.38551300  0.44036000  0.12649900  1
  H  H8  1  0.59857000  0.56971700  0.88530000  1
  H  H9  1  0.39598300  0.94183100  0.41664800  1
  H  H10  1  0.64047900  0.05742900  0.53264800  1
  H  H11  1  0.58810700  0.77825800  0.59332200  1
  H  H12  1  0.35180000  0.22277600  0.48085900  1
  H  H13  1  0.58650000  0.93708900  0.59818500  1
  H  H14  1  0.34591400  0.06512800  0.48378100  1
  H  H15  1  0.92419700  0.62044300  0.57314800  1
  H  H16  1  0.06951900  0.45114400  0.38974400  1
  H  H17  1  0.75050100  0.61828400  0.57562800  1
  H  H18  1  0.24242500  0.44662300  0.39210100  1
  H  H19  1  0.75756000  0.39260700  0.43741700  1
  H  H20  1  0.22704700  0.55124200  0.61488900  1
  H  H21  1  0.93053700  0.38680200  0.43679600  1
  H  H22  1  0.05406600  0.55170200  0.61870100  1
  C  C1  1  0.49181900  0.67341400  0.50520300  1
  C  C2  1  0.49750500  0.32923900  0.50592100  1
  C  C3  1  0.48088200  0.50003700  0.65572000  1
  C  C4  1  0.50839500  0.50330300  0.35535300  1
  C  C5  1  0.47297200  0.49883900  0.73999600  1
  C  C6  1  0.51619400  0.50443400  0.27100400  1
  C  C7  1  0.54566600  0.53609700  0.77879700  1
  C  C8  1  0.44123700  0.47086800  0.23246600  1
  C  C9  1  0.54178000  0.53710200  0.85773200  1
  C  C10  1  0.44443900  0.47006200  0.15356500  1
  C  C11  1  0.46505300  0.49961500  0.89945000  1
  C  C12  1  0.52279600  0.50414700  0.11144100  1
  C  C13  1  0.39234400  0.46280300  0.86089300  1
  C  C14  1  0.59783400  0.53712400  0.14969500  1
  C  C15  1  0.39575500  0.46117500  0.78200100  1
  C  C16  1  0.59531600  0.53832000  0.22858700  1
  C  C17  1  0.45606700  0.49880500  0.98383500  1
  C  C18  1  0.53123000  0.50526500  0.02698500  1
  C  C19  1  0.43613600  0.90699400  0.45765600  1
  C  C20  1  0.57591100  0.09293600  0.52242800  1
  C  C21  1  0.43493400  0.81644700  0.45657100  1
  C  C22  1  0.57959000  0.18333800  0.52335000  1
  C  C23  1  0.48989300  0.76951400  0.50537300  1
  C  C24  1  0.49899300  0.23221100  0.50733000  1
  C  C25  1  0.54545300  0.81415400  0.55461700  1
  C  C26  1  0.41597800  0.18757600  0.49290400  1
  C  C27  1  0.54493800  0.90455000  0.55675100  1
  C  C28  1  0.41279400  0.09711200  0.49348400  1
  C  C29  1  0.49074600  0.95199200  0.50784300  1
  C  C30  1  0.49302300  0.04880300  0.50788200  1
  C  C31  1  0.88947500  0.56801300  0.54406400  1
  C  C32  1  0.10204000  0.47167200  0.44108600  1
  C  C33  1  0.79099600  0.56760600  0.54490200  1
  C  C34  1  0.20035300  0.46992200  0.44190400  1
  C  C35  1  0.79494000  0.44216300  0.46797100  1
  C  C36  1  0.19184600  0.52801700  0.56568300  1
  C  C37  1  0.89323000  0.43987000  0.46672400  1
  C  C38  1  0.09350700  0.52963800  0.56720700  1
  C  C39  1  0.94197300  0.50331800  0.50496900  1
  C  C40  1  0.04716800  0.50161900  0.50433200  1
  Br  Br1  1  0.70093800  0.59389200  0.27304100  1
  Br  Br2  1  0.29511500  0.39907100  0.73664300  1
  Br  Br3  1  0.36371500  0.75975300  0.38125000  1
  Br  Br4  1  0.69827100  0.23220300  0.55121100  1
  N  N1  1  0.74531100  0.50497300  0.50724000  1
  N  N2  1  0.24383800  0.49799300  0.50375100  1
  O  O1  1  0.41073200  0.63063700  0.50442100  1
  O  O2  1  0.57801500  0.37269000  0.50656300  1
  O  O3  1  0.57490100  0.63417000  0.50745800  1
  O  O4  1  0.41458200  0.36907800  0.50406500  1
  O  O5  1  0.40280500  0.49957500  0.61840500  1
  O  O6  1  0.58637200  0.50399200  0.39272700  1
  O  O7  1  0.56664800  0.50279000  0.62090100  1
  O  O8  1  0.42269200  0.50036100  0.39023800  1
