# generated using pymatgen
data_Zn3H26C43O14
_symmetry_space_group_name_H-M   'P 1'
_cell_length_a   37.10240700
_cell_length_b   30.32572800
_cell_length_c   21.80841000
_cell_angle_alpha   90.00000000
_cell_angle_beta   54.89689400
_cell_angle_gamma   90.00000000
_symmetry_Int_Tables_number   1
_chemical_formula_structural   Zn3H26C43O14
_chemical_formula_sum   'Zn12 H104 C172 O56'
_cell_volume   20074.90788999
_cell_formula_units_Z   4
loop_
 _symmetry_equiv_pos_site_id
 _symmetry_equiv_pos_as_xyz
  1  'x, y, z'
loop_
 _atom_site_type_symbol
 _atom_site_label
 _atom_site_symmetry_multiplicity
 _atom_site_fract_x
 _atom_site_fract_y
 _atom_site_fract_z
 _atom_site_occupancy
  Zn  Zn1  1  0.00015600  0.55488000  0.50205700  1
  Zn  Zn2  1  0.50015600  0.05488000  0.50205700  1
  Zn  Zn3  1  0.00005400  0.45513100  0.49626500  1
  Zn  Zn4  1  0.50005400  0.95513100  0.49626500  1
  Zn  Zn5  1  0.94981800  0.50381500  0.04553700  1
  Zn  Zn6  1  0.04946100  0.50421000  0.95369400  1
  Zn  Zn7  1  0.44981800  0.00381500  0.04553700  1
  Zn  Zn8  1  0.54946100  0.00421000  0.95369400  1
  Zn  Zn9  1  0.49985900  0.50276400  0.06876300  1
  Zn  Zn10  1  0.50046800  0.50497000  0.92944000  1
  Zn  Zn11  1  0.99985900  0.00276400  0.06876300  1
  Zn  Zn12  1  0.00046800  0.00497000  0.92944000  1
  H  H1  1  0.06630500  0.64425000  0.89370800  1
  H  H2  1  0.93365100  0.64391900  0.08959100  1
  H  H3  1  0.56630500  0.14425000  0.89370800  1
  H  H4  1  0.43365100  0.14391900  0.08959100  1
  H  H5  1  0.95654700  0.54772700  0.73671300  1
  H  H6  1  0.04324600  0.46170300  0.26230800  1
  H  H7  1  0.45654700  0.04772700  0.73671300  1
  H  H8  1  0.54324600  0.96170300  0.26230900  1
  H  H9  1  0.07500900  0.45242800  0.56427800  1
  H  H10  1  0.92582200  0.55840900  0.43335400  1
  H  H11  1  0.57500900  0.95242800  0.56427800  1
  H  H12  1  0.42582200  0.05840900  0.43335400  1
  H  H13  1  0.12074800  0.40109800  0.57441600  1
  H  H14  1  0.87995600  0.60934900  0.42285800  1
  H  H15  1  0.62074800  0.90109800  0.57441600  1
  H  H16  1  0.37995600  0.10934900  0.42285800  1
  H  H17  1  0.11161700  0.39062600  0.69412200  1
  H  H18  1  0.88833500  0.61852400  0.30354000  1
  H  H19  1  0.61161700  0.89062600  0.69412200  1
  H  H20  1  0.38833500  0.11852400  0.30354000  1
  H  H21  1  0.05789300  0.43272000  0.80275800  1
  H  H22  1  0.94141800  0.57550600  0.19569500  1
  H  H23  1  0.55789300  0.93272000  0.80275800  1
  H  H24  1  0.44141800  0.07550600  0.19569500  1
  H  H25  1  0.95498900  0.54532500  0.84956400  1
  H  H26  1  0.04427400  0.46314400  0.14993800  1
  H  H27  1  0.45498900  0.04532500  0.84956400  1
  H  H28  1  0.54427400  0.96314400  0.14993800  1
  H  H29  1  0.22010600  0.44016500  0.23368400  1
  H  H30  1  0.78041900  0.43819200  0.75403400  1
  H  H31  1  0.72010600  0.94016500  0.23368400  1
  H  H32  1  0.28041900  0.93819200  0.75403400  1
  H  H33  1  0.13991100  0.43967400  0.31443700  1
  H  H34  1  0.86064000  0.43823100  0.67315200  1
  H  H35  1  0.63991100  0.93967400  0.31443700  1
  H  H36  1  0.36064000  0.93823100  0.67315200  1
  H  H37  1  0.14057400  0.56933600  0.39090300  1
  H  H38  1  0.85942400  0.57324700  0.61784000  1
  H  H39  1  0.64057400  0.06933600  0.39090300  1
  H  H40  1  0.35942400  0.07324700  0.61784000  1
  H  H41  1  0.22064900  0.56926800  0.31115900  1
  H  H42  1  0.77931100  0.57274300  0.69760900  1
  H  H43  1  0.72064900  0.06926800  0.31115900  1
  H  H44  1  0.27931100  0.07274300  0.69760900  1
  H  H45  1  0.27955100  0.52677800  0.30736600  1
  H  H46  1  0.72057900  0.53434800  0.69492400  1
  H  H47  1  0.77955100  0.02677800  0.30736600  1
  H  H48  1  0.22057900  0.03434800  0.69492400  1
  H  H49  1  0.35965400  0.52612900  0.22976000  1
  H  H50  1  0.64047300  0.53338600  0.77247200  1
  H  H51  1  0.85965400  0.02612900  0.22976000  1
  H  H52  1  0.14047300  0.03338600  0.77247200  1
  H  H53  1  0.36006100  0.48246900  0.04293200  1
  H  H54  1  0.64035600  0.47554900  0.95139100  1
  H  H55  1  0.86006100  0.98246900  0.04293200  1
  H  H56  1  0.14035600  0.97554900  0.95139100  1
  H  H57  1  0.27982900  0.48238900  0.12133100  1
  H  H58  1  0.72060800  0.47580300  0.87290900  1
  H  H59  1  0.77982900  0.98238900  0.12133100  1
  H  H60  1  0.22060800  0.97580300  0.87290900  1
  H  H61  1  0.47450200  0.36214000  0.11216500  1
  H  H62  1  0.52577300  0.36509800  0.87935800  1
  H  H63  1  0.97450200  0.86214000  0.11216500  1
  H  H64  1  0.02577300  0.86509800  0.87935800  1
  H  H65  1  0.06585500  0.72453100  0.89383200  1
  H  H66  1  0.93368800  0.72409100  0.09008000  1
  H  H67  1  0.56585500  0.22453100  0.89383200  1
  H  H68  1  0.43368800  0.22409100  0.09008000  1
  H  H69  1  0.47401100  0.28201500  0.10969300  1
  H  H70  1  0.52589600  0.28485500  0.87703300  1
  H  H71  1  0.97401100  0.78201500  0.10969300  1
  H  H72  1  0.02589600  0.78485500  0.87703300  1
  H  H73  1  0.06883300  0.36486200  0.94874800  1
  H  H74  1  0.92951000  0.36399800  0.06761600  1
  H  H75  1  0.56883300  0.86486200  0.94874800  1
  H  H76  1  0.42951000  0.86399800  0.06761600  1
  H  H77  1  0.49455100  0.72645300  0.91360100  1
  H  H78  1  0.50532500  0.72296600  0.09766300  1
  H  H79  1  0.99455100  0.22645300  0.91360100  1
  H  H80  1  0.00532500  0.22296600  0.09766300  1
  H  H81  1  0.49492200  0.64611300  0.90976500  1
  H  H82  1  0.50527500  0.64256300  0.09551900  1
  H  H83  1  0.99492200  0.14611300  0.90976500  1
  H  H84  1  0.00527500  0.14256300  0.09551900  1
  H  H85  1  0.14046600  0.21707800  0.91329800  1
  H  H86  1  0.15259800  0.23413800  0.82340100  1
  H  H87  1  0.10137800  0.15152700  0.91303000  1
  H  H88  1  0.15704200  0.15316100  0.82888200  1
  H  H89  1  0.11117900  0.16872600  0.82516000  1
  H  H90  1  0.85993700  0.21546400  0.10019100  1
  H  H91  1  0.84714300  0.23219000  0.19067000  1
  H  H92  1  0.89956100  0.15031200  0.09997500  1
  H  H93  1  0.84377000  0.15121300  0.18381900  1
  H  H94  1  0.88924600  0.16720700  0.18835500  1
  H  H95  1  0.64046600  0.71707800  0.91329800  1
  H  H96  1  0.65259800  0.73413800  0.82340100  1
  H  H97  1  0.60137800  0.65152700  0.91303000  1
  H  H98  1  0.65704200  0.65316100  0.82888200  1
  H  H99  1  0.61117900  0.66872600  0.82516000  1
  H  H100  1  0.35993700  0.71546400  0.10019100  1
  H  H101  1  0.34714300  0.73219000  0.19067000  1
  H  H102  1  0.39956100  0.65031200  0.09997500  1
  H  H103  1  0.34377000  0.65121300  0.18381900  1
  H  H104  1  0.38924600  0.66720700  0.18835500  1
  C  C1  1  0.08624700  0.50418300  0.40788800  1
  C  C2  1  0.91396300  0.50586200  0.59044100  1
  C  C3  1  0.58624700  0.00418300  0.40788800  1
  C  C4  1  0.41396300  0.00586200  0.59044100  1
  C  C5  1  0.00607200  0.50238300  0.61294700  1
  C  C6  1  0.99413900  0.50761400  0.38536400  1
  C  C7  1  0.50607200  0.00238300  0.61294700  1
  C  C8  1  0.49413900  0.00761400  0.38536400  1
  C  C9  1  0.03694900  0.66148500  0.93696200  1
  C  C10  1  0.96280400  0.66127500  0.04602500  1
  C  C11  1  0.53694900  0.16148500  0.93696200  1
  C  C12  1  0.46280400  0.16127500  0.04602500  1
  C  C13  1  0.50011100  0.63851000  0.00242100  1
  C  C14  1  0.00011100  0.13851000  0.00242100  1
  C  C15  1  0.06930400  0.44871100  0.61836300  1
  C  C16  1  0.93117300  0.56151800  0.37945500  1
  C  C17  1  0.56930400  0.94871100  0.61836300  1
  C  C18  1  0.43117300  0.06151800  0.37945500  1
  C  C19  1  0.09613800  0.41979300  0.62313400  1
  C  C20  1  0.90428400  0.59024300  0.37448300  1
  C  C21  1  0.59613800  0.91979300  0.62313400  1
  C  C22  1  0.40428400  0.09024300  0.37448200  1
  C  C23  1  0.09125300  0.41417200  0.68994100  1
  C  C24  1  0.90875100  0.59514400  0.30789700  1
  C  C25  1  0.59125300  0.91417200  0.68994100  1
  C  C26  1  0.40875100  0.09514400  0.30789700  1
  C  C27  1  0.06092400  0.43894900  0.75131800  1
  C  C28  1  0.93872900  0.56986400  0.24697900  1
  C  C29  1  0.56092400  0.93894900  0.75131800  1
  C  C30  1  0.43872900  0.06986400  0.24697900  1
  C  C31  1  0.03481400  0.46969400  0.74659200  1
  C  C32  1  0.96490300  0.53933300  0.25195000  1
  C  C33  1  0.53481400  0.96969400  0.74659200  1
  C  C34  1  0.46490300  0.03933300  0.25195000  1
  C  C35  1  0.03718300  0.47264100  0.68075000  1
  C  C36  1  0.96293000  0.53706000  0.31749300  1
  C  C37  1  0.53718300  0.97264100  0.68075000  1
  C  C38  1  0.46293000  0.03706000  0.31749300  1
  C  C39  1  0.00826900  0.50039900  0.67776900  1
  C  C40  1  0.99186700  0.50942600  0.32062400  1
  C  C41  1  0.50826900  0.00039900  0.67776900  1
  C  C42  1  0.49186700  0.00942600  0.32062400  1
  C  C43  1  0.97910700  0.52622100  0.73864000  1
  C  C44  1  0.02070100  0.48314500  0.26022800  1
  C  C45  1  0.47910700  0.02622100  0.73864000  1
  C  C46  1  0.52070100  0.98314500  0.26022800  1
  C  C47  1  0.97767700  0.52427800  0.80282500  1
  C  C48  1  0.02179500  0.48449300  0.19634200  1
  C  C49  1  0.47767700  0.02427800  0.80282500  1
  C  C50  1  0.52179500  0.98449300  0.19634200  1
  C  C51  1  0.00553600  0.49663800  0.80721900  1
  C  C52  1  0.99386200  0.51192700  0.19182800  1
  C  C53  1  0.50553600  0.99663800  0.80721900  1
  C  C54  1  0.49386200  0.01192700  0.19182800  1
  C  C55  1  0.20276500  0.46876600  0.26772500  1
  C  C56  1  0.79764200  0.46805400  0.72465300  1
  C  C57  1  0.70276500  0.96876600  0.26772500  1
  C  C58  1  0.29764200  0.96805400  0.72465300  1
  C  C59  1  0.15732100  0.46836900  0.31401300  1
  C  C60  1  0.84308000  0.46799400  0.67829000  1
  C  C61  1  0.65732100  0.96836900  0.31401300  1
  C  C62  1  0.34308000  0.96799400  0.67829000  1
  C  C63  1  0.13452200  0.50449700  0.35834800  1
  C  C64  1  0.86570700  0.50577600  0.63993600  1
  C  C65  1  0.63452200  0.00449700  0.35834800  1
  C  C66  1  0.36570700  0.00577600  0.63993600  1
  C  C67  1  0.15766000  0.54081500  0.35640200  1
  C  C68  1  0.84243000  0.54343300  0.64777000  1
  C  C69  1  0.65766000  0.04081500  0.35640200  1
  C  C70  1  0.34243000  0.04343300  0.64777000  1
  C  C71  1  0.20308600  0.54065700  0.31173500  1
  C  C72  1  0.79700600  0.54306200  0.69239000  1
  C  C73  1  0.70308600  0.04065700  0.31173500  1
  C  C74  1  0.29700600  0.04306200  0.69239000  1
  C  C75  1  0.22587700  0.50472800  0.26694300  1
  C  C76  1  0.77438100  0.50545400  0.73133000  1
  C  C77  1  0.72587700  0.00472800  0.26694300  1
  C  C78  1  0.27438100  0.00545400  0.73133000  1
  C  C79  1  0.29705700  0.51721600  0.24918700  1
  C  C80  1  0.70313300  0.52157100  0.75136900  1
  C  C81  1  0.79705700  0.01721600  0.24918700  1
  C  C82  1  0.20313300  0.02157100  0.75136900  1
  C  C83  1  0.34247500  0.51642100  0.20532100  1
  C  C84  1  0.65772300  0.52060300  0.79512700  1
  C  C85  1  0.84247500  0.01642100  0.20532100  1
  C  C86  1  0.15772300  0.02060300  0.79512700  1
  C  C87  1  0.36554200  0.50422500  0.13083600  1
  C  C88  1  0.63474700  0.50435600  0.86741200  1
  C  C89  1  0.86554200  0.00422500  0.13083600  1
  C  C90  1  0.13474700  0.00435600  0.86741200  1
  C  C91  1  0.34268500  0.49231200  0.10095300  1
  C  C92  1  0.65767800  0.48857900  0.89513200  1
  C  C93  1  0.84268500  0.99231200  0.10095300  1
  C  C94  1  0.15767800  0.98857900  0.89513200  1
  C  C95  1  0.29722500  0.49187100  0.14549600  1
  C  C96  1  0.70313800  0.48834500  0.85049300  1
  C  C97  1  0.79722500  0.99187100  0.14549600  1
  C  C98  1  0.20313800  0.98834500  0.85049300  1
  C  C99  1  0.27418900  0.50461800  0.21969400  1
  C  C100  1  0.72607900  0.50513300  0.77858600  1
  C  C101  1  0.77418900  0.00461800  0.21969400  1
  C  C102  1  0.22607900  0.00513300  0.77858600  1
  C  C103  1  0.99996700  0.63845100  0.99151000  1
  C  C104  1  0.49996700  0.13845100  0.99151000  1
  C  C105  1  0.03659800  0.70694800  0.93659200  1
  C  C106  1  0.96293600  0.70670600  0.04682400  1
  C  C107  1  0.53659800  0.20694800  0.93659200  1
  C  C108  1  0.46293600  0.20670600  0.04682400  1
  C  C109  1  0.49994700  0.72960600  0.00578300  1
  C  C110  1  0.99994700  0.22960600  0.00578300  1
  C  C111  1  0.99975700  0.72974100  0.99198900  1
  C  C112  1  0.49975700  0.22974100  0.99198900  1
  C  C113  1  0.99891500  0.41771500  0.00664200  1
  C  C114  1  0.49891500  0.91771500  0.00664200  1
  C  C115  1  0.00410600  0.49850300  0.87563800  1
  C  C116  1  0.99519800  0.50964500  0.12353600  1
  C  C117  1  0.50410600  0.99850300  0.87563800  1
  C  C118  1  0.49519800  0.00964500  0.12353600  1
  C  C119  1  0.48520000  0.30012000  0.05900300  1
  C  C120  1  0.51474000  0.30171200  0.92875700  1
  C  C121  1  0.98520000  0.80012000  0.05900300  1
  C  C122  1  0.01474000  0.80171200  0.92875700  1
  C  C123  1  0.00034200  0.59020500  0.99265900  1
  C  C124  1  0.50034200  0.09020500  0.99265900  1
  C  C125  1  0.50022200  0.41755000  0.99752900  1
  C  C126  1  0.00022200  0.91755000  0.99752900  1
  C  C127  1  0.41383500  0.50391300  0.08409500  1
  C  C128  1  0.58646500  0.50393400  0.91412800  1
  C  C129  1  0.91383500  0.00391300  0.08409500  1
  C  C130  1  0.08646500  0.00393400  0.91412800  1
  C  C131  1  0.48589800  0.34553300  0.06015200  1
  C  C132  1  0.51428300  0.34717000  0.93031800  1
  C  C133  1  0.98589800  0.84553300  0.06015200  1
  C  C134  1  0.01428300  0.84717000  0.93031800  1
  C  C135  1  0.50012500  0.59022300  0.00066900  1
  C  C136  1  0.00012500  0.09022300  0.00066900  1
  C  C137  1  0.03919700  0.30107900  0.97396300  1
  C  C138  1  0.95989100  0.30062700  0.04195200  1
  C  C139  1  0.53919700  0.80107900  0.97396300  1
  C  C140  1  0.45989100  0.80062700  0.04195200  1
  C  C141  1  0.03835500  0.34668100  0.97523600  1
  C  C142  1  0.96019500  0.34621400  0.04131400  1
  C  C143  1  0.53835500  0.84668100  0.97523600  1
  C  C144  1  0.46019500  0.84621400  0.04131400  1
  C  C145  1  0.99915400  0.36931600  0.00816600  1
  C  C146  1  0.49915400  0.86931600  0.00816600  1
  C  C147  1  0.49987900  0.27800700  0.99322500  1
  C  C148  1  0.99987900  0.77800700  0.99322500  1
  C  C149  1  0.50014500  0.36928700  0.99593400  1
  C  C150  1  0.00014500  0.86928700  0.99593400  1
  C  C151  1  0.99967900  0.27777400  0.00758300  1
  C  C152  1  0.49967900  0.77777400  0.00758300  1
  C  C153  1  0.49696300  0.70784400  0.95336900  1
  C  C154  1  0.50303800  0.70589300  0.05652000  1
  C  C155  1  0.99696300  0.20784400  0.95336900  1
  C  C156  1  0.00303800  0.20589300  0.05652000  1
  C  C157  1  0.49725900  0.66244700  0.95137500  1
  C  C158  1  0.50290900  0.66047500  0.05514700  1
  C  C159  1  0.99725900  0.16244700  0.95137500  1
  C  C160  1  0.00290900  0.16047500  0.05514700  1
  C  C161  1  0.08269900  0.27915200  0.93561800  1
  C  C162  1  0.12868500  0.21672100  0.87667600  1
  C  C163  1  0.12430400  0.16937300  0.85976700  1
  C  C164  1  0.91669300  0.27816600  0.07956700  1
  C  C165  1  0.87144800  0.21515000  0.13720400  1
  C  C166  1  0.87630800  0.16781100  0.15346600  1
  C  C167  1  0.58269900  0.77915200  0.93561800  1
  C  C168  1  0.62868500  0.71672100  0.87667600  1
  C  C169  1  0.62430400  0.66937300  0.85976700  1
  C  C170  1  0.41669300  0.77816600  0.07956700  1
  C  C171  1  0.37144800  0.71515000  0.13720400  1
  C  C172  1  0.37630800  0.66781100  0.15346600  1
  O  O1  1  0.06558300  0.54198400  0.43379000  1
  O  O2  1  0.93446600  0.54391700  0.57220500  1
  O  O3  1  0.56558300  0.04198400  0.43379000  1
  O  O4  1  0.43446600  0.04391700  0.57220500  1
  O  O5  1  0.06571200  0.46614600  0.42530800  1
  O  O6  1  0.93463300  0.46798000  0.56535700  1
  O  O7  1  0.56571200  0.96614600  0.42530800  1
  O  O8  1  0.43463300  0.96798000  0.56535700  1
  O  O9  1  0.00277900  0.54129000  0.59034500  1
  O  O10  1  0.99537600  0.54468800  0.41517400  1
  O  O11  1  0.50277900  0.04129000  0.59034500  1
  O  O12  1  0.49537600  0.04468800  0.41517400  1
  O  O13  1  0.00535700  0.46533600  0.58256600  1
  O  O14  1  0.99692400  0.46870100  0.40851300  1
  O  O15  1  0.50535700  0.96533600  0.58256600  1
  O  O16  1  0.49692400  0.96870100  0.40851300  1
  O  O17  1  0.96084000  0.43813100  0.04172700  1
  O  O18  1  0.03677900  0.43864000  0.96899000  1
  O  O19  1  0.46084000  0.93813100  0.04172700  1
  O  O20  1  0.53677900  0.93864000  0.96899000  1
  O  O21  1  0.96537200  0.49942000  0.94018300  1
  O  O22  1  0.03392300  0.50901800  0.05898700  1
  O  O23  1  0.46537200  0.99942000  0.94018300  1
  O  O24  1  0.53392300  0.00901800  0.05898700  1
  O  O25  1  0.04129300  0.50143800  0.86957300  1
  O  O26  1  0.95800500  0.50638200  0.12965500  1
  O  O27  1  0.54129300  0.00143800  0.86957300  1
  O  O28  1  0.45800500  0.00638200  0.12965500  1
  O  O29  1  0.96244100  0.56939400  0.03082400  1
  O  O30  1  0.03849500  0.56988400  0.95693900  1
  O  O31  1  0.46244100  0.06939400  0.03082400  1
  O  O32  1  0.53849500  0.06988400  0.95693900  1
  O  O33  1  0.49836700  0.43716200  0.05288700  1
  O  O34  1  0.50199300  0.43913800  0.94369600  1
  O  O35  1  0.99836700  0.93716200  0.05288700  1
  O  O36  1  0.00199300  0.93913800  0.94369600  1
  O  O37  1  0.43408800  0.50245700  0.11737800  1
  O  O38  1  0.56621800  0.50625500  0.88090200  1
  O  O39  1  0.93408800  0.00245700  0.11737800  1
  O  O40  1  0.06621800  0.00625500  0.88090200  1
  O  O41  1  0.43483800  0.50526200  0.01095800  1
  O  O42  1  0.56547200  0.50157700  0.98719800  1
  O  O43  1  0.93483800  0.00526200  0.01095800  1
  O  O44  1  0.06547200  0.00157700  0.98719800  1
  O  O45  1  0.49924600  0.56860600  0.05364000  1
  O  O46  1  0.50103000  0.57058800  0.94620500  1
  O  O47  1  0.99924600  0.06860600  0.05364000  1
  O  O48  1  0.00103000  0.07058800  0.94620500  1
  O  O49  1  0.11446300  0.30013900  0.92244100  1
  O  O50  1  0.08837300  0.23691100  0.91249400  1
  O  O51  1  0.88474600  0.29876300  0.09267700  1
  O  O52  1  0.91147400  0.23585300  0.10219400  1
  O  O53  1  0.61446300  0.80013900  0.92244100  1
  O  O54  1  0.58837300  0.73691100  0.91249400  1
  O  O55  1  0.38474600  0.79876300  0.09267700  1
  O  O56  1  0.41147400  0.73585300  0.10219400  1
