data_DB0-m3_o530_o155_f0_fsc.sym.16_repeat
_audit_creation_date              2024-02-20
_audit_creation_method            'Materials Studio'
_symmetry_space_group_name_H-M    'P1'
_symmetry_Int_Tables_number       1
_symmetry_cell_setting            triclinic
loop_
_symmetry_equiv_pos_as_xyz
  x,y,z
_cell_length_a                    19.0179
_cell_length_b                    8.5420
_cell_length_c                    17.5806
_cell_angle_alpha                 90.0000
_cell_angle_beta                  101.9348
_cell_angle_gamma                 90.0000
loop_
_atom_site_label
_atom_site_type_symbol
_atom_site_fract_x
_atom_site_fract_y
_atom_site_fract_z
_atom_site_U_iso_or_equiv
_atom_site_adp_type
_atom_site_occupancy
C1     C     0.86840   0.90937   0.05945   0.00000  Uiso   1.00
C2     C     0.13140   0.08894   0.94056   0.00000  Uiso   1.00
C3     C     0.15623   0.91315   0.04510   0.00000  Uiso   1.00
C4     C     0.84357   0.08511   0.95489   0.00000  Uiso   1.00
N1     N     0.82131   0.99728   0.00917   0.00000  Uiso   1.00
N2     N     0.17851   0.00103   0.99084   0.00000  Uiso   1.00
C5     C     0.91536   0.08713   0.95050   0.00000  Uiso   1.00
C6     C     0.08444   0.91110   0.04948   0.00000  Uiso   1.00
C7     C     0.05933   0.08950   0.94355   0.00000  Uiso   1.00
C8     C     0.94046   0.90874   0.05643   0.00000  Uiso   1.00
C9     C     0.96399   0.99853   0.00172   0.00000  Uiso   1.00
C10    C     0.03580   0.99970   0.99826   0.00000  Uiso   1.00
C11    C     0.93881   0.17678   0.89520   0.00000  Uiso   1.00
C12    C     0.06098   0.82144   0.10478   0.00000  Uiso   1.00
C13    C     0.01059   0.17802   0.89176   0.00000  Uiso   1.00
C14    C     0.98919   0.82020   0.10821   0.00000  Uiso   1.00
O1     O     0.84540   0.82592   0.11433   0.00000  Uiso   1.00
O2     O     0.15440   0.17248   0.88570   0.00000  Uiso   1.00
O3     O     0.20431   0.83058   0.09635   0.00000  Uiso   1.00
O4     O     0.79548   0.16768   0.90365   0.00000  Uiso   1.00
H1     H     0.90163   0.24701   0.85423   0.00000  Uiso   1.00
H2     H     0.09815   0.75123   0.14575   0.00000  Uiso   1.00
H3     H     0.02780   0.24910   0.84814   0.00000  Uiso   1.00
H4     H     0.97197   0.74910   0.15182   0.00000  Uiso   1.00
C15    C     0.28831   0.85913   0.98368   0.00000  Uiso   1.00
C16    C     0.71158   0.13921   0.01641   0.00000  Uiso   1.00
C17    C     0.71152   0.85861   0.01800   0.00000  Uiso   1.00
C18    C     0.28831   0.13974   0.98194   0.00000  Uiso   1.00
H5     H     0.26170   0.74892   0.98854   0.00000  Uiso   1.00
H6     H     0.73821   0.24941   0.01159   0.00000  Uiso   1.00
H7     H     0.73731   0.74847   0.01066   0.00000  Uiso   1.00
H8     H     0.26251   0.24988   0.98926   0.00000  Uiso   1.00
C19    C     0.35812   0.85918   0.97285   0.00000  Uiso   1.00
C20    C     0.64177   0.13917   0.02722   0.00000  Uiso   1.00
C21    C     0.64159   0.85976   0.02827   0.00000  Uiso   1.00
C22    C     0.35824   0.13862   0.97164   0.00000  Uiso   1.00
C23    C     0.39151   0.99855   0.96376   0.00000  Uiso   1.00
C24    C     0.60834   0.99980   0.03621   0.00000  Uiso   1.00
C25    C     0.25228   0.99979   0.98519   0.00000  Uiso   1.00
C26    C     0.74757   0.99855   0.01483   0.00000  Uiso   1.00
H9     H     0.44659   0.99804   0.95705   0.00000  Uiso   1.00
H10    H     0.55326   0.00032   0.04291   0.00000  Uiso   1.00
O5     O     0.42738   0.66648   0.05183   0.00000  Uiso   1.00
O6     O     0.57240   0.33151   0.94818   0.00000  Uiso   1.00
O7     O     0.57216   0.66822   0.94869   0.00000  Uiso   1.00
O8     O     0.42789   0.32980   0.05130   0.00000  Uiso   1.00
O9     O     0.42302   0.66358   0.91965   0.00000  Uiso   1.00
O10    O     0.57715   0.33522   0.08044   0.00000  Uiso   1.00
O11    O     0.57654   0.66348   0.08082   0.00000  Uiso   1.00
O12    O     0.42311   0.33535   0.91903   0.00000  Uiso   1.00
C27    C     0.40162   0.71705   0.98108   0.00000  Uiso   1.00
C28    C     0.59831   0.28130   0.01896   0.00000  Uiso   1.00
C29    C     0.59780   0.71811   0.01957   0.00000  Uiso   1.00
C30    C     0.40208   0.28028   0.98036   0.00000  Uiso   1.00
Zn1    Zn    0.49821   0.49974   0.91462   0.00000  Uiso   1.00
Zn2    Zn    0.50171   0.49854   0.08537   0.00000  Uiso   1.00
C31    C     0.43229   0.50473   0.76242   0.00000  Uiso   1.00
C32    C     0.56775   0.50334   0.23747   0.00000  Uiso   1.00
N3     N     0.49543   0.50049   0.81418   0.00000  Uiso   1.00
N4     N     0.50455   0.49782   0.18583   0.00000  Uiso   1.00
C33    C     0.55801   0.49521   0.79048   0.00000  Uiso   1.00
C34    C     0.44209   0.49042   0.20968   0.00000  Uiso   1.00
C35    C     0.49597   0.49994   0.65760   0.00000  Uiso   1.00
C36    C     0.50433   0.49748   0.34248   0.00000  Uiso   1.00
C37    C     0.43132   0.50647   0.68234   0.00000  Uiso   1.00
C38    C     0.56887   0.50542   0.31759   0.00000  Uiso   1.00
C39    C     0.36821   0.51612   0.62611   0.00000  Uiso   1.00
C40    C     0.63201   0.51665   0.37370   0.00000  Uiso   1.00
C41    C     0.55901   0.49395   0.71256   0.00000  Uiso   1.00
C42    C     0.44127   0.48902   0.28764   0.00000  Uiso   1.00
C43    C     0.43666   0.49249   0.44437   0.00000  Uiso   1.00
C44    C     0.56385   0.49571   0.55581   0.00000  Uiso   1.00
C45    C     0.56565   0.50255   0.47665   0.00000  Uiso   1.00
C46    C     0.43479   0.50109   0.52343   0.00000  Uiso   1.00
C47    C     0.50226   0.49752   0.42133   0.00000  Uiso   1.00
C48    C     0.49818   0.49893   0.57878   0.00000  Uiso   1.00
C49    C     0.37416   0.47711   0.38747   0.00000  Uiso   1.00
C50    C     0.62643   0.48428   0.61292   0.00000  Uiso   1.00
C51    C     0.37677   0.47701   0.31019   0.00000  Uiso   1.00
C52    C     0.62367   0.48465   0.69016   0.00000  Uiso   1.00
C53    C     0.37053   0.51456   0.54857   0.00000  Uiso   1.00
C54    C     0.62981   0.51638   0.45129   0.00000  Uiso   1.00
H11    H     0.32742   0.46608   0.26715   0.00000  Uiso   1.00
H12    H     0.67306   0.47639   0.73332   0.00000  Uiso   1.00
H13    H     0.32175   0.45992   0.39982   0.00000  Uiso   1.00
H14    H     0.67911   0.47010   0.60086   0.00000  Uiso   1.00
H15    H     0.31961   0.52988   0.50955   0.00000  Uiso   1.00
H16    H     0.68078   0.53248   0.49008   0.00000  Uiso   1.00
H17    H     0.60789   0.49110   0.83308   0.00000  Uiso   1.00
H18    H     0.39218   0.48502   0.16718   0.00000  Uiso   1.00
N5     N     0.29947   0.53064   0.64549   0.00000  Uiso   1.00
H19    H     0.26786   0.43726   0.61974   0.00000  Uiso   1.00
H20    H     0.27629   0.63460   0.62098   0.00000  Uiso   1.00
N6     N     0.70068   0.53116   0.35415   0.00000  Uiso   1.00
H21    H     0.72376   0.63553   0.37824   0.00000  Uiso   1.00
H22    H     0.73245   0.43823   0.38017   0.00000  Uiso   1.00
N7     N     0.36788   0.50482   0.79195   0.00000  Uiso   1.00
H23    H     0.33693   0.40669   0.77159   0.00000  Uiso   1.00
H24    H     0.34034   0.61014   0.77820   0.00000  Uiso   1.00
N8     N     0.63208   0.50486   0.20782   0.00000  Uiso   1.00
H25    H     0.66347   0.40730   0.22810   0.00000  Uiso   1.00
H26    H     0.65919   0.61070   0.22153   0.00000  Uiso   1.00
