# generated using pymatgen
data_Zn2H37C46N2O8F
_symmetry_space_group_name_H-M   'P 1'
_cell_length_a   14.80280200
_cell_length_b   15.95666900
_cell_length_c   17.48571700
_cell_angle_alpha   90.00673600
_cell_angle_beta   86.39213000
_cell_angle_gamma   90.04398300
_symmetry_Int_Tables_number   1
_chemical_formula_structural   Zn2H37C46N2O8F
_chemical_formula_sum   'Zn2 H37 C46 N2 O8 F1'
_cell_volume   4121.99914917
_cell_formula_units_Z   1
loop_
 _symmetry_equiv_pos_site_id
 _symmetry_equiv_pos_as_xyz
  1  'x, y, z'
loop_
 _atom_site_type_symbol
 _atom_site_label
 _atom_site_symmetry_multiplicity
 _atom_site_fract_x
 _atom_site_fract_y
 _atom_site_fract_z
 _atom_site_occupancy
  Zn  Zn1  1  0.39669300  0.49876600  0.50038600  1
  Zn  Zn2  1  0.60241100  0.49905600  0.49885700  1
  H  H1  1  0.62817400  0.49234500  0.74199800  1
  H  H2  1  0.37092500  0.50550100  0.25725400  1
  H  H3  1  0.66024400  0.50131400  0.25326900  1
  H  H4  1  0.59740200  0.53076900  0.99652200  1
  H  H5  1  0.33179900  0.49249600  0.88501500  1
  H  H6  1  0.37798700  0.51147300  0.11989900  1
  H  H7  1  0.33885600  0.49654800  0.74597600  1
  H  H8  1  0.40169100  0.46713400  0.00272700  1
  H  H9  1  0.62110800  0.48640900  0.87935400  1
  H  H10  1  0.66729800  0.50540100  0.11423200  1
  H  H11  1  0.44735300  0.07083400  0.38657500  1
  H  H12  1  0.45449800  0.92941500  0.38561700  1
  H  H13  1  0.64331200  0.92763600  0.51685700  1
  H  H14  1  0.61552600  0.92414400  0.41876200  1
  H  H15  1  0.60030600  0.05990800  0.40807300  1
  H  H16  1  0.40535200  0.92786500  0.59859100  1
  H  H17  1  0.52277200  0.92990000  0.62067400  1
  H  H18  1  0.40138900  0.06788100  0.59427900  1
  H  H19  1  0.36513100  0.92689700  0.46077300  1
  H  H20  1  0.36284900  0.06804500  0.46520900  1
  H  H21  1  0.51494800  0.07290300  0.62229200  1
  H  H22  1  0.07932600  0.63415900  0.49518400  1
  H  H23  1  0.92901500  0.63167300  0.48020600  1
  H  H24  1  0.93657700  0.41449900  0.40251100  1
  H  H25  1  0.93090700  0.52404600  0.37709900  1
  H  H26  1  0.08206800  0.53836900  0.38274100  1
  H  H27  1  0.08883800  0.42635500  0.39622200  1
  H  H28  1  0.91716100  0.44929400  0.61321800  1
  H  H29  1  0.91663500  0.37072500  0.53884000  1
  H  H30  1  0.06922100  0.43658300  0.61027200  1
  H  H31  1  0.91228800  0.60081500  0.57949800  1
  H  H32  1  0.06299600  0.59078800  0.59050100  1
  H  H33  1  0.06933600  0.36780900  0.52817200  1
  H  H34  1  0.65896100  0.02246900  0.61444100  1
  H  H35  1  0.78562800  0.09391000  0.66733200  1
  H  H36  1  0.83248100  0.23212400  0.46065100  1
  H  H37  1  0.70502500  0.16199500  0.40618300  1
  C  C1  1  0.49874000  0.66268300  0.50093600  1
  C  C2  1  0.48896500  0.49734400  0.64966300  1
  C  C3  1  0.50038200  0.33515400  0.49832100  1
  C  C4  1  0.51013800  0.50048600  0.34958100  1
  C  C5  1  0.48410500  0.49566200  0.73370300  1
  C  C6  1  0.56247900  0.49325700  0.77262600  1
  C  C7  1  0.55827800  0.49094000  0.85159900  1
  C  C8  1  0.47526200  0.49161500  0.89291700  1
  C  C9  1  0.39715200  0.49280500  0.85374400  1
  C  C10  1  0.40129700  0.49521500  0.77479400  1
  C  C11  1  0.44081900  0.50693900  0.14765100  1
  C  C12  1  0.43662000  0.50460100  0.22662400  1
  C  C13  1  0.59780300  0.50265200  0.22445300  1
  C  C14  1  0.60194600  0.50508300  0.14550400  1
  C  C15  1  0.52383400  0.50627800  0.10633200  1
  C  C16  1  0.46623800  0.48804100  0.97733700  1
  C  C17  1  0.53285600  0.50986100  0.02191300  1
  C  C18  1  0.51499600  0.50218700  0.26554300  1
  C  C19  1  0.43369200  0.95145600  0.44424100  1
  C  C20  1  0.59484600  0.95035600  0.47592600  1
  C  C21  1  0.59322900  0.04530000  0.47007600  1
  C  C22  1  0.50030300  0.24527200  0.49834900  1
  C  C23  1  0.50035600  0.91972600  0.50016300  1
  C  C24  1  0.43152900  0.04646900  0.44528700  1
  C  C25  1  0.50034300  0.07812800  0.49907400  1
  C  C26  1  0.47154600  0.04677800  0.57895000  1
  C  C27  1  0.47350600  0.95190700  0.57992300  1
  C  C28  1  0.50032700  0.16977900  0.49861000  1
  C  C29  1  0.49948900  0.82809000  0.50067800  1
  C  C30  1  0.49896100  0.75259200  0.50094000  1
  C  C31  1  0.94615800  0.58411800  0.52319600  1
  C  C32  1  0.95585900  0.47885900  0.41907100  1
  C  C33  1  0.05790100  0.48512700  0.41931800  1
  C  C34  1  0.91443600  0.49852300  0.49848400  1
  C  C35  1  0.04762900  0.58243900  0.52971200  1
  C  C36  1  0.08465300  0.49904000  0.50062200  1
  C  C37  1  0.04601600  0.42922900  0.55157100  1
  C  C38  1  0.94366000  0.43282700  0.55440900  1
  C  C39  1  0.18335900  0.49935300  0.50170200  1
  C  C40  1  0.81574100  0.49832000  0.49745300  1
  C  C41  1  0.67111400  0.08750200  0.50623800  1
  C  C42  1  0.69513900  0.06894700  0.57979100  1
  C  C43  1  0.76740300  0.10891900  0.61002900  1
  C  C44  1  0.81665100  0.16758500  0.56741800  1
  C  C45  1  0.79382400  0.18610900  0.49424100  1
  C  C46  1  0.72180200  0.14608400  0.46366900  1
  N  N1  1  0.26147100  0.49950900  0.50219000  1
  N  N2  1  0.73763000  0.49830100  0.49702500  1
  O  O1  1  0.42062200  0.62377100  0.50165800  1
  O  O2  1  0.57680900  0.62376800  0.49965100  1
  O  O3  1  0.41314000  0.49796900  0.61454400  1
  O  O4  1  0.56912200  0.49757100  0.61301900  1
  O  O5  1  0.42230200  0.37405300  0.49959700  1
  O  O6  1  0.57848000  0.37406100  0.49758600  1
  O  O7  1  0.42998500  0.50025200  0.38622600  1
  O  O8  1  0.58596000  0.49985700  0.38470100  1
  F  F1  1  0.88769900  0.20664600  0.59730500  1
