# generated using pymatgen
data_Fe2H24C53O19
_symmetry_space_group_name_H-M   'P 1'
_cell_length_a   16.79563600
_cell_length_b   14.42345300
_cell_length_c   11.39405600
_cell_angle_alpha   93.96152100
_cell_angle_beta   107.94653600
_cell_angle_gamma   107.74682900
_symmetry_Int_Tables_number   1
_chemical_formula_structural   Fe2H24C53O19
_chemical_formula_sum   'Fe2 H24 C53 O19'
_cell_volume   2460.15528351
_cell_formula_units_Z   1
loop_
 _symmetry_equiv_pos_site_id
 _symmetry_equiv_pos_as_xyz
  1  'x, y, z'
loop_
 _atom_site_type_symbol
 _atom_site_label
 _atom_site_symmetry_multiplicity
 _atom_site_fract_x
 _atom_site_fract_y
 _atom_site_fract_z
 _atom_site_occupancy
  Fe  Fe1  1  0.49405000  0.99425800  0.24570700  1
  Fe  Fe2  1  0.51233500  0.00865900  0.73823300  1
  H  H1  1  0.23578300  0.00740500  0.07804000  1
  H  H2  1  0.07288300  0.02129100  0.71457300  1
  H  H3  1  0.18865600  0.01570800  0.63277700  1
  H  H4  1  0.95321900  0.05013400  0.29501200  1
  H  H5  1  0.82976000  0.03868000  0.36663900  1
  H  H6  1  0.04735600  0.13258000  0.85318400  1
  H  H7  1  0.93612000  0.14555300  0.94231500  1
  H  H8  1  0.98272400  0.92649900  0.16150200  1
  H  H9  1  0.09355100  0.91287300  0.07269200  1
  H  H10  1  0.60436700  0.34704700  0.82822200  1
  H  H11  1  0.62327500  0.50771100  0.92238800  1
  H  H12  1  0.43208000  0.21535000  0.20029800  1
  H  H13  1  0.39906200  0.33309200  0.07673100  1
  H  H14  1  0.56953600  0.78505300  0.78088600  1
  H  H15  1  0.41442500  0.66039800  0.15366400  1
  H  H16  1  0.48107900  0.60447200  0.89926900  1
  H  H17  1  0.53107000  0.72831900  0.99088900  1
  H  H18  1  0.55524400  0.62612000  0.05933400  1
  H  H19  1  0.26905600  0.53068200  0.97561400  1
  H  H20  1  0.26986900  0.44673300  0.08676300  1
  H  H21  1  0.25217200  0.40210200  0.92581700  1
  H  H22  1  0.74781300  0.86578300  0.92529900  1
  H  H23  1  0.83049600  0.90114300  0.85012600  1
  H  H24  1  0.71574700  0.87906100  0.76286300  1
  C  C1  1  0.29143600  0.00535600  0.93477100  1
  C  C2  1  0.22383800  0.00560700  0.97904900  1
  C  C3  1  0.14568600  0.01320800  0.90224200  1
  C  C4  1  0.13417700  0.01704300  0.77754900  1
  C  C5  1  0.20030400  0.01356800  0.73106300  1
  C  C6  1  0.28013000  0.00858000  0.80870700  1
  C  C7  1  0.03305500  0.08613000  0.91981900  1
  C  C8  1  0.97048500  0.09414700  0.97116100  1
  C  C9  1  0.95146500  0.03666900  0.05789400  1
  C  C10  1  0.99787700  0.97348500  0.09573000  1
  C  C11  1  0.06054600  0.96554900  0.04467200  1
  C  C12  1  0.07793300  0.02097500  0.95525500  1
  C  C13  1  0.88881400  0.04087300  0.22711600  1
  C  C14  1  0.81818000  0.03434500  0.26744800  1
  C  C15  1  0.73453900  0.02243900  0.18333300  1
  C  C16  1  0.72332700  0.01795000  0.05574400  1
  C  C17  1  0.79450900  0.02298100  0.01618200  1
  C  C18  1  0.87767600  0.03599900  0.10162300  1
  C  C19  1  0.66183600  0.01572700  0.23374100  1
  C  C20  1  0.49683500  0.81838800  0.32548100  1
  C  C21  1  0.37504700  0.00988000  0.02847300  1
  C  C22  1  0.47900100  0.14357500  0.39016100  1
  C  C23  1  0.52722700  0.85920300  0.59008700  1
  C  C24  1  0.63760600  0.00243100  0.95750100  1
  C  C25  1  0.51632700  0.18465900  0.65815600  1
  C  C26  1  0.34933900  0.00640700  0.75458100  1
  C  C27  1  0.49313700  0.24219900  0.45251900  1
  C  C28  1  0.51920500  0.26483800  0.58239300  1
  C  C29  1  0.53914600  0.36245300  0.63817400  1
  C  C30  1  0.57948500  0.39329400  0.76697800  1
  C  C31  1  0.59297700  0.48713300  0.82160400  1
  C  C32  1  0.44457900  0.28758000  0.24967300  1
  C  C33  1  0.47670700  0.31215900  0.37946800  1
  C  C34  1  0.48948900  0.40624100  0.43543700  1
  C  C35  1  0.42488300  0.35529500  0.17749700  1
  C  C36  1  0.43813700  0.44912700  0.23318800  1
  C  C37  1  0.52167600  0.43173100  0.56443000  1
  C  C38  1  0.53541000  0.52663600  0.61979000  1
  C  C39  1  0.56877300  0.55305300  0.74874800  1
  C  C40  1  0.57946300  0.64601500  0.80466500  1
  C  C41  1  0.47142900  0.47537300  0.36220900  1
  C  C42  1  0.48630100  0.57055100  0.41761200  1
  C  C43  1  0.51685200  0.59559100  0.54656300  1
  C  C44  1  0.52835700  0.68933700  0.60241900  1
  C  C45  1  0.55836900  0.71312400  0.73211100  1
  C  C46  1  0.41659100  0.51619700  0.15997700  1
  C  C47  1  0.43427400  0.61151400  0.21484600  1
  C  C48  1  0.47203000  0.64077600  0.34403000  1
  C  C49  1  0.49234200  0.73812200  0.40016800  1
  C  C50  1  0.51437700  0.76015800  0.52928900  1
  C  C51  1  0.54179900  0.65746200  0.97215600  1
  C  C52  1  0.28830800  0.46633900  0.00396000  1
  C  C53  1  0.76820400  0.90899400  0.85621100  1
  O  O1  1  0.58208400  0.00837300  0.15994300  1
  O  O2  1  0.53107900  0.81854400  0.23634300  1
  O  O3  1  0.67663600  0.01590600  0.35379300  1
  O  O4  1  0.47424400  0.89421200  0.35393100  1
  O  O5  1  0.37345700  0.95124500  0.11141500  1
  O  O6  1  0.44806000  0.08470600  0.04575300  1
  O  O7  1  0.54235000  0.12759300  0.35604800  1
  O  O8  1  0.39948100  0.07549200  0.35306200  1
  O  O9  1  0.46843900  0.87188400  0.63763000  1
  O  O10  1  0.59948200  0.93380400  0.60330500  1
  O  O11  1  0.63312200  0.06009200  0.87298600  1
  O  O12  1  0.56903000  0.92265300  0.94215200  1
  O  O13  1  0.33704100  0.01648300  0.63737600  1
  O  O14  1  0.52818200  0.10282300  0.62180400  1
  O  O15  1  0.42369600  0.99558300  0.82285100  1
  O  O16  1  0.49217000  0.19023200  0.75676100  1
  O  O17  1  0.61484500  0.67409700  0.93229800  1
  O  O18  1  0.37997600  0.48967700  0.03217900  1
  O  O19  1  0.78060700  0.00880900  0.89031800  1
