# Generated by REPEAT Assigner based on pymatgen
data_DB0-m3_o19_o21_f0_pcu.sym.22_sqe
_audit_creation_date              2022-05-24
_audit_creation_method            REPEAT_Assigner
_cell_length_a                    10.781070
_cell_length_b                    11.917528
_cell_length_c                    14.082446
_cell_angle_alpha                 90.000000
_cell_angle_beta                  85.384598
_cell_angle_gamma                 90.000000
_cell_volume                      1803.497533
_symmetry_space_group_name_H-M    P1
_symmetry_Int_Tables_number       1
loop_
    _symmetry_equiv_pos_site_id
    _symmetry_equiv_pos_as_xyz
    1  x,y,z
loop_
    _atom_site_type_symbol
    _atom_site_label
    _atom_site_fract_x
    _atom_site_fract_y
    _atom_site_fract_z
    _atom_type_partial_charge
    O   O1   0.393913  0.690046  0.499669  -0.684941
    O   O2   0.608277  0.355728  0.501257  -0.690043
    O   O3   0.608245  0.690084  0.501001  -0.685489
    O   O4   0.393831  0.355691  0.500049  -0.687799
    C   C1   0.501074  0.742133  0.500299  0.910550
    C   C2   0.501059  0.303658  0.500695  0.928335
    O   O5   0.378063  0.522951  0.641769  -0.608808
    O   O6   0.624033  0.522635  0.359233  -0.600811
    O   O7   0.592445  0.522937  0.643086  -0.629304
    O   O8   0.409714  0.522477  0.357881  -0.628868
    C   C3   0.480116  0.522947  0.686645  0.766974
    C   C4   0.522068  0.522388  0.314307  0.758074
    Zn  Zn1  0.359753  0.522872  0.499710  1.068370
    Zn  Zn2  0.642380  0.522914  0.501271  1.065895
    C   C5   0.534204  0.517874  0.212083  -0.208484
    C   C6   0.468278  0.519211  0.788850  -0.206659
    C   C7   0.552878  0.503821  0.023900  0.014541
    C   C8   0.450006  0.506691  0.977043  0.044488
    C   C9   0.459254  0.514302  0.874630  -0.041008
    C   C10  0.543652  0.512238  0.126310  -0.025809
    C   C11  0.501055  0.862544  0.500349  -0.251957
    C   C12  0.501077  0.183247  0.500651  -0.279517
    C   C13  0.501060  0.963655  0.500439  0.054131
    C   C14  0.501073  0.082135  0.500563  0.075210
    N   N1   0.827886  0.522948  0.501895  -0.100937
    N   N2   0.174249  0.522895  0.499069  -0.100725
    C   C15  0.935392  0.522957  0.501085  0.254717
    C   C16  0.066741  0.522934  0.499897  0.250732
    C   C17  0.327005  0.508109  0.029346  0.121094
    C   C18  0.249828  0.599328  0.022314  -0.101429
    C   C19  0.134215  0.600656  0.071787  -0.343251
    C   C20  0.093020  0.509747  0.126272  0.470037
    O   O9   0.978142  0.514040  0.172053  -0.343861
    C   C21  0.925710  0.428040  0.226354  0.107082
    C   C22  0.170072  0.417134  0.131909  -0.255134
    C   C23  0.286493  0.416889  0.083706  -0.125005
    H   H1   0.280652  0.670926  0.979567  0.116327
    H   H2   0.075062  0.673393  0.067545  0.163932
    H   H3   0.830989  0.453091  0.254732  0.053795
    H   H4   0.982112  0.410596  0.287185  -0.008737
    H   H5   0.918136  0.351849  0.181918  0.018007
    H   H6   0.142327  0.343752  0.173292  0.129663
    H   H7   0.345713  0.344153  0.087988  0.112699
    C   C24  0.675880  0.498416  0.971627  0.110960
    C   C25  0.759332  0.584953  0.978696  -0.052569
    C   C26  0.874461  0.580389  0.928615  -0.368920
    C   C27  0.908904  0.488171  0.873352  0.472691
    O   O10  0.023276  0.487001  0.826510  -0.340695
    C   C28  0.068998  0.399746  0.770400  0.073217
    C   C29  0.825683  0.400040  0.867885  -0.251718
    C   C30  0.709794  0.405703  0.916750  -0.137946
    H   H8   0.733740  0.657730  0.021726  0.101458
    H   H9   0.938330  0.649766  0.932571  0.171158
    H   H10  0.164754  0.420393  0.741051  0.067235
    H   H11  0.010151  0.386948  0.710208  0.002739
    H   H12  0.072549  0.322128  0.813602  0.026328
    H   H13  0.848086  0.325816  0.825991  0.130636
    H   H14  0.645648  0.336507  0.912386  0.119348
