# generated using pymatgen
data_CuH9C18NO5
_symmetry_space_group_name_H-M   'P 1'
_cell_length_a   12.98058500
_cell_length_b   16.04105800
_cell_length_c   14.62198700
_cell_angle_alpha   90.00927000
_cell_angle_beta   95.52376400
_cell_angle_gamma   89.99666200
_symmetry_Int_Tables_number   1
_chemical_formula_structural   CuH9C18NO5
_chemical_formula_sum   'Cu2 H18 C36 N2 O10'
_cell_volume   3030.48582921
_cell_formula_units_Z   2
loop_
 _symmetry_equiv_pos_site_id
 _symmetry_equiv_pos_as_xyz
  1  'x, y, z'
loop_
 _atom_site_type_symbol
 _atom_site_label
 _atom_site_symmetry_multiplicity
 _atom_site_fract_x
 _atom_site_fract_y
 _atom_site_fract_z
 _atom_site_occupancy
  Cu  Cu1  1  0.49577600  0.50406900  0.59119700  1
  Cu  Cu2  1  0.49470200  0.50380300  0.40817900  1
  H  H1  1  0.82045000  0.49933800  0.38016200  1
  H  H2  1  0.17002700  0.50856800  0.61921200  1
  H  H3  1  0.82250500  0.51004200  0.67284700  1
  H  H4  1  0.16798000  0.49779700  0.32652900  1
  H  H5  1  0.97986500  0.49703200  0.31193300  1
  H  H6  1  0.01061500  0.51083500  0.68744200  1
  H  H7  1  0.49552800  0.08057800  0.64543200  1
  H  H8  1  0.49506800  0.92727300  0.35394400  1
  H  H9  1  0.49516000  0.92722200  0.64533700  1
  H  H10  1  0.49543500  0.08063000  0.35403800  1
  H  H11  1  0.61699000  0.59014900  0.09783800  1
  H  H12  1  0.38133500  0.41107000  0.90223700  1
  H  H13  1  0.70995600  0.50705400  0.84661500  1
  H  H14  1  0.79715600  0.59081500  0.88138900  1
  H  H15  1  0.69790600  0.60678800  0.78765000  1
  H  H16  1  0.47777200  0.33201700  0.17001500  1
  H  H17  1  0.36871700  0.26696300  0.13331800  1
  H  H18  1  0.35476000  0.34790700  0.21718600  1
  C  C1  1  0.49565800  0.34392800  0.49962300  1
  C  C2  1  0.49478800  0.66393400  0.49974600  1
  C  C3  1  0.29619500  0.50362300  0.48325700  1
  C  C4  1  0.69428800  0.50427500  0.51611900  1
  C  C5  1  0.80786200  0.50463100  0.52528800  1
  C  C6  1  0.18261800  0.50326400  0.47408700  1
  C  C7  1  0.02148100  0.49957700  0.37956100  1
  C  C8  1  0.96899900  0.50830300  0.61981300  1
  C  C9  1  0.12817100  0.50002700  0.38806600  1
  C  C10  1  0.86230900  0.50784600  0.61131000  1
  C  C11  1  0.12902100  0.50603900  0.55137600  1
  C  C12  1  0.86145800  0.50186000  0.44799800  1
  C  C13  1  0.02215500  0.50556000  0.54260900  1
  C  C14  1  0.96832400  0.50233100  0.45676400  1
  C  C15  1  0.49522000  0.96093000  0.58133400  1
  C  C16  1  0.49538500  0.04692300  0.41804200  1
  C  C17  1  0.49507600  0.91796200  0.49963300  1
  C  C18  1  0.49551800  0.08989200  0.49974200  1
  C  C19  1  0.49516900  0.96095800  0.41798700  1
  C  C20  1  0.49543600  0.04689500  0.58138900  1
  C  C21  1  0.49488800  0.82850700  0.49958900  1
  C  C22  1  0.49565300  0.17934900  0.49978300  1
  C  C23  1  0.49570200  0.25446900  0.49976100  1
  C  C24  1  0.49479000  0.75339000  0.49960900  1
  C  C25  1  0.57057500  0.55032500  0.96059700  1
  C  C26  1  0.43300800  0.44640100  0.03993500  1
  C  C27  1  0.50248300  0.50061400  0.90580800  1
  C  C28  1  0.49856000  0.49828100  0.09449400  1
  C  C29  1  0.43380900  0.44971800  0.94568400  1
  C  C30  1  0.56603000  0.55021000  0.05451800  1
  C  C31  1  0.49879800  0.50287300  0.80733000  1
  C  C32  1  0.49571600  0.50158400  0.19239600  1
  C  C33  1  0.64482700  0.60624000  0.92168400  1
  C  C34  1  0.71641500  0.57559800  0.85491700  1
  C  C35  1  0.35904400  0.39025400  0.07889100  1
  C  C36  1  0.39245500  0.33098200  0.15483200  1
  N  N1  1  0.49426600  0.50367800  0.27136300  1
  N  N2  1  0.49637100  0.50406000  0.72802600  1
  O  O1  1  0.49967700  0.38293300  0.57851500  1
  O  O2  1  0.49081900  0.62494200  0.42082200  1
  O  O3  1  0.49142800  0.38264300  0.42058800  1
  O  O4  1  0.49902100  0.62523200  0.57881700  1
  O  O5  1  0.34531600  0.50671600  0.56580300  1
  O  O6  1  0.64515600  0.50114000  0.43360800  1
  O  O7  1  0.34434300  0.50065900  0.40856300  1
  O  O8  1  0.64612800  0.50723500  0.59077900  1
  O  O9  1  0.65545800  0.67712000  0.95120500  1
  O  O10  1  0.27062600  0.38599300  0.04258300  1
