# Generated by REPEAT Assigner based on pymatgen
data_DB0-m9_o17_o23_f0_sra.sym.5_sqe
_audit_creation_date              2022-05-24
_audit_creation_method            REPEAT_Assigner
_cell_length_a                    22.715051
_cell_length_b                    6.154238
_cell_length_c                    19.977949
_cell_angle_alpha                 90.000000
_cell_angle_beta                  94.099867
_cell_angle_gamma                 90.000000
_cell_volume                      2785.647307
_symmetry_space_group_name_H-M    P1
_symmetry_Int_Tables_number       1
loop_
    _symmetry_equiv_pos_site_id
    _symmetry_equiv_pos_as_xyz
    1  x,y,z
loop_
    _atom_site_type_symbol
    _atom_site_label
    _atom_site_fract_x
    _atom_site_fract_y
    _atom_site_fract_z
    _atom_type_partial_charge
    O  O1    0.433948  0.508083  0.453234  -0.585451
    O  O2    0.566052  0.008083  0.546766  -0.585465
    O  O3    0.553480  0.875466  0.415598  -0.568268
    O  O4    0.446520  0.375466  0.584401  -0.568272
    C  C1    0.576691  0.678054  0.415865  0.742596
    C  C2    0.423309  0.178054  0.584135  0.742617
    O  O5    0.432935  0.875581  0.417088  -0.535899
    O  O6    0.567065  0.375581  0.582912  -0.535900
    O  O7    0.438960  0.008343  0.548336  -0.604288
    O  O8    0.561040  0.508343  0.451663  -0.604274
    C  C3    0.411871  0.675838  0.418262  0.670425
    C  C4    0.588129  0.175838  0.581738  0.670433
    O  O9    0.504190  0.733867  0.543140  -0.319424
    O  O10   0.495811  0.233867  0.456860  -0.319411
    V  V1    0.497743  0.973806  0.480978  1.293829
    V  V2    0.502257  0.473806  0.519021  1.294097
    C  C5    0.825501  0.774456  0.848802  -0.179352
    C  C6    0.174499  0.274456  0.151198  -0.179363
    C  C7    0.866284  0.934923  0.864868  0.008258
    C  C8    0.133716  0.434923  0.135132  0.008268
    C  C9    0.862333  0.133154  0.832901  -0.334442
    C  C10   0.137667  0.633154  0.167098  -0.334441
    C  C11   0.818256  0.168858  0.783233  0.268695
    C  C12   0.181744  0.668858  0.216767  0.268700
    C  C13   0.776579  0.010180  0.768167  0.000625
    C  C14   0.223421  0.510180  0.231832  0.000608
    C  C15   0.779740  0.813907  0.801561  0.136193
    C  C16   0.220260  0.313907  0.198439  0.136211
    C  C17   0.817508  0.358908  0.746634  -0.108360
    C  C18   0.182492  0.858908  0.253366  -0.108385
    C  C19   0.774140  0.392560  0.695789  -0.343707
    C  C20   0.225860  0.892560  0.304211  -0.343675
    C  C21   0.729065  0.242770  0.685472  0.557899
    C  C22   0.270935  0.742770  0.314528  0.557865
    C  C23   0.731800  0.047620  0.719547  -0.297440
    C  C24   0.268200  0.547620  0.280453  -0.297411
    C  C25   0.689968  0.889192  0.704722  0.315773
    C  C26   0.310032  0.389192  0.295278  0.315756
    C  C27   0.693349  0.692404  0.737681  -0.309060
    C  C28   0.306651  0.192404  0.262319  -0.309045
    C  C29   0.738357  0.654594  0.786153  -0.128623
    C  C30   0.261643  0.154594  0.213847  -0.128636
    C  C31   0.680509  0.288479  0.642418  -0.313592
    C  C32   0.319491  0.788479  0.357582  -0.313579
    C  C33   0.638787  0.129984  0.627831  -0.064750
    C  C34   0.361213  0.629984  0.372169  -0.064757
    C  C35   0.644562  0.927921  0.657006  -0.206229
    C  C36   0.355438  0.427921  0.342994  -0.206223
    H  H1    0.828976  0.618926  0.873918  0.114522
    H  H2    0.171024  0.118926  0.126082  0.114524
    H  H3    0.895308  0.256655  0.844642  0.174893
    H  H4    0.104692  0.756655  0.155358  0.174892
    H  H5    0.852623  0.475911  0.755793  0.067580
    H  H6    0.147377  0.975912  0.244207  0.067589
    H  H7    0.674108  0.448947  0.621140  0.177515
    H  H8    0.325892  0.948947  0.378860  0.177514
    H  H9    0.611657  0.804177  0.645265  0.129264
    H  H10   0.388343  0.304177  0.354735  0.129258
    H  H11   0.660610  0.568277  0.725676  0.131952
    H  H12   0.339390  0.068278  0.274324  0.131950
    H  H13   0.741254  0.500239  0.812002  0.092329
    H  H14   0.258746  0.000238  0.187998  0.092335
    C  C37   0.240078  0.223070  0.808261  0.010810
    C  C38   0.759922  0.723070  0.191739  0.010852
    C  C39   0.258404  0.825396  0.802409  -0.143161
    C  C40   0.741596  0.325396  0.197591  -0.143148
    C  C41   0.307962  0.865664  0.756778  -0.003350
    C  C42   0.692038  0.365664  0.243222  -0.003368
    H  H15   0.330358  0.297076  0.791155  -0.054686
    H  H16   0.669642  0.797076  0.208844  -0.054676
    H  H17   0.258430  0.228392  0.861126  -0.043238
    H  H18   0.741570  0.728392  0.138874  -0.043252
    H  H19   0.236955  0.668348  0.788429  0.056983
    H  H20   0.763045  0.168348  0.211571  0.056986
    H  H21   0.309938  0.725284  0.722206  0.025202
    H  H22   0.690062  0.225285  0.277794  0.025203
    C  C43   0.378548  0.139738  0.630490  -0.145983
    C  C44   0.621452  0.639738  0.369510  -0.145962
    C  C45   0.212289  0.003248  0.793294  0.510271
    C  C46   0.787711  0.503248  0.206706  0.510232
    C  C47   0.288433  0.264376  0.761205  -0.054276
    C  C48   0.711567  0.764376  0.238795  -0.054312
    C  C49   0.294365  0.069452  0.715443  0.446283
    C  C50   0.705635  0.569452  0.284557  0.446329
    C  C51   0.236094  0.036514  0.674716  -0.182841
    C  C52   0.763906  0.536514  0.325284  -0.182845
    C  C53   0.186942  0.001217  0.721155  -0.176343
    C  C54   0.813058  0.501217  0.278845  -0.176339
    C  C55   0.340695  0.107890  0.668970  -0.284963
    C  C56   0.659305  0.607890  0.331030  -0.284992
    C  C57   0.164992  0.964088  0.838435  -0.303650
    C  C58   0.835008  0.464088  0.161565  -0.303630
    C  C59   0.126208  0.931397  0.875650  -0.149286
    C  C60   0.873792  0.431397  0.124350  -0.149300
    H  H23   0.153819  0.132932  0.713567  0.045956
    H  H24   0.846181  0.632932  0.286433  0.045955
    H  H25   0.165490  0.842276  0.709805  0.047758
    H  H26   0.834510  0.342276  0.290195  0.047759
    H  H27   0.226046  0.182177  0.643273  0.069858
    H  H28   0.773954  0.682177  0.356727  0.069858
    H  H29   0.205827  0.350828  0.800586  0.002886
    H  H30   0.794173  0.850828  0.199414  0.002881
    H  H31   0.276637  0.409218  0.730049  0.013724
    H  H32   0.723363  0.909218  0.269951  0.013726
    H  H33   0.239414  0.892489  0.641841  0.064612
    H  H34   0.760586  0.392489  0.358159  0.064611
    O  O11   0.937291  0.561140  0.045051  -0.554977
    O  O12   0.062709  0.061140  0.954949  -0.554974
    O  O13   0.063589  0.192376  0.085810  -0.524723
    O  O14   0.936411  0.692376  0.914190  -0.524723
    C  C61   0.085056  0.391691  0.086014  0.619372
    C  C62   0.914944  0.891691  0.913986  0.619373
    O  O15   0.942742  0.193757  0.081036  -0.546189
    O  O16   0.057258  0.693757  0.918963  -0.546183
    O  O17   0.935308  0.060399  0.949816  -0.550485
    O  O18   0.064692  0.560399  0.050184  -0.550488
    C  C63   0.919910  0.391748  0.079830  0.705635
    C  C64   0.080090  0.891748  0.920170  0.705622
    O  O19   0.998111  0.334689  0.956855  -0.356626
    O  O20   0.001889  0.834689  0.043145  -0.356622
    V  V3    0.001142  0.094409  0.018874  1.288559
    V  V4    0.998858  0.594409  0.981126  1.288614
    C  C65   0.282020  0.812665  0.873792  0.065992
    C  C66   0.322516  0.962736  0.900119  0.011752
    C  C67   0.343993  0.947645  0.966293  -0.210378
    C  C68   0.325199  0.782463  0.006211  -0.045918
    C  C69   0.285115  0.631594  0.979864  -0.176036
    C  C70   0.263686  0.646431  0.913689  -0.096116
    H  H35   0.338255  0.090632  0.869069  0.123084
    H  H36   0.375757  0.065062  0.986820  0.109374
    H  H37   0.342077  0.770749  0.058063  0.097443
    H  H38   0.270506  0.501595  0.011074  0.089535
    H  H39   0.232223  0.528037  0.893115  0.110398
    C  C71   0.717980  0.312665  0.126208  0.065962
    C  C72   0.677484  0.462736  0.099880  0.011821
    C  C73   0.656007  0.447646  0.033706  -0.210418
    C  C74   0.674801  0.282464  0.993789  -0.045928
    C  C75   0.714885  0.131594  0.020136  -0.176026
    C  C76   0.736314  0.146431  0.086310  -0.096109
    H  H40   0.661745  0.590632  0.130931  0.123064
    H  H41   0.624243  0.565062  0.013180  0.109384
    H  H42   0.657923  0.270749  0.941937  0.097462
    H  H43   0.729494  0.001595  0.988926  0.089532
    H  H44   0.767777  0.028037  0.106885  0.110394
    C  C77   0.365344  0.879521  0.798006  -0.011939
    C  C78   0.406115  0.041570  0.788384  -0.074336
    C  C79   0.458667  0.047381  0.827479  -0.182684
    C  C80   0.470903  0.891509  0.876000  -0.060272
    C  C81   0.430704  0.728543  0.885183  -0.101083
    C  C82   0.378187  0.722312  0.846125  -0.161175
    H  H45   0.398245  0.163051  0.749959  0.146193
    H  H46   0.490465  0.174056  0.819826  0.095332
    H  H47   0.512140  0.896345  0.906530  0.092223
    H  H48   0.440373  0.605366  0.922951  0.085197
    H  H49   0.346853  0.593688  0.853336  0.171580
    C  C83   0.634656  0.379521  0.201994  -0.011926
    C  C84   0.593885  0.541571  0.211616  -0.074341
    C  C85   0.541333  0.547381  0.172521  -0.182685
    C  C86   0.529097  0.391509  0.124000  -0.060278
    C  C87   0.569296  0.228543  0.114817  -0.101082
    C  C88   0.621813  0.222312  0.153875  -0.161185
    H  H50   0.601755  0.663051  0.250041  0.146193
    H  H51   0.509535  0.674057  0.180174  0.095335
    H  H52   0.487860  0.396346  0.093470  0.092229
    H  H53   0.559627  0.105366  0.077049  0.085197
    H  H54   0.653147  0.093688  0.146664  0.171584
    C  C89   0.778861  0.576007  0.649823  0.409105
    C  C90   0.809219  0.761166  0.670648  -0.363065
    C  C91   0.814556  0.932118  0.626874  -0.022921
    C  C92   0.790932  0.916425  0.561587  -0.116678
    C  C93   0.763193  0.727683  0.539678  -0.094486
    C  C94   0.757659  0.556906  0.583475  -0.235496
    H  H55   0.829157  0.773151  0.721128  0.198332
    H  H56   0.837716  0.077891  0.643639  0.042922
    H  H57   0.795461  0.049912  0.527164  0.089797
    H  H58   0.746614  0.712138  0.487822  0.083130
    H  H59   0.739575  0.404634  0.564433  0.114412
    C  C95   0.221139  0.076007  0.350177  0.409084
    C  C96   0.190781  0.261166  0.329352  -0.363049
    C  C97   0.185444  0.432118  0.373126  -0.022929
    C  C98   0.209068  0.416425  0.438412  -0.116661
    C  C99   0.236807  0.227683  0.460322  -0.094502
    C  C100  0.242341  0.056906  0.416525  -0.235484
    H  H60   0.170843  0.273151  0.278872  0.198322
    H  H61   0.162284  0.577891  0.356361  0.042925
    H  H62   0.204539  0.549912  0.472836  0.089789
    H  H63   0.253386  0.212138  0.512178  0.083135
    H  H64   0.260426  0.904635  0.435567  0.114410
