# generated using pymatgen
data_Cu2H16C32N3O8
_symmetry_space_group_name_H-M   'P 1'
_cell_length_a   17.45818900
_cell_length_b   29.18743300
_cell_length_c   17.45197100
_cell_angle_alpha   72.73732300
_cell_angle_beta   90.00478000
_cell_angle_gamma   107.32100600
_symmetry_Int_Tables_number   1
_chemical_formula_structural   Cu2H16C32N3O8
_chemical_formula_sum   'Cu4 H32 C64 N6 O16'
_cell_volume   8069.04042497
_cell_formula_units_Z   2
loop_
 _symmetry_equiv_pos_site_id
 _symmetry_equiv_pos_as_xyz
  1  'x, y, z'
loop_
 _atom_site_type_symbol
 _atom_site_label
 _atom_site_symmetry_multiplicity
 _atom_site_fract_x
 _atom_site_fract_y
 _atom_site_fract_z
 _atom_site_occupancy
  Cu  Cu1  1  0.00022600  0.02427700  0.55998000  1
  Cu  Cu2  1  0.99929500  0.98409100  0.44978200  1
  Cu  Cu3  1  0.65600300  0.33635000  0.90454100  1
  Cu  Cu4  1  0.69474600  0.37587200  0.75464300  1
  H  H1  1  0.20356600  0.02054500  0.67053600  1
  H  H2  1  0.27112400  0.99682200  0.45305400  1
  H  H3  1  0.34212400  0.04728400  0.69606600  1
  H  H4  1  0.41191100  0.02181600  0.48113600  1
  H  H5  1  0.70460600  0.96205500  0.48918600  1
  H  H6  1  0.86237800  0.11118600  0.45010300  1
  H  H7  1  0.59464500  0.98645800  0.53424700  1
  H  H8  1  0.75518500  0.13482500  0.50058500  1
  H  H9  1  0.51512700  0.18829400  0.83765400  1
  H  H10  1  0.75031100  0.24676900  0.71305800  1
  H  H11  1  0.47915200  0.12375900  0.76932800  1
  H  H12  1  0.71636800  0.18214900  0.64674200  1
  H  H13  1  0.95366600  0.36285200  0.77058000  1
  H  H14  1  0.86303000  0.33970100  0.01155000  1
  H  H15  1  0.06941600  0.33764700  0.82347600  1
  H  H16  1  0.97478400  0.31274300  0.06362000  1
  H  H17  1  0.00738100  0.17205900  0.34554600  1
  H  H18  1  0.18309500  0.11266400  0.27899800  1
  H  H19  1  0.03577300  0.23642700  0.21299600  1
  H  H20  1  0.21363100  0.17714400  0.14837000  1
  H  H21  1  0.42148100  0.39776400  0.77216900  1
  H  H22  1  0.43197300  0.24899300  0.88202200  1
  H  H23  1  0.28711600  0.37311400  0.84131700  1
  H  H24  1  0.30108600  0.22510400  0.95580000  1
  H  H25  1  0.74295900  0.57565900  0.96002400  1
  H  H26  1  0.70521900  0.48624100  0.96668700  1
  H  H27  1  0.75658500  0.53222700  0.71058300  1
  H  H28  1  0.79353100  0.61995000  0.70544600  1
  H  H29  1  0.84762200  0.78574300  0.85474800  1
  H  H30  1  0.89937500  0.87499300  0.77193700  1
  H  H31  1  0.90537300  0.82798900  0.56255700  1
  H  H32  1  0.85451800  0.74044300  0.64519400  1
  C  C1  1  0.06460600  0.09124800  0.39180900  1
  C  C2  1  0.14475900  0.00356900  0.53803800  1
  C  C3  1  0.93927900  0.91199500  0.60688400  1
  C  C4  1  0.86117300  0.01870300  0.47884500  1
  C  C5  1  0.47189200  0.05911700  0.60151600  1
  C  C6  1  0.57163900  0.11255600  0.65349900  1
  C  C7  1  0.60718600  0.07350100  0.56516800  1
  C  C8  1  0.32756200  0.03558400  0.64320000  1
  C  C9  1  0.24836900  0.02023400  0.62815900  1
  C  C10  1  0.22720400  0.00733300  0.55897000  1
  C  C11  1  0.28619900  0.00611800  0.50782900  1
  C  C12  1  0.36606400  0.02071400  0.52383000  1
  C  C13  1  0.38713400  0.03730300  0.59008700  1
  C  C14  1  0.65258300  0.01483500  0.51246400  1
  C  C15  1  0.71418400  0.00110900  0.48484100  1
  C  C16  1  0.79043800  0.03551200  0.46335300  1
  C  C17  1  0.80229200  0.08440700  0.46400800  1
  C  C18  1  0.74223500  0.09750600  0.49467900  1
  C  C19  1  0.66793700  0.06215100  0.52217400  1
  C  C20  1  0.53984200  0.14966300  0.75815700  1
  C  C21  1  0.56054100  0.18577600  0.79837800  1
  C  C22  1  0.63630800  0.22140100  0.78240100  1
  C  C23  1  0.69149200  0.21860500  0.72831000  1
  C  C24  1  0.67185800  0.18185900  0.69004600  1
  C  C25  1  0.59493500  0.14785100  0.70235700  1
  C  C26  1  0.70720400  0.44859900  0.83895400  1
  C  C27  1  0.82091800  0.35656400  0.86227100  1
  C  C28  1  0.65321800  0.26880700  0.80368400  1
  C  C29  1  0.52225300  0.34155600  0.81836900  1
  C  C30  1  0.09241300  0.30054700  0.98088600  1
  C  C31  1  0.21340900  0.28614700  0.95895400  1
  C  C32  1  0.13888800  0.24712600  0.08600700  1
  C  C33  1  0.02481200  0.33891600  0.86505200  1
  C  C34  1  0.95957100  0.35363100  0.83456400  1
  C  C35  1  0.89955800  0.35264700  0.88690000  1
  C  C36  1  0.90798200  0.33983700  0.96887300  1
  C  C37  1  0.97178400  0.32435700  0.99915200  1
  C  C38  1  0.02945000  0.32242500  0.94776800  1
  C  C39  1  0.07036700  0.21034400  0.22756500  1
  C  C40  1  0.05505000  0.17432300  0.30371900  1
  C  C41  1  0.09495800  0.13849200  0.32316200  1
  C  C42  1  0.15261200  0.14098200  0.26624200  1
  C  C43  1  0.16965800  0.17765200  0.19141800  1
  C  C44  1  0.12697700  0.21187800  0.16993900  1
  C  C45  1  0.31708300  0.34485100  0.84794000  1
  C  C46  1  0.39242700  0.35871600  0.80677700  1
  C  C47  1  0.43477900  0.32448900  0.81970400  1
  C  C48  1  0.39826400  0.27561900  0.86912600  1
  C  C49  1  0.32506400  0.26238500  0.91269400  1
  C  C50  1  0.28557700  0.29757700  0.90479500  1
  C  C51  1  0.74577900  0.56595100  0.90517500  1
  C  C52  1  0.72428400  0.51521800  0.90895000  1
  C  C53  1  0.72775300  0.50192500  0.83933900  1
  C  C54  1  0.75285600  0.54056200  0.76650900  1
  C  C55  1  0.77409600  0.59081900  0.76300900  1
  C  C56  1  0.77101600  0.60415900  0.83204400  1
  C  C57  1  0.79424700  0.65746200  0.82669700  1
  C  C58  1  0.81732100  0.70354100  0.80362800  1
  C  C59  1  0.86031000  0.79519200  0.79034100  1
  C  C60  1  0.88959700  0.84583000  0.74335100  1
  C  C61  1  0.90653900  0.85879000  0.66063500  1
  C  C62  1  0.89316200  0.81992000  0.62666500  1
  C  C63  1  0.86410100  0.76975900  0.67345200  1
  C  C64  1  0.84747500  0.75674900  0.75563900  1
  N  N1  1  0.49313500  0.08953000  0.64839900  1
  N  N2  1  0.62858800  0.10481100  0.61066700  1
  N  N3  1  0.52904900  0.05101000  0.56088700  1
  N  N4  1  0.15766600  0.30863000  0.93227100  1
  N  N5  1  0.20359400  0.25485400  0.03555400  1
  N  N6  1  0.08334000  0.27016500  0.05797700  1
  O  O1  1  0.04394000  0.08923100  0.46632900  1
  O  O2  1  0.05387800  0.04929800  0.37479900  1
  O  O3  1  0.10682700  0.02422500  0.57510900  1
  O  O4  1  0.11002000  0.98353200  0.48280300  1
  O  O5  1  0.95360600  0.95200000  0.63247300  1
  O  O6  1  0.95518600  0.91885000  0.53035000  1
  O  O7  1  0.89920200  0.03167600  0.53680400  1
  O  O8  1  0.89151500  0.99687800  0.43492900  1
  O  O9  1  0.68175900  0.40879700  0.90455500  1
  O  O10  1  0.71597100  0.44140200  0.76944100  1
  O  O11  1  0.76250300  0.33619200  0.91992700  1
  O  O12  1  0.80605000  0.37640400  0.78708800  1
  O  O13  1  0.63465200  0.27113500  0.87601800  1
  O  O14  1  0.68436700  0.31059600  0.74477100  1
  O  O15  1  0.54753100  0.32895800  0.88920900  1
  O  O16  1  0.57419400  0.36302400  0.75267200  1
