# Generated by REPEAT Assigner based on pymatgen
data_DB0-m29_o90_o93_f0_pts.sym.124
_audit_creation_date              2022-05-24
_audit_creation_method            REPEAT_Assigner
_cell_length_a                    15.096322
_cell_length_b                    16.976086
_cell_length_c                    11.717585
_cell_angle_alpha                 71.717353
_cell_angle_beta                  101.064692
_cell_angle_gamma                 108.959956
_cell_volume                      2683.081548
_symmetry_space_group_name_H-M    P1
_symmetry_Int_Tables_number       1
loop_
    _symmetry_equiv_pos_site_id
    _symmetry_equiv_pos_as_xyz
    1  x,y,z
loop_
    _atom_site_type_symbol
    _atom_site_label
    _atom_site_fract_x
    _atom_site_fract_y
    _atom_site_fract_z
    _atom_type_partial_charge
    C   C1   0.806823  0.026947  0.187749  -0.038160
    H   H1   0.797899  0.033830  0.273129  0.138222
    C   C2   0.895650  0.037675  0.162634  -0.249801
    H   H2   0.955172  0.054080  0.227243  0.112211
    C   C3   0.908890  0.023881  0.058581  0.324335
    C   C4   0.832475  0.004999  0.974547  -0.201099
    H   H3   0.843240  0.999492  0.889198  0.127407
    C   C5   0.742364  0.997677  0.996554  0.070247
    C   C6   0.729543  0.004543  0.107737  -0.080041
    N   N1   0.001626  0.032280  0.039908  -0.048894
    N   N2   0.005458  0.992656  0.968820  -0.223472
    C   C7   0.115152  0.000745  0.841155  -0.165574
    H   H4   0.057582  0.996035  0.770431  0.121940
    C   C8   0.202966  0.006169  0.818642  -0.085659
    H   H5   0.213420  0.006455  0.729813  0.178030
    C   C9   0.278118  0.014220  0.905953  -0.157807
    C   C10  0.264659  0.013752  0.021007  0.106765
    C   C11  0.173494  0.004308  0.045422  -0.265966
    C   C12  0.099196  0.000724  0.952649  0.354829
    O   O1   0.547976  0.108278  0.634772  -0.614259
    C   C13  0.480990  0.128568  0.552077  0.737620
    O   O2   0.442536  0.086794  0.881994  -0.542723
    O   O3   0.394049  0.078711  0.558965  -0.588458
    O   O4   0.372680  0.967211  0.813342  -0.617947
    C   C14  0.369077  0.021006  0.871124  0.741917
    Fe  Fe1  0.496559  0.997025  0.753147  1.377304
    O   O5   0.582641  0.996180  0.906775  -0.398999
    O   O6   0.683056  0.987617  0.793408  -0.417331
    C   C15  0.665681  0.990813  0.897140  0.456458
    O   O7   0.486024  0.912700  0.660250  -0.426764
    O   O8   0.511930  0.831729  0.849341  -0.390864
    C   C16  0.496075  0.839001  0.733029  0.372991
    O   O9   0.502259  0.074686  0.365598  -0.487581
    O   O10  0.564795  0.175749  0.200871  -0.483429
    C   C17  0.535546  0.156672  0.307302  0.534267
    O   O11  0.416187  0.990671  0.117821  -0.488013
    O   O12  0.342716  0.046942  0.208691  -0.373830
    C   C18  0.343712  0.017104  0.118744  0.483488
    O   O13  0.606515  0.926469  0.486473  -0.556882
    O   O14  0.627507  0.038132  0.206635  -0.496632
    C   C19  0.637398  0.988050  0.147329  0.603616
    O   O15  0.462189  0.880830  0.387508  -0.633402
    C   C20  0.526064  0.866881  0.478867  0.675999
    O   O16  0.570764  0.916408  0.141950  -0.474587
    Fe  Fe2  0.503117  0.995266  0.270069  1.379773
    C   C21  0.509577  0.781366  0.566001  -0.045208
    C   C22  0.509300  0.713681  0.524321  0.020132
    H   H6   0.523041  0.727513  0.431834  0.090733
    C   C23  0.491392  0.629933  0.597433  -0.468041
    C   C24  0.470726  0.613875  0.714860  0.206773
    C   C25  0.472045  0.681523  0.758495  -0.182140
    C   C26  0.492815  0.766594  0.685106  0.107525
    N   N3   0.445104  0.478208  0.591620  -0.106041
    N   N4   0.451991  0.416192  0.551428  -0.340953
    C   C27  0.508577  0.434977  0.465243  0.706557
    N   N5   0.556841  0.517856  0.418517  -0.215969
    N   N6   0.550345  0.579943  0.459610  -0.327847
    C   C28  0.495379  0.560781  0.548299  0.835887
    C   C29  0.553567  0.380083  0.317929  0.042258
    H   H7   0.574561  0.445064  0.259531  0.006755
    C   C30  0.559794  0.312121  0.281822  -0.129800
    H   H8   0.586060  0.326453  0.195990  0.130002
    C   C31  0.532598  0.227570  0.353399  0.028357
    C   C32  0.501084  0.213015  0.464248  -0.028335
    C   C33  0.492894  0.280817  0.498273  -0.002529
    H   H9   0.468525  0.267107  0.585231  0.076314
    C   C34  0.518270  0.364497  0.425589  -0.282209
    C   C35  0.152512  0.977344  0.172023  0.387154
    C   C36  0.155922  0.037049  0.232014  -0.149339
    Cl  Cl1  0.185853  0.148025  0.158627  -0.093710
    C   C37  0.135519  0.009251  0.350479  0.202734
    C   C38  0.111146  0.922167  0.409230  -0.070657
    Cl  Cl2  0.084427  0.886995  0.559215  -0.054951
    C   C39  0.107420  0.862700  0.349727  -0.053470
    C   C40  0.128043  0.890238  0.231474  -0.286425
    H   H10  0.138224  0.055851  0.397159  0.044053
    H   H11  0.088222  0.794399  0.395757  0.133306
    H   H12  0.124961  0.843323  0.185143  0.158329
    C   C41  0.451483  0.526386  0.796978  0.187727
    C   C42  0.359865  0.474493  0.809226  -0.238156
    Cl  Cl3  0.265242  0.512060  0.725789  -0.032286
    C   C43  0.342787  0.390442  0.880893  0.065264
    C   C44  0.416861  0.357634  0.938902  -0.108067
    Cl  Cl4  0.395031  0.249969  0.025694  0.019581
    C   C45  0.508138  0.408680  0.925208  0.122635
    C   C46  0.525439  0.492812  0.854130  -0.297981
    H   H13  0.271240  0.349564  0.889208  0.107898
    H   H14  0.566210  0.382333  0.968488  0.084972
    H   H15  0.597117  0.531788  0.840859  0.132307
    C   C47  0.444127  0.659909  0.880348  0.327863
    C   C48  0.508884  0.649475  0.980874  -0.074325
    Cl  Cl5  0.627180  0.666704  0.964537  -0.051378
    C   C49  0.481533  0.630011  0.094612  -0.045525
    C   C50  0.389885  0.621350  0.108427  0.099254
    Cl  Cl6  0.355243  0.596892  0.252781  -0.097852
    C   C51  0.325836  0.633653  0.008300  -0.181044
    C   C52  0.353075  0.653530  0.894507  -0.138821
    H   H16  0.532400  0.622565  0.172884  0.124752
    H   H17  0.254345  0.628213  0.018945  0.141084
    H   H18  0.302937  0.664514  0.816194  0.123611
