# Generated by REPEAT Assigner based on pymatgen
data_DB0-m3_o4_o27_f0_nbo.sym.12
_audit_creation_date              2022-05-24
_audit_creation_method            REPEAT_Assigner
_cell_length_a                    31.131318
_cell_length_b                    30.832479
_cell_length_c                    24.805523
_cell_angle_alpha                 90.000000
_cell_angle_beta                  128.860989
_cell_angle_gamma                 90.000000
_cell_volume                      18539.929218
_symmetry_space_group_name_H-M    P1
_symmetry_Int_Tables_number       1
loop_
    _symmetry_equiv_pos_site_id
    _symmetry_equiv_pos_as_xyz
    1  x,y,z
loop_
    _atom_site_type_symbol
    _atom_site_label
    _atom_site_fract_x
    _atom_site_fract_y
    _atom_site_fract_z
    _atom_type_partial_charge
    O   O1    0.815514  0.770367  0.499173  -0.666410
    O   O2    0.184486  0.770367  0.500827  -0.666372
    O   O3    0.315514  0.270367  0.499173  -0.666395
    O   O4    0.684486  0.270367  0.500827  -0.666339
    O   O5    0.761116  0.822937  0.495840  -0.682194
    O   O6    0.238884  0.822936  0.504160  -0.682169
    O   O7    0.261116  0.322937  0.495840  -0.682181
    O   O8    0.738884  0.322936  0.504160  -0.682127
    C   C1    0.801972  0.810988  0.496584  0.764748
    C   C2    0.198028  0.810987  0.503416  0.764710
    C   C3    0.301972  0.310988  0.496584  0.764729
    C   C4    0.698028  0.310987  0.503416  0.764589
    O   O9    0.718193  0.724686  0.397641  -0.664989
    O   O10   0.281807  0.724685  0.602359  -0.665000
    O   O11   0.218193  0.224686  0.397641  -0.664992
    O   O12   0.781807  0.224685  0.602359  -0.665012
    O   O13   0.663832  0.776090  0.396897  -0.650718
    O   O14   0.336168  0.776090  0.603102  -0.650723
    O   O15   0.163832  0.276090  0.396897  -0.650721
    O   O16   0.836168  0.276090  0.603102  -0.650751
    C   C5    0.674622  0.749892  0.365051  0.561524
    C   C6    0.325378  0.749892  0.634949  0.561519
    C   C7    0.174622  0.249892  0.365051  0.561519
    C   C8    0.825378  0.249892  0.634949  0.561626
    Zn  Zn1   0.778992  0.716553  0.500614  1.283016
    Zn  Zn2   0.221008  0.716553  0.499386  1.283016
    Zn  Zn3   0.278992  0.216553  0.500614  1.283009
    Zn  Zn4   0.721008  0.216553  0.499386  1.283018
    Zn  Zn5   0.709674  0.785746  0.500220  1.292392
    Zn  Zn6   0.290326  0.785746  0.499779  1.292383
    Zn  Zn7   0.209674  0.285746  0.500220  1.292395
    Zn  Zn8   0.790326  0.285746  0.499779  1.292380
    O   O17   0.727503  0.679421  0.504853  -0.670158
    O   O18   0.272497  0.679420  0.495147  -0.670120
    O   O19   0.227503  0.179421  0.504853  -0.670148
    O   O20   0.772497  0.179420  0.495147  -0.670133
    O   O21   0.673047  0.731918  0.501623  -0.672682
    O   O22   0.326953  0.731918  0.498377  -0.672713
    O   O23   0.173047  0.231918  0.501623  -0.672703
    O   O24   0.826953  0.231918  0.498377  -0.672671
    O   O25   0.824851  0.726310  0.603895  -0.669791
    O   O26   0.175149  0.726310  0.396105  -0.669789
    O   O27   0.324851  0.226310  0.603895  -0.669785
    O   O28   0.675149  0.226310  0.396105  -0.669839
    O   O29   0.770500  0.777536  0.603272  -0.676775
    O   O30   0.229499  0.777536  0.396728  -0.676766
    O   O31   0.270500  0.277536  0.603272  -0.676774
    O   O32   0.729499  0.277536  0.396728  -0.676861
    C   C9    0.686715  0.691259  0.504165  0.766511
    C   C10   0.313284  0.691258  0.495835  0.766513
    C   C11   0.186715  0.191259  0.504165  0.766543
    C   C12   0.813284  0.191258  0.495835  0.766382
    C   C13   0.814157  0.752395  0.635907  0.548088
    C   C14   0.185843  0.752394  0.364093  0.548075
    C   C15   0.314157  0.252395  0.635907  0.548072
    C   C16   0.685843  0.252394  0.364093  0.548379
    C   C17   0.625833  0.784846  0.251076  -0.132305
    C   C18   0.374166  0.784846  0.748924  -0.132333
    C   C19   0.125833  0.284846  0.251076  -0.132327
    C   C20   0.874166  0.284846  0.748924  -0.132178
    C   C21   0.591228  0.782589  0.179842  0.107962
    C   C22   0.408772  0.782589  0.820158  0.107987
    C   C23   0.091228  0.282589  0.179842  0.108037
    C   C24   0.908772  0.282589  0.820158  0.107646
    H   H1    0.585436  0.811618  0.151586  0.035311
    H   H2    0.414564  0.811618  0.848413  0.035303
    H   H3    0.085436  0.311618  0.151586  0.035289
    H   H4    0.914564  0.311618  0.848413  0.035355
    C   C25   0.565892  0.743924  0.145634  -0.394189
    C   C26   0.434108  0.743924  0.854366  -0.394196
    C   C27   0.065892  0.243924  0.145634  -0.394337
    C   C28   0.934108  0.243924  0.854366  -0.393524
    C   C29   0.575245  0.707329  0.184900  0.087897
    C   C30   0.424755  0.707328  0.815100  0.087892
    C   C31   0.075245  0.207329  0.184900  0.087944
    C   C32   0.924755  0.207328  0.815100  0.087597
    C   C33   0.610557  0.709820  0.256166  0.006949
    C   C34   0.389443  0.709820  0.743834  0.006927
    C   C35   0.110557  0.209820  0.256166  0.006940
    C   C36   0.889443  0.209820  0.743834  0.007067
    C   C37   0.636119  0.748301  0.289480  0.240338
    C   C38   0.363881  0.748300  0.710519  0.240367
    C   C39   0.136119  0.248301  0.289480  0.240358
    C   C40   0.863881  0.248300  0.710519  0.240158
    N   N1    0.515265  0.705812  0.034073  -0.301160
    N   N2    0.484738  0.705812  0.965927  -0.301226
    N   N3    0.015265  0.205812  0.034073  -0.301187
    N   N4    0.984738  0.205812  0.965927  -0.301152
    C   C41   0.469290  0.743341  0.930729  0.839214
    C   C42   0.530710  0.743341  0.069271  0.839172
    C   C43   0.969290  0.243341  0.930729  0.838812
    C   C44   0.030710  0.243341  0.069271  0.839318
    N   N5    0.484810  0.780965  0.965898  -0.320003
    N   N6    0.515187  0.780965  0.034102  -0.319978
    N   N7    0.984810  0.280965  0.965898  -0.319939
    N   N8    0.015187  0.280965  0.034102  -0.320000
    C   C45   0.882574  0.832945  0.506773  0.287030
    C   C46   0.117427  0.832945  0.493230  0.287000
    C   C47   0.382574  0.332945  0.506773  0.287042
    C   C48   0.617427  0.332945  0.493230  0.286974
    C   C49   0.834902  0.844110  0.495284  -0.235246
    C   C50   0.165098  0.844109  0.504715  -0.235224
    C   C51   0.334902  0.344110  0.495284  -0.235254
    C   C52   0.665098  0.344109  0.504715  -0.235149
    C   C53   0.820314  0.887715  0.482422  -0.025516
    C   C54   0.179684  0.887715  0.517574  -0.025504
    C   C55   0.320314  0.387715  0.482422  -0.025497
    C   C56   0.679684  0.387715  0.517574  -0.025523
    H   H5    0.783058  0.898739  0.472696  0.133907
    H   H6    0.216939  0.898740  0.527297  0.133884
    H   H7    0.283058  0.398739  0.472696  0.133898
    H   H8    0.716939  0.398740  0.527297  0.133884
    C   C57   0.853539  0.917749  0.481461  -0.402304
    C   C58   0.146459  0.917749  0.518535  -0.402302
    C   C59   0.353539  0.417749  0.481461  -0.402322
    C   C60   0.646459  0.417749  0.518535  -0.402324
    H   H9    0.841864  0.951529  0.471539  0.207856
    H   H10   0.158133  0.951529  0.528453  0.207862
    H   H11   0.341864  0.451529  0.471539  0.207863
    H   H12   0.658133  0.451529  0.528453  0.207870
    C   C61   0.901764  0.904659  0.493941  0.168941
    C   C62   0.098236  0.904659  0.506058  0.168938
    C   C63   0.401764  0.404659  0.493941  0.168949
    C   C64   0.598236  0.404659  0.506058  0.168987
    C   C65   0.914151  0.861486  0.506393  -0.089865
    C   C66   0.085850  0.861485  0.493611  -0.089858
    C   C67   0.414151  0.361486  0.506393  -0.089878
    C   C68   0.585850  0.361485  0.493611  -0.089873
    C   C69   0.955103  0.828994  0.520927  -0.032562
    C   C70   0.044900  0.828993  0.479081  -0.032534
    C   C71   0.455103  0.328994  0.520927  -0.032573
    C   C72   0.544900  0.328993  0.479081  -0.032523
    C   C73   0.918457  0.795399  0.522313  -0.316324
    C   C74   0.081546  0.795398  0.477695  -0.316356
    C   C75   0.418457  0.295399  0.522313  -0.316327
    C   C76   0.581546  0.295398  0.477695  -0.316354
    H   H13   0.953619  0.824398  0.475572  0.043662
    H   H14   0.046386  0.824398  0.524437  0.043682
    H   H15   0.453619  0.324398  0.475572  0.043668
    H   H16   0.546386  0.324398  0.524437  0.043684
    H   H17   0.996067  0.833925  0.572104  0.079533
    H   H18   0.003935  0.833923  0.427904  0.079529
    H   H19   0.496067  0.333925  0.572104  0.079535
    H   H20   0.503935  0.333923  0.427904  0.079526
    H   H21   0.898208  0.771910  0.478900  0.110070
    H   H22   0.101796  0.771910  0.521110  0.110076
    H   H23   0.398208  0.271910  0.478900  0.110069
    H   H24   0.601796  0.271910  0.521110  0.110075
    H   H25   0.938559  0.781826  0.574584  0.112330
    H   H26   0.061443  0.781823  0.425424  0.112330
    H   H27   0.438559  0.281826  0.574584  0.112332
    H   H28   0.561443  0.281823  0.425424  0.112328
    C   C77   0.836129  0.768780  0.748189  -0.263556
    C   C78   0.163871  0.768779  0.251811  -0.263567
    C   C79   0.336129  0.268780  0.748189  -0.263386
    C   C80   0.663871  0.268779  0.251811  -0.263345
    H   H29   0.794312  0.779853  0.721446  0.149688
    H   H30   0.205688  0.779853  0.278554  0.149684
    H   H31   0.294312  0.279853  0.721446  0.149653
    H   H32   0.705688  0.279853  0.278554  0.149642
    C   C81   0.872341  0.768967  0.819569  0.156576
    C   C82   0.127659  0.768967  0.180431  0.156567
    C   C83   0.372341  0.268967  0.819569  0.156354
    C   C84   0.627659  0.268967  0.180431  0.156345
    H   H33   0.858254  0.780719  0.847135  0.036577
    H   H34   0.141746  0.780719  0.152865  0.036583
    H   H35   0.358254  0.280719  0.847135  0.036653
    H   H36   0.641746  0.280719  0.152865  0.036653
    C   C85   0.926116  0.755184  0.854994  -0.562464
    C   C86   0.073883  0.755183  0.145006  -0.562484
    C   C87   0.426116  0.255184  0.854994  -0.562451
    C   C88   0.573883  0.255183  0.145006  -0.562428
    C   C89   0.943108  0.740683  0.818362  0.153410
    C   C90   0.056892  0.740683  0.181638  0.153448
    C   C91   0.443108  0.240683  0.818362  0.153421
    C   C92   0.556892  0.240683  0.181638  0.153423
    H   H37   0.984833  0.729435  0.844958  0.033832
    H   H38   0.015167  0.729434  0.155042  0.033827
    H   H39   0.484833  0.229435  0.844958  0.033823
    H   H40   0.515167  0.229434  0.155042  0.033822
    C   C93   0.906421  0.739242  0.747062  -0.259722
    C   C94   0.093579  0.739241  0.252938  -0.259741
    C   C95   0.406421  0.239242  0.747062  -0.259679
    C   C96   0.593579  0.239241  0.252938  -0.259596
    H   H41   0.920449  0.727482  0.719429  0.151368
    H   H42   0.079550  0.727482  0.280571  0.151372
    H   H43   0.420449  0.227482  0.719429  0.151354
    H   H44   0.579550  0.227482  0.280571  0.151330
    C   C97   0.852872  0.753535  0.711644  0.262444
    C   C98   0.147128  0.753534  0.288355  0.262464
    C   C99   0.352872  0.253535  0.711644  0.262391
    C   C100  0.647128  0.253534  0.288355  0.262163
    N   N9    0.019465  0.755548  0.964867  -0.369686
    N   N10   0.980535  0.755548  0.035133  -0.369686
    N   N11   0.519465  0.255548  0.964867  -0.369683
    N   N12   0.480535  0.255548  0.035133  -0.369678
    N   N13   0.054330  0.755795  0.033287  -0.375225
    N   N14   0.945670  0.755795  0.966713  -0.375231
    N   N15   0.554330  0.255795  0.033287  -0.375234
    N   N16   0.445670  0.255795  0.966713  -0.375241
    C   C101  0.035255  0.755637  0.069190  1.003446
    C   C102  0.964745  0.755637  0.930810  1.003448
    C   C103  0.535255  0.255637  0.069190  1.003454
    C   C104  0.464745  0.255637  0.930810  1.003482
    C   C105  0.656896  0.615070  0.489815  0.339714
    C   C106  0.343104  0.615070  0.510185  0.339470
    C   C107  0.156896  0.115070  0.489815  0.339557
    C   C108  0.843104  0.115070  0.510185  0.339457
    C   C109  0.654719  0.657248  0.505524  -0.211660
    C   C110  0.345281  0.657247  0.494476  -0.211637
    C   C111  0.154719  0.157248  0.505524  -0.211702
    C   C112  0.845281  0.157247  0.494476  -0.211489
    C   C113  0.620648  0.665817  0.522494  -0.110863
    C   C114  0.379352  0.665816  0.477506  -0.110788
    C   C115  0.120648  0.165817  0.522494  -0.110721
    C   C116  0.879352  0.165816  0.477506  -0.110884
    H   H45   0.617345  0.698346  0.535790  0.149640
    H   H46   0.382654  0.698346  0.464210  0.149613
    H   H47   0.117345  0.198346  0.535790  0.149596
    H   H48   0.882654  0.198346  0.464210  0.149652
    C   C117  0.590894  0.632414  0.523561  -0.244750
    C   C118  0.409106  0.632413  0.476439  -0.244657
    C   C119  0.090894  0.132414  0.523561  -0.244736
    C   C120  0.909106  0.132413  0.476439  -0.244693
    H   H49   0.564567  0.639494  0.536886  0.166014
    H   H50   0.435433  0.639494  0.463114  0.165981
    H   H51   0.064567  0.139494  0.536886  0.166019
    H   H52   0.935433  0.139494  0.463114  0.166013
    C   C121  0.593663  0.590440  0.505803  0.028161
    C   C122  0.406337  0.590439  0.494197  0.027833
    C   C123  0.093663  0.090440  0.505803  0.027845
    C   C124  0.906337  0.090439  0.494197  0.027861
    C   C125  0.627356  0.583674  0.488914  -0.036518
    C   C126  0.372644  0.583674  0.511086  -0.036049
    C   C127  0.127356  0.083674  0.488914  -0.036122
    C   C128  0.872644  0.083674  0.511086  -0.036102
    C   C129  0.647775  0.549503  0.468092  0.038757
    C   C130  0.352225  0.549502  0.531908  0.038590
    C   C131  0.147775  0.049503  0.468092  0.038676
    C   C132  0.852225  0.049502  0.531908  0.038552
    C   C133  0.682316  0.586408  0.468682  -0.450677
    C   C134  0.317684  0.586408  0.531318  -0.450554
    C   C135  0.182316  0.086408  0.468682  -0.450657
    C   C136  0.817684  0.086408  0.531318  -0.450499
    H   H53   0.673125  0.524593  0.508588  0.104124
    H   H54   0.326876  0.524593  0.491412  0.104156
    H   H55   0.173125  0.024593  0.508588  0.104128
    H   H56   0.826876  0.024593  0.491412  0.104168
    H   H57   0.727361  0.582514  0.510245  0.135667
    H   H58   0.272640  0.582513  0.489755  0.135653
    H   H59   0.227361  0.082514  0.510245  0.135667
    H   H60   0.772640  0.082513  0.489755  0.135644
    H   H61   0.668527  0.594294  0.416379  0.210230
    H   H62   0.331474  0.594294  0.583621  0.210193
    H   H63   0.168527  0.094294  0.416379  0.210236
    H   H64   0.831474  0.094294  0.583621  0.210180
    O   O33   0.427096  0.542405  0.438260  -0.723852
    O   O34   0.572904  0.542405  0.561740  -0.723935
    O   O35   0.927096  0.042405  0.438260  -0.723883
    O   O36   0.072904  0.042405  0.561740  -0.723879
    O   O37   0.480304  0.540112  0.557479  -0.666140
    O   O38   0.519696  0.540113  0.442521  -0.666264
    O   O39   0.980304  0.040112  0.557479  -0.666170
    O   O40   0.019696  0.040113  0.442521  -0.666185
    C   C137  0.439102  0.555559  0.496650  0.744568
    C   C138  0.560898  0.555559  0.503351  0.744795
    C   C139  0.939102  0.055559  0.496650  0.744647
    C   C140  0.060898  0.055559  0.503351  0.744684
    O   O41   0.926030  0.949583  0.438318  -0.700106
    O   O42   0.073970  0.949583  0.561681  -0.700166
    O   O43   0.426030  0.449583  0.438318  -0.700134
    O   O44   0.573970  0.449583  0.561681  -0.700168
    O   O45   0.981091  0.950081  0.557613  -0.678111
    O   O46   0.018909  0.950081  0.442387  -0.678150
    O   O47   0.481091  0.450081  0.557613  -0.678112
    O   O48   0.518909  0.450081  0.442387  -0.678131
    C   C141  0.938588  0.935741  0.496728  0.660528
    C   C142  0.061412  0.935741  0.503271  0.660576
    C   C143  0.438588  0.435741  0.496728  0.660567
    C   C144  0.561412  0.435741  0.503271  0.660534
    Zn  Zn9   0.463224  0.495443  0.421694  1.325095
    Zn  Zn10  0.536776  0.495443  0.578306  1.325074
    Zn  Zn11  0.963224  0.995443  0.421694  1.325091
    Zn  Zn12  0.036776  0.995443  0.578306  1.325092
    Cl  Cl1   0.659339  0.833830  0.292080  -0.014706
    Cl  Cl2   0.340661  0.833830  0.707920  -0.014689
    Cl  Cl3   0.159339  0.333830  0.292080  -0.014704
    Cl  Cl4   0.840661  0.333830  0.707920  -0.014691
    Cl  Cl5   0.594817  0.530060  0.383116  -0.126764
    Cl  Cl6   0.405183  0.530060  0.616885  -0.126766
    Cl  Cl7   0.094817  0.030060  0.383116  -0.126776
    Cl  Cl8   0.905183  0.030060  0.616885  -0.126758
    Cl  Cl9   0.542448  0.657158  0.149052  -0.035781
    Cl  Cl10  0.457551  0.657157  0.850948  -0.035760
    Cl  Cl11  0.042448  0.157158  0.149052  -0.035790
    Cl  Cl12  0.957551  0.157157  0.850948  -0.035742
    Cl  Cl13  0.620188  0.663688  0.303918  -0.093282
    Cl  Cl14  0.379812  0.663688  0.696082  -0.093272
    Cl  Cl15  0.120188  0.163688  0.303918  -0.093284
    Cl  Cl16  0.879812  0.163688  0.696082  -0.093268
