# generated using pymatgen
data_Zn2H30C37(NO4)2
_symmetry_space_group_name_H-M   'P 1'
_cell_length_a   10.79386700
_cell_length_b   11.89097700
_cell_length_c   13.07122700
_cell_angle_alpha   91.19311700
_cell_angle_beta   89.99951600
_cell_angle_gamma   85.83768400
_symmetry_Int_Tables_number   1
_chemical_formula_structural   Zn2H30C37(NO4)2
_chemical_formula_sum   'Zn2 H30 C37 N2 O8'
_cell_volume   1672.89733887
_cell_formula_units_Z   1
loop_
 _symmetry_equiv_pos_site_id
 _symmetry_equiv_pos_as_xyz
  1  'x, y, z'
loop_
 _atom_site_type_symbol
 _atom_site_label
 _atom_site_symmetry_multiplicity
 _atom_site_fract_x
 _atom_site_fract_y
 _atom_site_fract_z
 _atom_site_occupancy
  Zn  Zn1  1  0.51889900  0.37512100  0.50157400  1
  Zn  Zn2  1  0.50017700  0.63050900  0.48494300  1
  H  H1  1  0.91207900  0.37036200  0.60504800  1
  H  H2  1  0.90061400  0.51005900  0.65417100  1
  H  H3  1  0.10604600  0.51619600  0.65898200  1
  H  H4  1  0.12617700  0.37428200  0.60962900  1
  H  H5  1  0.13101300  0.34162400  0.41429800  1
  H  H6  1  0.88842000  0.66655300  0.41841100  1
  H  H7  1  0.89474300  0.67013900  0.55580900  1
  H  H8  1  0.09952700  0.68004100  0.54368900  1
  H  H9  1  0.09646900  0.65571300  0.40669400  1
  H  H10  1  0.93870200  0.50318600  0.33550800  1
  H  H11  1  0.13285100  0.46064500  0.33474900  1
  H  H12  1  0.51981700  0.64783200  0.15698000  1
  H  H13  1  0.48096600  0.29356600  0.17921800  1
  H  H14  1  0.52747800  0.73110300  0.99306200  1
  H  H15  1  0.48085500  0.27595300  0.99346600  1
  H  H16  1  0.52845700  0.71339700  0.80737500  1
  H  H17  1  0.49439900  0.35835200  0.82950800  1
  H  H18  1  0.39970000  0.18535900  0.39633600  1
  H  H19  1  0.66400700  0.20924600  0.63054700  1
  H  H20  1  0.33663600  0.00215700  0.34081400  1
  H  H21  1  0.68216300  0.00352100  0.64610200  1
  H  H22  1  0.35441100  0.79646800  0.35663400  1
  H  H23  1  0.61972700  0.82024900  0.59010000  1
  H  H24  1  0.02929300  0.24547800  0.51619600  1
  H  H25  1  0.01838500  0.10702500  0.46853400  1
  H  H26  1  0.89380100  0.17238600  0.54508200  1
  H  H27  1  0.84129800  0.05949000  0.37050900  1
  H  H28  1  0.74125700  0.09411800  0.20594200  1
  H  H29  1  0.74254600  0.28062200  0.12989000  1
  H  H30  1  0.83207300  0.43299500  0.21909600  1
  C  C1  1  0.51270900  0.52310600  0.69311800  1
  C  C2  1  0.75257000  0.50084900  0.48831300  1
  C  C3  1  0.50534200  0.48262700  0.29340700  1
  C  C4  1  0.26691900  0.50465100  0.49756500  1
  C  C5  1  0.94116700  0.45561500  0.59097200  1
  C  C6  1  0.08166800  0.45924400  0.59497500  1
  C  C7  1  0.95245800  0.43954900  0.39549600  1
  C  C8  1  0.92841700  0.62244400  0.48616800  1
  C  C9  1  0.89165300  0.50105000  0.48973200  1
  C  C10  1  0.12855600  0.50411800  0.49526800  1
  C  C11  1  0.09250100  0.42940700  0.40588600  1
  C  C12  1  0.06918700  0.62310300  0.48172300  1
  C  C13  1  0.50181600  0.47187700  0.18142800  1
  C  C14  1  0.51215500  0.53433700  0.80511200  1
  C  C15  1  0.52002900  0.64908100  0.95730400  1
  C  C16  1  0.52045600  0.63881600  0.85204900  1
  C  C17  1  0.50209800  0.44057600  0.86468500  1
  C  C18  1  0.50056400  0.45130000  0.97007000  1
  C  C19  1  0.51024500  0.55537700  0.01644300  1
  C  C20  1  0.51074000  0.56579900  0.12183900  1
  C  C21  1  0.48959400  0.36801200  0.13448700  1
  C  C22  1  0.48932200  0.35782900  0.02921600  1
  C  C23  1  0.39962700  0.96339300  0.39626900  1
  C  C24  1  0.40974600  0.84773400  0.40520200  1
  C  C25  1  0.55746200  0.86111700  0.53528800  1
  C  C26  1  0.54917500  0.97706100  0.52823300  1
  C  C27  1  0.47002900  0.02857100  0.45837400  1
  C  C28  1  0.46188000  0.14450300  0.45121500  1
  C  C29  1  0.60906000  0.15793700  0.58169500  1
  C  C30  1  0.61933500  0.04226500  0.59051800  1
  C  C31  1  0.89549800  0.33594300  0.34995800  1
  C  C32  1  0.89896800  0.22655000  0.39054300  1
  C  C33  1  0.96372500  0.18778900  0.48583200  1
  C  C34  1  0.84035800  0.14278200  0.33876700  1
  C  C35  1  0.78406100  0.16159800  0.24605800  1
  C  C36  1  0.78425600  0.26591300  0.20394900  1
  C  C37  1  0.83710500  0.35215600  0.25572100  1
  N  N1  1  0.53119200  0.20715200  0.51260500  1
  N  N2  1  0.48803600  0.79848400  0.47398200  1
  O  O1  1  0.51890000  0.42146300  0.65159500  1
  O  O2  1  0.50532700  0.61507300  0.63899500  1
  O  O3  1  0.70136600  0.40461800  0.49670900  1
  O  O4  1  0.68707400  0.59805400  0.48346300  1
  O  O5  1  0.51350100  0.39053600  0.34749400  1
  O  O6  1  0.49971700  0.58422700  0.33493800  1
  O  O7  1  0.33202300  0.40737800  0.50304000  1
  O  O8  1  0.31770200  0.60117400  0.48999400  1
