# Generated by REPEAT Assigner based on pymatgen
data_DB0-m3_o24_o90_f0_fsc.sym.1_sqe
_audit_creation_date              2022-05-24
_audit_creation_method            REPEAT_Assigner
_cell_length_a                    6.606949
_cell_length_b                    9.151193
_cell_length_c                    15.899353
_cell_angle_alpha                 96.296499
_cell_angle_beta                  81.433690
_cell_angle_gamma                 89.938054
_cell_volume                      944.691553
_symmetry_space_group_name_H-M    P1
_symmetry_Int_Tables_number       1
loop_
    _symmetry_equiv_pos_site_id
    _symmetry_equiv_pos_as_xyz
    1  x,y,z
loop_
    _atom_site_type_symbol
    _atom_site_label
    _atom_site_fract_x
    _atom_site_fract_y
    _atom_site_fract_z
    _atom_type_partial_charge
    C   C1   0.326564  0.020856  0.696806  -0.109949
    C   C2   0.673436  0.979144  0.303194  -0.109960
    C   C3   0.196350  0.010967  0.772170  0.163754
    C   C4   0.803650  0.989033  0.227830  0.163722
    H   H1   0.036351  0.989959  0.770458  -0.005937
    H   H2   0.963649  0.010041  0.229542  -0.005917
    C   C5   0.268238  0.027267  0.849463  -0.466124
    C   C6   0.731762  0.972733  0.150537  -0.466155
    C   C7   0.471889  0.055732  0.851797  0.100032
    C   C8   0.528111  0.944269  0.148203  0.100120
    H   H3   0.529326  0.069346  0.912335  0.007874
    H   H4   0.470674  0.930655  0.087665  0.007821
    C   C9   0.603614  0.062464  0.776475  -0.123375
    C   C10  0.396386  0.937536  0.223525  -0.123481
    H   H5   0.764255  0.080399  0.778341  0.132852
    H   H6   0.235745  0.919601  0.221659  0.132862
    C   C11  0.532942  0.042455  0.698599  -0.086925
    C   C12  0.467058  0.957545  0.301402  -0.086848
    N   N1   0.197430  0.028507  0.004005  -0.249962
    N   N2   0.802570  0.971493  0.995995  -0.249986
    N   N3   0.070302  0.015003  0.075152  -0.309135
    N   N4   0.929698  0.984997  0.924848  -0.309148
    C   C13  0.871821  0.986257  0.071789  0.777209
    C   C14  0.128179  0.013743  0.928211  0.777181
    O   O1   0.756884  0.895225  0.591886  -0.703444
    O   O2   0.243116  0.104776  0.408114  -0.703401
    O   O3   0.761506  0.147350  0.591792  -0.711783
    O   O4   0.238494  0.852650  0.408208  -0.711768
    C   C15  0.683354  0.027593  0.620740  0.843437
    C   C16  0.316646  0.972407  0.379260  0.843377
    O   O5   0.181426  0.136731  0.592764  -0.741427
    O   O6   0.818574  0.863270  0.407236  -0.741499
    O   O7   0.178366  0.883683  0.587148  -0.694389
    O   O8   0.821634  0.116318  0.412852  -0.694355
    C   C17  0.236741  0.012774  0.618113  0.808889
    C   C18  0.763259  0.987227  0.381887  0.808932
    Zn  Zn1  0.007022  0.163228  0.501586  1.012338
    Zn  Zn2  0.992978  0.836772  0.498414  1.012407
    C   C19  0.863444  0.432888  0.464468  -0.026275
    C   C20  0.136556  0.567113  0.535532  -0.026235
    C   C21  0.020172  0.532553  0.423862  -0.022021
    C   C22  0.979828  0.467447  0.576138  -0.022083
    H   H7   0.035977  0.562794  0.357564  0.073965
    H   H8   0.964023  0.437206  0.642436  0.073981
    H   H9   0.744398  0.371983  0.433382  0.077067
    H   H10  0.255602  0.628017  0.566618  0.077058
    N   N5   0.986025  0.644782  0.497379  0.310505
    N   N6   0.013975  0.355219  0.502621  0.310577
    C   C23  0.828835  0.552501  0.537903  -0.175164
    C   C24  0.171165  0.447499  0.462097  -0.175211
    H   H11  0.679215  0.599968  0.570337  0.117992
    H   H12  0.320785  0.400032  0.429663  0.118004
