# Generated by REPEAT Assigner based on pymatgen
data_DB0-m29_o99_o91_f0_pts.sym.31
_audit_creation_date              2022-05-24
_audit_creation_method            REPEAT_Assigner
_cell_length_a                    15.859696
_cell_length_b                    27.101115
_cell_length_c                    11.446570
_cell_angle_alpha                 46.242140
_cell_angle_beta                  83.083118
_cell_angle_gamma                 78.483084
_cell_volume                      3480.870377
_symmetry_space_group_name_H-M    P1
_symmetry_Int_Tables_number       1
loop_
    _symmetry_equiv_pos_site_id
    _symmetry_equiv_pos_as_xyz
    1  x,y,z
loop_
    _atom_site_type_symbol
    _atom_site_label
    _atom_site_fract_x
    _atom_site_fract_y
    _atom_site_fract_z
    _atom_type_partial_charge
    C   C1   0.221319  0.011223  0.157901  -0.063445
    H   H1   0.232380  0.019304  0.234624  0.149562
    C   C2   0.138707  0.012102  0.129975  -0.252390
    H   H2   0.084989  0.021745  0.183005  0.146141
    C   C3   0.124726  0.999659  0.036403  0.361275
    C   C4   0.193204  0.988105  0.967333  -0.237326
    H   H3   0.181402  0.980690  0.889665  0.160858
    C   C5   0.276101  0.987613  0.994338  0.060688
    C   C6   0.290189  0.997462  0.093351  -0.085736
    C   C7   0.038674  0.999797  0.009084  -0.246113
    C   C8   0.966304  0.999841  0.986780  -0.034288
    C   C9   0.812038  0.011627  0.029563  0.366229
    C   C10  0.728735  0.011988  0.003582  -0.190901
    C   C11  0.714430  0.001854  0.905079  0.012696
    C   C12  0.783040  0.987934  0.840445  -0.208540
    H   H4   0.771651  0.979635  0.764288  0.179825
    C   C13  0.865756  0.987178  0.867428  -0.058815
    H   H5   0.919251  0.977392  0.814323  0.139462
    C   C14  0.880114  0.999939  0.960128  -0.038077
    O   O1   0.538037  0.905962  0.472623  -0.645487
    C   C15  0.476967  0.895333  0.572503  0.646943
    O   O2   0.435006  0.937101  0.187258  -0.477396
    O   O3   0.410556  0.944251  0.520469  -0.514488
    O   O4   0.393021  0.031733  0.152178  -0.602494
    C   C16  0.377160  0.990697  0.137224  0.688303
    Fe  Fe1  0.508126  0.998779  0.254271  1.382976
    O   O5   0.583465  0.000121  0.098513  -0.451132
    O   O6   0.670429  0.029190  0.179309  -0.374549
    C   C17  0.657534  0.016619  0.091429  0.585701
    O   O7   0.521816  0.060243  0.287931  -0.407394
    O   O8   0.541352  0.129537  0.018338  -0.462636
    C   C18  0.536219  0.120250  0.147545  0.486829
    O   O9   0.483191  0.938762  0.710481  -0.392451
    O   O10  0.461568  0.869985  0.979408  -0.460674
    C   C19  0.467688  0.879044  0.850476  0.494721
    O   O11  0.421423  0.998650  0.900485  -0.413795
    O   O12  0.332738  0.971800  0.816275  -0.450639
    C   C20  0.346867  0.983065  0.906240  0.484432
    O   O13  0.593839  0.055313  0.477398  -0.523177
    O   O14  0.611915  0.967656  0.845574  -0.623589
    C   C21  0.627441  0.008452  0.861541  0.711149
    O   O15  0.466157  0.093119  0.525874  -0.627742
    C   C22  0.527113  0.103975  0.425617  0.645760
    O   O16  0.569416  0.061898  0.811936  -0.500998
    Fe  Fe2  0.496690  0.000298  0.744137  1.380431
    C   C23  0.540410  0.585595  0.055931  0.438200
    N   N1   0.490598  0.645179  0.933562  -0.205563
    C   C24  0.445105  0.648169  0.835929  0.469043
    C   C25  0.448789  0.590158  0.860359  0.021357
    C   C26  0.498890  0.529100  0.985071  -0.046963
    C   C27  0.545140  0.526765  0.083397  -0.044889
    C   C28  0.401840  0.592738  0.761807  -0.317897
    C   C29  0.405440  0.534488  0.787644  0.569517
    C   C30  0.456318  0.472971  0.913099  -0.414832
    C   C31  0.502670  0.470700  0.011472  0.193572
    C   C32  0.553021  0.409731  0.136442  -0.113572
    C   C33  0.599939  0.407299  0.234921  -0.049265
    C   C34  0.595973  0.465698  0.208520  -0.062188
    C   C35  0.461492  0.413654  0.941685  0.609929
    N   N2   0.511735  0.354363  0.063998  -0.247294
    C   C36  0.557102  0.351652  0.161197  0.496385
    O   O17  0.587338  0.583809  0.149299  -0.466424
    O   O18  0.393531  0.707090  0.717990  -0.473260
    H   H6   0.361969  0.640340  0.663532  0.147971
    O   O19  0.414805  0.414339  0.850053  -0.452148
    O   O20  0.608959  0.292917  0.279017  -0.483898
    H   H7   0.639957  0.359823  0.333226  0.136118
    H   H8   0.632829  0.463077  0.286645  0.121019
    C   C37  0.515686  0.230028  0.240269  -0.222668
    H   H9   0.505337  0.224097  0.344206  0.191585
    C   C38  0.525412  0.172237  0.262027  0.042779
    C   C39  0.535870  0.179189  0.129890  -0.009410
    C   C40  0.538955  0.243796  0.977053  -0.098957
    H   H10  0.547041  0.249924  0.872710  0.131495
    C   C41  0.531108  0.301184  0.955751  -0.169312
    H   H11  0.536518  0.350897  0.835757  0.141716
    C   C42  0.518941  0.294707  0.087035  0.236072
    C   C43  0.487551  0.769365  0.757652  -0.235058
    H   H12  0.497812  0.775313  0.653685  0.191280
    C   C44  0.478262  0.827095  0.736017  0.036173
    C   C45  0.467803  0.820129  0.868160  -0.011770
    C   C46  0.464443  0.755549  0.020941  -0.090684
    H   H13  0.456426  0.749411  0.125300  0.129215
    C   C47  0.471978  0.698202  0.042143  -0.224023
    H   H14  0.466457  0.648494  0.162075  0.163873
    C   C48  0.483958  0.704724  0.910787  0.277011
    N   N3   0.828534  0.021867  0.130484  -0.523525
    H   H15  0.860421  0.064518  0.061494  0.282197
    H   H16  0.870422  0.978338  0.223954  0.272642
    N   N4   0.356631  0.538708  0.683717  -0.605123
    H   H17  0.292148  0.554635  0.690650  0.265999
    H   H18  0.376222  0.577281  0.565649  0.263866
