# Generated by REPEAT Assigner based on pymatgen
data_DB0-m29_o88_o147_f0_pts.sym.27
_audit_creation_date              2022-05-24
_audit_creation_method            REPEAT_Assigner
_cell_length_a                    15.320636
_cell_length_b                    9.311339
_cell_length_c                    16.313285
_cell_angle_alpha                 92.024387
_cell_angle_beta                  102.926816
_cell_angle_gamma                 107.477278
_cell_volume                      2150.301570
_symmetry_space_group_name_H-M    P1
_symmetry_Int_Tables_number       1
loop_
    _symmetry_equiv_pos_site_id
    _symmetry_equiv_pos_as_xyz
    1  x,y,z
loop_
    _atom_site_type_symbol
    _atom_site_label
    _atom_site_fract_x
    _atom_site_fract_y
    _atom_site_fract_z
    _atom_type_partial_charge
    C   C1   0.810154  0.030425  0.144711  0.018583
    H   H1   0.804637  0.047909  0.208964  0.109102
    C   C2   0.894601  0.025174  0.131063  -0.187857
    C   C3   0.902158  0.994795  0.049800  0.375707
    C   C4   0.824574  0.975023  0.982542  -0.310243
    H   H2   0.829016  0.949403  0.918984  0.185308
    C   C5   0.739668  0.982478  0.995795  0.101555
    C   C6   0.731797  0.004696  0.078243  -0.097547
    C   C7   0.991158  0.978255  0.036939  -0.204455
    C   C8   0.019049  0.006498  0.965343  -0.182154
    H   H3   0.033907  0.938645  0.087277  0.128766
    H   H4   0.975984  0.042783  0.913491  0.128694
    C   C9   0.116973  0.967404  0.872132  -0.210170
    H   H5   0.057596  0.954469  0.818944  0.142351
    C   C10  0.201339  0.962581  0.857947  -0.095074
    H   H6   0.207482  0.949088  0.793605  0.142042
    C   C11  0.279300  0.984932  0.924550  -0.039812
    C   C12  0.271027  0.004554  0.007192  0.064060
    C   C13  0.185770  0.009643  0.020648  -0.211704
    H   H7   0.180921  0.032861  0.084337  0.145971
    C   C14  0.108661  0.991949  0.953376  0.274500
    O   O1   0.539154  0.197412  0.773433  -0.603013
    C   C15  0.482379  0.198663  0.700150  0.621434
    O   O2   0.441444  0.126836  0.936515  -0.449811
    O   O3   0.412075  0.076107  0.665863  -0.542218
    O   O4   0.375860  0.915156  0.842729  -0.574856
    C   C16  0.370194  0.004336  0.904196  0.634272
    Fe  Fe1  0.499909  0.997227  0.815678  1.387634
    O   O5   0.588158  0.011026  0.929078  -0.441079
    O   O6   0.671462  0.941729  0.845474  -0.522405
    C   C17  0.662112  0.972992  0.921451  0.521989
    O   O7   0.500264  0.859851  0.718264  -0.505819
    O   O8   0.497257  0.700835  0.819259  -0.464482
    C   C18  0.499788  0.725824  0.741011  0.606033
    O   O9   0.512902  0.134752  0.285426  -0.550811
    O   O10  0.503911  0.286427  0.181385  -0.467249
    C   C19  0.506311  0.264626  0.260798  0.613259
    O   O11  0.425951  0.988529  0.073677  -0.428151
    O   O12  0.336323  0.033989  0.157872  -0.490136
    C   C20  0.348403  0.013967  0.081671  0.502609
    O   O13  0.596420  0.909586  0.334382  -0.524441
    O   O14  0.637073  0.071992  0.162571  -0.564047
    C   C21  0.641125  0.986406  0.098709  0.621729
    O   O15  0.466743  0.795812  0.228341  -0.589528
    C   C22  0.522347  0.791446  0.301559  0.614624
    O   O16  0.568152  0.868018  0.063514  -0.449382
    Fe  Fe2  0.511644  0.996290  0.187696  1.391974
    C   C23  0.500457  0.466987  0.713665  -0.058312
    C   C24  0.491277  0.341276  0.662162  -0.079453
    C   C25  0.487407  0.350101  0.576871  0.072862
    C   C26  0.468716  0.207544  0.522349  -0.046544
    C   C27  0.490928  0.225531  0.437099  -0.174919
    C   C28  0.500603  0.601843  0.681407  -0.142780
    C   C29  0.499905  0.613096  0.595703  0.021444
    C   C30  0.495500  0.487391  0.543823  -0.045579
    C   C31  0.498637  0.498604  0.454777  0.022879
    C   C32  0.497431  0.374170  0.403665  0.111375
    C   C33  0.503761  0.388073  0.319618  -0.165821
    C   C34  0.501921  0.760179  0.561649  0.235255
    C   C35  0.504504  0.771880  0.470290  -0.199423
    C   C36  0.506943  0.635830  0.421716  0.022753
    C   C37  0.511313  0.647604  0.338324  -0.055297
    C   C38  0.508186  0.524605  0.288007  -0.037494
    H   H8   0.512154  0.140293  0.554604  0.056000
    H   H9   0.558555  0.202417  0.440854  0.117858
    H   H10  0.566274  0.848988  0.598659  0.034125
    H   H11  0.568614  0.867603  0.471711  0.159192
    H   H12  0.393067  0.140913  0.511925  0.084210
    H   H13  0.432129  0.137434  0.393131  0.177567
    H   H14  0.437926  0.786969  0.568427  0.007989
    H   H15  0.501720  0.454793  0.779446  0.154039
    H   H16  0.513298  0.539683  0.223733  0.142613
    Br  Br1  0.394526  0.822726  0.413434  -0.053765
    Br  Br2  0.999298  0.059551  0.226773  0.013470
