# Generated by REPEAT Assigner based on pymatgen
data_DB0-m29_o99_o1510_f0_pts.sym.36
_audit_creation_date              2022-05-24
_audit_creation_method            REPEAT_Assigner
_cell_length_a                    15.964655
_cell_length_b                    20.330167
_cell_length_c                    13.697514
_cell_angle_alpha                 87.637520
_cell_angle_beta                  97.588785
_cell_angle_gamma                 105.108893
_cell_volume                      4254.342914
_symmetry_space_group_name_H-M    P1
_symmetry_Int_Tables_number       1
loop_
    _symmetry_equiv_pos_site_id
    _symmetry_equiv_pos_as_xyz
    1  x,y,z
loop_
    _atom_site_type_symbol
    _atom_site_label
    _atom_site_fract_x
    _atom_site_fract_y
    _atom_site_fract_z
    _atom_type_partial_charge
    C   C1   0.210345  0.991545  0.852462  -0.135968
    H   H1   0.218429  0.985545  0.776500  0.170864
    C   C2   0.129753  0.993253  0.875506  -0.151179
    H   H2   0.074896  0.987345  0.818215  0.107362
    C   C3   0.119611  0.004744  0.970859  0.276300
    C   C4   0.189386  0.011815  0.044245  -0.216869
    H   H3   0.178971  0.018757  0.119066  0.163652
    C   C5   0.270991  0.009625  0.022210  0.062501
    C   C6   0.281642  0.001596  0.924285  -0.030141
    C   C7   0.035947  0.009563  0.992748  -0.120137
    C   C8   0.964989  0.013688  0.008591  -0.176040
    C   C9   0.811211  0.008088  0.950733  -0.110787
    C   C10  0.726882  0.006773  0.970529  0.003746
    C   C11  0.713781  0.012249  0.068718  -0.021953
    C   C12  0.784125  0.025662  0.141745  -0.178563
    H   H4   0.773769  0.030082  0.217342  0.180074
    C   C13  0.866757  0.028928  0.120788  -0.141236
    H   H5   0.920707  0.036638  0.179407  0.141001
    C   C14  0.879902  0.018049  0.026455  0.267087
    O   O1   0.534389  0.095580  0.732674  -0.560098
    C   C15  0.470953  0.106690  0.668141  0.594590
    O   O2   0.430208  0.064578  0.914874  -0.499738
    O   O3   0.396056  0.060168  0.658314  -0.541373
    O   O4   0.377586  0.966787  0.827690  -0.550451
    C   C16  0.367310  0.009459  0.891616  0.653753
    Fe  Fe1  0.493699  0.001225  0.781813  1.428257
    O   O5   0.573318  0.991769  0.904790  -0.487544
    O   O6   0.673503  0.025092  0.799417  -0.472992
    C   C17  0.655271  0.005532  0.888395  0.558486
    O   O7   0.492770  0.948089  0.661317  -0.551410
    O   O8   0.488389  0.854081  0.759661  -0.526351
    C   C18  0.491612  0.883400  0.672593  0.554737
    O   O9   0.490727  0.048358  0.329742  -0.548070
    O   O10  0.521540  0.145832  0.237500  -0.494587
    C   C19  0.505375  0.114888  0.321547  0.614880
    O   O11  0.413642  0.995277  0.088753  -0.506098
    O   O12  0.330957  0.024736  0.193464  -0.506425
    C   C20  0.342204  0.011973  0.103700  0.520353
    O   O13  0.607507  0.949632  0.340496  -0.580676
    O   O14  0.610613  0.039878  0.162814  -0.560032
    C   C21  0.627105  0.998487  0.101177  0.680478
    O   O15  0.472116  0.901835  0.265216  -0.601595
    C   C22  0.538481  0.897449  0.330522  0.644430
    O   O16  0.572381  0.938293  0.084981  -0.496438
    Fe  Fe2  0.497811  0.995840  0.211502  1.446015
    H   H6   0.518427  0.937837  0.497216  0.157347
    C   C23  0.521210  0.853375  0.415979  0.087851
    C   C24  0.516354  0.784808  0.415529  -0.208507
    H   H7   0.527549  0.763315  0.349190  0.129369
    C   C25  0.502273  0.745928  0.500731  0.065717
    C   C26  0.492749  0.777447  0.585728  -0.175754
    H   H8   0.479394  0.748370  0.652194  0.131039
    C   C27  0.498647  0.846639  0.585298  0.091252
    C   C28  0.513062  0.883766  0.500117  -0.175457
    C   C29  0.568634  0.440246  0.558149  -0.124853
    H   H9   0.617952  0.474316  0.607181  0.112036
    C   C30  0.569864  0.372625  0.557753  -0.163261
    H   H10  0.618244  0.355284  0.607520  0.124238
    C   C31  0.511325  0.327759  0.492779  0.134314
    C   C32  0.450626  0.350838  0.429118  -0.148952
    H   H11  0.402880  0.315824  0.379582  0.125091
    C   C33  0.447183  0.417833  0.431669  -0.136443
    H   H12  0.395660  0.432858  0.384274  0.116548
    C   C34  0.506466  0.463599  0.495939  0.063071
    C   C35  0.511288  0.222368  0.408363  -0.173672
    H   H13  0.517428  0.250850  0.340142  0.126431
    C   C36  0.504297  0.153055  0.409904  0.041822
    C   C37  0.493855  0.117479  0.497229  -0.183916
    H   H14  0.485544  0.063030  0.500480  0.169503
    C   C38  0.492831  0.149871  0.582755  0.107619
    C   C39  0.502468  0.219197  0.582452  -0.222025
    H   H15  0.498216  0.244103  0.649164  0.135434
    C   C40  0.510257  0.255452  0.494754  0.087755
    C   C41  0.473855  0.567426  0.414017  -0.134058
    H   H16  0.454114  0.541012  0.344670  0.117470
    C   C42  0.470965  0.634557  0.415839  -0.175492
    H   H17  0.445066  0.656275  0.349037  0.138839
    C   C43  0.500064  0.672639  0.500940  0.138639
    C   C44  0.529512  0.640986  0.585103  -0.164400
    H   H18  0.554531  0.668796  0.652733  0.132178
    C   C45  0.530012  0.573213  0.584011  -0.140810
    H   H19  0.551263  0.550349  0.652147  0.119284
    C   C46  0.503364  0.535724  0.498080  0.098638
    C   C47  0.828709  0.993518  0.852492  0.174456
    C   C48  0.794881  0.929028  0.813547  -0.115574
    C   C49  0.811399  0.914988  0.721371  -0.293168
    C   C50  0.861880  0.965472  0.667663  0.392995
    C   C51  0.880234  0.951027  0.568081  -0.429724
    C   C52  0.895681  0.029893  0.706457  -0.261135
    C   C53  0.879232  0.043933  0.798634  -0.030831
    H   H20  0.755544  0.889316  0.855464  0.117281
    H   H21  0.784562  0.864275  0.691849  0.150379
    H   H22  0.848460  0.897196  0.548052  0.100948
    H   H23  0.951875  0.960731  0.567940  0.116333
    H   H24  0.854649  0.984878  0.513113  0.135627
    H   H25  0.935169  0.069523  0.664558  0.125485
    H   H26  0.905656  0.094596  0.828489  0.091230
