# generated using pymatgen
data_Cu3H19C41O14
_symmetry_space_group_name_H-M   'P 1'
_cell_length_a   28.56930100
_cell_length_b   18.03608900
_cell_length_c   16.81697200
_cell_angle_alpha   90.00000000
_cell_angle_beta   62.08811100
_cell_angle_gamma   90.00000000
_symmetry_Int_Tables_number   1
_chemical_formula_structural   Cu3H19C41O14
_chemical_formula_sum   'Cu12 H76 C164 O56'
_cell_volume   7657.36178750
_cell_formula_units_Z   4
loop_
 _symmetry_equiv_pos_site_id
 _symmetry_equiv_pos_as_xyz
  1  'x, y, z'
loop_
 _atom_site_type_symbol
 _atom_site_label
 _atom_site_symmetry_multiplicity
 _atom_site_fract_x
 _atom_site_fract_y
 _atom_site_fract_z
 _atom_site_occupancy
  Cu  Cu1  1  0.21313900  0.79313600  0.49567200  1
  Cu  Cu2  1  0.78650100  0.20796600  0.50410900  1
  Cu  Cu3  1  0.78686100  0.79313600  0.50432800  1
  Cu  Cu4  1  0.21349900  0.20796500  0.49589100  1
  Cu  Cu5  1  0.71313900  0.29313600  0.49567100  1
  Cu  Cu6  1  0.28650100  0.70796500  0.50410900  1
  Cu  Cu7  1  0.28686100  0.29313600  0.50432800  1
  Cu  Cu8  1  0.71349900  0.70796600  0.49589100  1
  Cu  Cu9  1  0.49845700  0.50096000  0.92189800  1
  Cu  Cu10  1  0.50154300  0.50096000  0.07810200  1
  Cu  Cu11  1  0.99845700  0.00096000  0.92189800  1
  Cu  Cu12  1  0.00154300  0.00096000  0.07810200  1
  H  H1  1  0.53520700  0.75055100  0.52137400  1
  H  H2  1  0.46502700  0.25007300  0.47805000  1
  H  H3  1  0.46479300  0.75055100  0.47862900  1
  H  H4  1  0.53497400  0.25007300  0.52194800  1
  H  H5  1  0.03520800  0.25055100  0.52137100  1
  H  H6  1  0.96502600  0.75007300  0.47805200  1
  H  H7  1  0.96479300  0.25055100  0.47862600  1
  H  H8  1  0.03497300  0.75007300  0.52195000  1
  H  H9  1  0.28269600  0.00058600  0.45550800  1
  H  H10  1  0.71730400  0.00058700  0.54449200  1
  H  H11  1  0.78269600  0.50058700  0.45550800  1
  H  H12  1  0.21730400  0.50058600  0.54449200  1
  H  H13  1  0.58900400  0.81595400  0.56333900  1
  H  H14  1  0.41153800  0.18456200  0.43531900  1
  H  H15  1  0.41099600  0.81595400  0.43666200  1
  H  H16  1  0.58846200  0.18456200  0.56468000  1
  H  H17  1  0.08900400  0.31595400  0.56333700  1
  H  H18  1  0.91153800  0.68456200  0.43532000  1
  H  H19  1  0.91099600  0.31595400  0.43666000  1
  H  H20  1  0.08846200  0.68456200  0.56468100  1
  H  H21  1  0.15568800  0.72287700  0.06214000  1
  H  H22  1  0.84482200  0.28201900  0.93890600  1
  H  H23  1  0.84431200  0.72287700  0.93786000  1
  H  H24  1  0.15517800  0.28201900  0.06109400  1
  H  H25  1  0.65568800  0.22287700  0.06213900  1
  H  H26  1  0.34482200  0.78201900  0.93890600  1
  H  H27  1  0.34431200  0.22287700  0.93786000  1
  H  H28  1  0.65517800  0.78201900  0.06109400  1
  H  H29  1  0.13225600  0.84848000  0.01434400  1
  H  H30  1  0.86914100  0.15506100  0.98432400  1
  H  H31  1  0.86774400  0.84848000  0.98565600  1
  H  H32  1  0.13085900  0.15506100  0.01567500  1
  H  H33  1  0.63225600  0.34848000  0.01434400  1
  H  H34  1  0.36914100  0.65506100  0.98432500  1
  H  H35  1  0.36774400  0.34848000  0.98565600  1
  H  H36  1  0.63085900  0.65506100  0.01567500  1
  H  H37  1  0.11988500  0.84968300  0.77098900  1
  H  H38  1  0.88002400  0.15242700  0.22889400  1
  H  H39  1  0.88011500  0.84968300  0.22901100  1
  H  H40  1  0.11997600  0.15242700  0.77110500  1
  H  H41  1  0.61988500  0.34968300  0.77098900  1
  H  H42  1  0.38002400  0.65242700  0.22889400  1
  H  H43  1  0.38011500  0.34968300  0.22901100  1
  H  H44  1  0.61997600  0.65242700  0.77110500  1
  H  H45  1  0.24728600  0.73663800  0.78185000  1
  H  H46  1  0.75101800  0.26176700  0.21815100  1
  H  H47  1  0.75271400  0.73663800  0.21815000  1
  H  H48  1  0.24898300  0.26176700  0.78184900  1
  H  H49  1  0.74728600  0.23663800  0.78184900  1
  H  H50  1  0.25101800  0.76176700  0.21815100  1
  H  H51  1  0.25271400  0.23663800  0.21815000  1
  H  H52  1  0.74898200  0.76176700  0.78184900  1
  H  H53  1  0.32953800  0.71972500  0.79394100  1
  H  H54  1  0.38007100  0.78905400  0.77356000  1
  H  H55  1  0.34477100  0.78909700  0.70827300  1
  H  H56  1  0.73007900  0.09267300  0.06865500  1
  H  H57  1  0.65899200  0.09019100  0.13967500  1
  H  H58  1  0.70330100  0.06769000  0.18559700  1
  H  H59  1  0.67046200  0.71972500  0.20605900  1
  H  H60  1  0.61992900  0.78905400  0.22644000  1
  H  H61  1  0.65522900  0.78909700  0.29172700  1
  H  H62  1  0.26992200  0.09267300  0.93134500  1
  H  H63  1  0.34100800  0.09019100  0.86032500  1
  H  H64  1  0.29669900  0.06769000  0.81440300  1
  H  H65  1  0.82953800  0.21972500  0.79394000  1
  H  H66  1  0.88007100  0.28905400  0.77356000  1
  H  H67  1  0.84477100  0.28909700  0.70827300  1
  H  H68  1  0.23007900  0.59267300  0.06865500  1
  H  H69  1  0.15899200  0.59019100  0.13967500  1
  H  H70  1  0.20330100  0.56769000  0.18559700  1
  H  H71  1  0.17046300  0.21972500  0.20605900  1
  H  H72  1  0.11992900  0.28905400  0.22644000  1
  H  H73  1  0.15522900  0.28909700  0.29172700  1
  H  H74  1  0.76992200  0.59267300  0.93134500  1
  H  H75  1  0.84100800  0.59019100  0.86032500  1
  H  H76  1  0.79669900  0.56769000  0.81440300  1
  C  C1  1  0.29120300  0.72554100  0.32991000  1
  C  C2  1  0.70829600  0.27539700  0.66992000  1
  C  C3  1  0.70879700  0.72554100  0.67009000  1
  C  C4  1  0.29170400  0.27539700  0.33007900  1
  C  C5  1  0.79120300  0.22554100  0.32990900  1
  C  C6  1  0.20829600  0.77539700  0.66992100  1
  C  C7  1  0.20879700  0.22554100  0.67009000  1
  C  C8  1  0.79170400  0.77539700  0.33007900  1
  C  C9  1  0.18996600  0.63544100  0.52960900  1
  C  C10  1  0.80970400  0.36564100  0.47030400  1
  C  C11  1  0.81003400  0.63544100  0.47039100  1
  C  C12  1  0.19029600  0.36564100  0.52969500  1
  C  C13  1  0.68996600  0.13544100  0.52960900  1
  C  C14  1  0.30970400  0.86564100  0.47030400  1
  C  C15  1  0.31003400  0.13544100  0.47039100  1
  C  C16  1  0.69029600  0.86564100  0.52969600  1
  C  C17  1  0.04018800  0.63156200  0.52250700  1
  C  C18  1  0.95960600  0.36906700  0.47794600  1
  C  C19  1  0.95981200  0.63156300  0.47749400  1
  C  C20  1  0.04039500  0.36906700  0.52205200  1
  C  C21  1  0.54018800  0.13156300  0.52250600  1
  C  C22  1  0.45960600  0.86906700  0.47794800  1
  C  C23  1  0.45981200  0.13156200  0.47749200  1
  C  C24  1  0.54039400  0.86906700  0.52205300  1
  C  C25  1  0.01953800  0.69787600  0.51275200  1
  C  C26  1  0.98032000  0.30275700  0.48757400  1
  C  C27  1  0.98046200  0.69787600  0.48725000  1
  C  C28  1  0.01968000  0.30275700  0.51242300  1
  C  C29  1  0.51953800  0.19787600  0.51275000  1
  C  C30  1  0.48032000  0.80275700  0.48757700  1
  C  C31  1  0.48046200  0.19787600  0.48724800  1
  C  C32  1  0.51968000  0.80275700  0.51242500  1
  C  C33  1  0.97910400  0.56575600  0.49023800  1
  C  C34  1  0.02094600  0.43486400  0.50964700  1
  C  C35  1  0.02089600  0.56575500  0.50976200  1
  C  C36  1  0.97905400  0.43486400  0.49035200  1
  C  C37  1  0.47910400  0.06575500  0.49023700  1
  C  C38  1  0.52094600  0.93486400  0.50964800  1
  C  C39  1  0.52089600  0.06575600  0.50976200  1
  C  C40  1  0.47905400  0.93486400  0.49035300  1
  C  C41  1  0.45755400  0.00031000  0.48090600  1
  C  C42  1  0.54244600  0.00031000  0.51909400  1
  C  C43  1  0.95755400  0.50031000  0.48090600  1
  C  C44  1  0.04244600  0.50031000  0.51909400  1
  C  C45  1  0.39127700  0.93321700  0.46038400  1
  C  C46  1  0.60851700  0.06750100  0.53996100  1
  C  C47  1  0.60872400  0.93321700  0.53961700  1
  C  C48  1  0.39148300  0.06750100  0.46003800  1
  C  C49  1  0.89127700  0.43321700  0.46038300  1
  C  C50  1  0.10851700  0.56750100  0.53996200  1
  C  C51  1  0.10872400  0.43321700  0.53961600  1
  C  C52  1  0.89148300  0.56750100  0.46003800  1
  C  C53  1  0.34276300  0.93302300  0.45812300  1
  C  C54  1  0.65704700  0.06791700  0.54200300  1
  C  C55  1  0.65723700  0.93302300  0.54187700  1
  C  C56  1  0.34295300  0.06791600  0.45799600  1
  C  C57  1  0.84276300  0.43302300  0.45812200  1
  C  C58  1  0.15704700  0.56791600  0.54200300  1
  C  C59  1  0.15723700  0.43302300  0.54187700  1
  C  C60  1  0.84295300  0.56791700  0.45799700  1
  C  C61  1  0.32021900  0.00052600  0.45604700  1
  C  C62  1  0.67978100  0.00052700  0.54395200  1
  C  C63  1  0.82021900  0.50052700  0.45604700  1
  C  C64  1  0.17978100  0.50052600  0.54395200  1
  C  C65  1  0.41322900  0.00033400  0.46694500  1
  C  C66  1  0.58677200  0.00033400  0.53305400  1
  C  C67  1  0.91322900  0.50033400  0.46694500  1
  C  C68  1  0.08677200  0.50033400  0.53305400  1
  C  C69  1  0.58121000  0.86862200  0.54295900  1
  C  C70  1  0.41916100  0.13200000  0.45622200  1
  C  C71  1  0.41879000  0.86862200  0.45704200  1
  C  C72  1  0.58083900  0.13200000  0.54377700  1
  C  C73  1  0.08121000  0.36862200  0.54295800  1
  C  C74  1  0.91916100  0.63200000  0.45622300  1
  C  C75  1  0.91879000  0.36862200  0.45704100  1
  C  C76  1  0.08083900  0.63200000  0.54377800  1
  C  C77  1  0.22326600  0.77047000  0.95155500  1
  C  C78  1  0.77788100  0.23110800  0.04637600  1
  C  C79  1  0.77673400  0.77047000  0.04844500  1
  C  C80  1  0.22211900  0.23110800  0.95362300  1
  C  C81  1  0.72326600  0.27047000  0.95155500  1
  C  C82  1  0.27788100  0.73110800  0.04637700  1
  C  C83  1  0.27673400  0.27047000  0.04844500  1
  C  C84  1  0.72211900  0.73110800  0.95362300  1
  C  C85  1  0.27707600  0.78562300  0.91623900  1
  C  C86  1  0.72444800  0.21475700  0.08064400  1
  C  C87  1  0.72292400  0.78562300  0.08376000  1
  C  C88  1  0.27555300  0.21475700  0.91935600  1
  C  C89  1  0.77707600  0.28562300  0.91623900  1
  C  C90  1  0.22444700  0.71475700  0.08064400  1
  C  C91  1  0.22292400  0.28562300  0.08376000  1
  C  C92  1  0.77555300  0.71475700  0.91935600  1
  C  C93  1  0.30365300  0.76695400  0.96450800  1
  C  C94  1  0.69737000  0.23570200  0.03421100  1
  C  C95  1  0.69634700  0.76695400  0.03549200  1
  C  C96  1  0.30263000  0.23570200  0.96578900  1
  C  C97  1  0.80365300  0.26695400  0.96450800  1
  C  C98  1  0.19737000  0.73570200  0.03421100  1
  C  C99  1  0.19634700  0.26695400  0.03549200  1
  C  C100  1  0.80263000  0.73570200  0.96578900  1
  C  C101  1  0.14658100  0.83126600  0.94528700  1
  C  C102  1  0.85435200  0.17165000  0.05369800  1
  C  C103  1  0.85341900  0.83126600  0.05471300  1
  C  C104  1  0.14564900  0.17165000  0.94630200  1
  C  C105  1  0.64658100  0.33126600  0.94528600  1
  C  C106  1  0.35435200  0.67165000  0.05369800  1
  C  C107  1  0.35341900  0.33126600  0.05471300  1
  C  C108  1  0.64564900  0.67165000  0.94630200  1
  C  C109  1  0.11979100  0.85239600  0.89800100  1
  C  C110  1  0.88059900  0.14999400  0.10157700  1
  C  C111  1  0.88020900  0.85239600  0.10199800  1
  C  C112  1  0.11940200  0.14999400  0.89842300  1
  C  C113  1  0.61979100  0.35239600  0.89800100  1
  C  C114  1  0.38059900  0.64999400  0.10157700  1
  C  C115  1  0.38020900  0.35239600  0.10199800  1
  C  C116  1  0.61940200  0.64999400  0.89842300  1
  C  C117  1  0.13989800  0.83247800  0.80866500  1
  C  C118  1  0.86009500  0.16955600  0.19105600  1
  C  C119  1  0.86010200  0.83247800  0.19133500  1
  C  C120  1  0.13990600  0.16955600  0.80894400  1
  C  C121  1  0.63989800  0.33247800  0.80866400  1
  C  C122  1  0.36009500  0.66955600  0.19105600  1
  C  C123  1  0.36010200  0.33247800  0.19133500  1
  C  C124  1  0.63990500  0.66955600  0.80894400  1
  C  C125  1  0.18600300  0.79188600  0.76630200  1
  C  C126  1  0.81358600  0.20931300  0.23344700  1
  C  C127  1  0.81399700  0.79188700  0.23369800  1
  C  C128  1  0.18641400  0.20931300  0.76655200  1
  C  C129  1  0.68600300  0.29188700  0.76630200  1
  C  C130  1  0.31358600  0.70931300  0.23344800  1
  C  C131  1  0.31399700  0.29188600  0.23369700  1
  C  C132  1  0.68641400  0.70931300  0.76655200  1
  C  C133  1  0.21207500  0.77016800  0.81398200  1
  C  C134  1  0.78738300  0.23039200  0.18562600  1
  C  C135  1  0.78792500  0.77016800  0.18601800  1
  C  C136  1  0.21261700  0.23039200  0.81437400  1
  C  C137  1  0.71207500  0.27016800  0.81398100  1
  C  C138  1  0.28738300  0.73039200  0.18562600  1
  C  C139  1  0.28792500  0.27016800  0.18601800  1
  C  C140  1  0.71261700  0.73039200  0.81437400  1
  C  C141  1  0.19342600  0.79105900  0.90286600  1
  C  C142  1  0.80724300  0.21112000  0.09592700  1
  C  C143  1  0.80657400  0.79105900  0.09713400  1
  C  C144  1  0.19275800  0.21112000  0.90407300  1
  C  C145  1  0.69342600  0.29105900  0.90286600  1
  C  C146  1  0.30724300  0.71112000  0.09592700  1
  C  C147  1  0.30657400  0.29105900  0.09713400  1
  C  C148  1  0.69275800  0.71112000  0.90407300  1
  C  C149  1  0.92661200  0.90190200  0.06234500  1
  C  C150  1  0.07318400  0.10026300  0.93782100  1
  C  C151  1  0.07338800  0.90190200  0.93765500  1
  C  C152  1  0.92681600  0.10026300  0.06217900  1
  C  C153  1  0.42661200  0.40190200  0.06234500  1
  C  C154  1  0.57318400  0.60026300  0.93782100  1
  C  C155  1  0.57338800  0.40190200  0.93765500  1
  C  C156  1  0.42681600  0.60026300  0.06217900  1
  C  C157  1  0.34121900  0.77845200  0.77584000  1
  C  C158  1  0.69753200  0.10348500  0.13728000  1
  C  C159  1  0.65878100  0.77845200  0.22416000  1
  C  C160  1  0.30246800  0.10348500  0.86272000  1
  C  C161  1  0.84121900  0.27845200  0.77584000  1
  C  C162  1  0.19753200  0.60348500  0.13728000  1
  C  C163  1  0.15878100  0.27845200  0.22416000  1
  C  C164  1  0.80246800  0.60348500  0.86272000  1
  O  O1  1  0.26201800  0.87440300  0.47832000  1
  O  O2  1  0.73763200  0.12669900  0.52153800  1
  O  O3  1  0.73798200  0.87440300  0.52168000  1
  O  O4  1  0.26236800  0.12669900  0.47846200  1
  O  O5  1  0.76201800  0.37440300  0.47831900  1
  O  O6  1  0.23763200  0.62669900  0.52153800  1
  O  O7  1  0.23798200  0.37440300  0.52168000  1
  O  O8  1  0.76236800  0.62669900  0.47846200  1
  O  O9  1  0.18534500  0.80392000  0.62525900  1
  O  O10  1  0.81423500  0.19713900  0.37453500  1
  O  O11  1  0.81465500  0.80392100  0.37474100  1
  O  O12  1  0.18576500  0.19713900  0.62546500  1
  O  O13  1  0.68534600  0.30392100  0.62525800  1
  O  O14  1  0.31423500  0.69713900  0.37453500  1
  O  O15  1  0.31465500  0.30392000  0.37474100  1
  O  O16  1  0.68576500  0.69713900  0.62546500  1
  O  O17  1  0.24823700  0.76602600  0.36849500  1
  O  O18  1  0.75138600  0.23511600  0.63127600  1
  O  O19  1  0.75176300  0.76602600  0.63150500  1
  O  O20  1  0.24861400  0.23511600  0.36872400  1
  O  O21  1  0.74823700  0.26602600  0.36849500  1
  O  O22  1  0.25138600  0.73511600  0.63127600  1
  O  O23  1  0.25176300  0.26602600  0.63150500  1
  O  O24  1  0.74861400  0.73511600  0.36872400  1
  O  O25  1  0.17289800  0.70094400  0.52134200  1
  O  O26  1  0.82675800  0.30013100  0.47838500  1
  O  O27  1  0.82710200  0.70094400  0.47865800  1
  O  O28  1  0.17324200  0.30013000  0.52161500  1
  O  O29  1  0.67289800  0.20094400  0.52134200  1
  O  O30  1  0.32675800  0.80013000  0.47838500  1
  O  O31  1  0.32710200  0.20094400  0.47865800  1
  O  O32  1  0.67324200  0.80013100  0.52161500  1
  O  O33  1  0.05492500  0.92749600  0.88466700  1
  O  O34  1  0.94503400  0.07435600  0.11536200  1
  O  O35  1  0.94507600  0.92749600  0.11533300  1
  O  O36  1  0.05496600  0.07435600  0.88463700  1
  O  O37  1  0.55492500  0.42749600  0.88466700  1
  O  O38  1  0.44503400  0.57435600  0.11536300  1
  O  O39  1  0.44507600  0.42749600  0.11533300  1
  O  O40  1  0.55496600  0.57435600  0.88463700  1
  O  O41  1  0.94530100  0.92311600  0.97825300  1
  O  O42  1  0.05460100  0.07892500  0.02184400  1
  O  O43  1  0.05470000  0.92311600  0.02174600  1
  O  O44  1  0.94539900  0.07892500  0.97815600  1
  O  O45  1  0.44530100  0.42311600  0.97825300  1
  O  O46  1  0.55460100  0.57892500  0.02184400  1
  O  O47  1  0.55470000  0.42311600  0.02174600  1
  O  O48  1  0.44539900  0.57892500  0.97815600  1
  O  O49  1  0.30287000  0.82580000  0.83836400  1
  O  O50  1  0.69792600  0.17774100  0.16055800  1
  O  O51  1  0.69713000  0.82580100  0.16163600  1
  O  O52  1  0.30207500  0.17774100  0.83944100  1
  O  O53  1  0.80287000  0.32580100  0.83836400  1
  O  O54  1  0.19792600  0.67774100  0.16055800  1
  O  O55  1  0.19713100  0.32580000  0.16163600  1
  O  O56  1  0.80207500  0.67774100  0.83944200  1
