# Generated by REPEAT Assigner based on pymatgen
data_DB0-m3_o22_o23_f0_nbo.sym.151_sqe
_audit_creation_date              2022-05-24
_audit_creation_method            REPEAT_Assigner
_cell_length_a                    21.526027
_cell_length_b                    21.511183
_cell_length_c                    22.042236
_cell_angle_alpha                 119.192386
_cell_angle_beta                  119.205728
_cell_angle_gamma                 90.012725
_cell_volume                      7387.736680
_symmetry_space_group_name_H-M    P1
_symmetry_Int_Tables_number       1
loop_
    _symmetry_equiv_pos_site_id
    _symmetry_equiv_pos_as_xyz
    1  x,y,z
loop_
    _atom_site_type_symbol
    _atom_site_label
    _atom_site_fract_x
    _atom_site_fract_y
    _atom_site_fract_z
    _atom_type_partial_charge
    O   O1   0.443079  0.090770  0.495584  -0.654812
    O   O2   0.556921  0.909230  0.504416  -0.654799
    O   O3   0.553968  0.093906  0.503158  -0.680194
    O   O4   0.446033  0.906094  0.496842  -0.680209
    C   C1   0.498472  0.121143  0.498903  0.352242
    C   C2   0.501528  0.878857  0.501097  0.352239
    O   O5   0.507466  0.063592  0.623099  -0.702622
    O   O6   0.492534  0.936409  0.376901  -0.702580
    O   O7   0.616540  0.062201  0.626786  -0.696476
    O   O8   0.383461  0.937800  0.373214  -0.696450
    C   C3   0.580763  0.082477  0.663858  0.851075
    C   C4   0.419237  0.917523  0.336143  0.850995
    Zn  Zn1  0.428678  0.999141  0.498020  1.317349
    Zn  Zn2  0.571323  0.000859  0.501980  1.317312
    H   H1   0.708328  0.606256  0.512296  0.024939
    H   H2   0.291672  0.393744  0.487704  0.024927
    H   H3   0.744661  0.506861  0.391861  0.020318
    H   H4   0.255339  0.493139  0.608139  0.020306
    H   H5   0.634456  0.483952  0.376033  0.088488
    H   H6   0.365544  0.516049  0.623967  0.088484
    C   C5   0.742263  0.468874  0.411636  -0.100598
    C   C6   0.257737  0.531126  0.588364  -0.100555
    H   H7   0.857144  0.603518  0.622881  -0.012445
    H   H8   0.142856  0.396482  0.377119  -0.012452
    C   C7   0.809299  0.501966  0.500219  0.610392
    C   C8   0.190701  0.498034  0.499781  0.610619
    C   C9   0.812516  0.581234  0.556722  -0.050073
    C   C10  0.187484  0.418766  0.443278  -0.050124
    C   C11  0.664786  0.255434  0.953940  -0.130804
    C   C12  0.335214  0.744566  0.046061  -0.130714
    C   C13  0.780012  0.260606  0.952748  -0.139117
    C   C14  0.219988  0.739394  0.047252  -0.139069
    C   C15  0.831557  0.299688  0.046752  -0.187874
    C   C16  0.168444  0.700312  0.953248  -0.188012
    H   H9   0.729527  0.367225  0.065359  0.062257
    H   H10  0.270474  0.632775  0.934641  0.062290
    H   H11  0.807746  0.226678  0.923194  0.061887
    H   H12  0.192255  0.773323  0.076807  0.061880
    H   H13  0.768989  0.302781  0.936958  0.059153
    H   H14  0.231012  0.697219  0.063042  0.059137
    H   H15  0.878103  0.275424  0.061475  0.090393
    H   H16  0.121897  0.724576  0.938525  0.090415
    C   C17  0.872357  0.370740  0.246259  -0.051973
    C   C18  0.127644  0.629260  0.753741  -0.052020
    C   C19  0.707569  0.209576  0.920895  0.607069
    C   C20  0.292432  0.790424  0.079105  0.607206
    C   C21  0.716616  0.308913  0.048192  -0.183539
    C   C22  0.283384  0.691087  0.951808  -0.183656
    C   C23  0.787740  0.287456  0.079094  0.690270
    C   C24  0.212260  0.712544  0.920906  0.690308
    C   C25  0.766517  0.205114  0.046432  -0.143293
    C   C26  0.233484  0.794886  0.953568  -0.143446
    C   C27  0.726332  0.158468  0.951859  -0.135489
    C   C28  0.273668  0.841532  0.048141  -0.135505
    C   C29  0.834137  0.332753  0.170751  -0.450176
    C   C30  0.165864  0.667247  0.829249  -0.450118
    C   C31  0.661503  0.164405  0.829242  -0.409142
    C   C32  0.338497  0.835595  0.170758  -0.409313
    C   C33  0.624245  0.127098  0.753737  -0.084106
    C   C34  0.375755  0.872902  0.246263  -0.083998
    H   H17  0.674226  0.116205  0.923076  0.050342
    H   H18  0.325775  0.883795  0.076924  0.050336
    H   H19  0.763019  0.129192  0.934349  0.043543
    H   H20  0.236982  0.870808  0.065651  0.043568
    H   H21  0.729074  0.193915  0.063406  0.042754
    H   H22  0.270926  0.806085  0.936594  0.042804
    H   H23  0.617054  0.217182  0.938337  0.078381
    H   H24  0.382946  0.782818  0.061663  0.078357
    H   H25  0.688161  0.304834  0.077217  0.072120
    H   H26  0.311839  0.695166  0.922783  0.072138
    H   H27  0.817558  0.189944  0.074445  0.042404
    H   H28  0.182443  0.810056  0.925555  0.042448
    C   C35  0.425240  0.206353  0.480824  -0.138104
    C   C36  0.574760  0.793647  0.519176  -0.138083
    H   H29  0.419601  0.220520  0.533133  0.009368
    H   H30  0.580399  0.779480  0.466868  0.009368
    H   H31  0.377541  0.156711  0.421579  0.022021
    H   H32  0.622459  0.843289  0.578421  0.022021
    C   C37  0.423436  0.271892  0.471870  -0.113154
    C   C38  0.576565  0.728108  0.528130  -0.113167
    H   H33  0.382481  0.251473  0.405360  0.012111
    H   H34  0.617519  0.748528  0.594640  0.012105
    H   H35  0.406069  0.312822  0.510892  0.034782
    H   H36  0.593931  0.687178  0.489109  0.034774
    H   H37  0.558410  0.259695  0.633793  0.035463
    H   H38  0.441591  0.740305  0.366208  0.035442
    H   H39  0.540410  0.361341  0.630352  0.019289
    H   H40  0.459591  0.638659  0.369648  0.019337
    C   C39  0.562497  0.256120  0.584008  -0.130687
    C   C40  0.437504  0.743880  0.415992  -0.130520
    C   C41  0.510459  0.181288  0.432565  -0.141548
    C   C42  0.489542  0.818712  0.567435  -0.141354
    C   C43  0.499016  0.190537  0.498907  0.666665
    C   C44  0.500984  0.809464  0.501093  0.666524
    H   H41  0.561338  0.164699  0.440862  0.021762
    H   H42  0.438663  0.835301  0.559138  0.021722
    H   H43  0.461107  0.137481  0.369480  -0.005951
    H   H44  0.538893  0.862519  0.630520  -0.005992
    C   C45  0.500667  0.308984  0.500088  0.311650
    C   C46  0.499333  0.691017  0.499912  0.311823
    C   C47  0.557714  0.327847  0.587464  -0.110224
    C   C48  0.442286  0.672154  0.412536  -0.110454
    C   C49  0.519768  0.254979  0.439976  -0.079086
    C   C50  0.480232  0.745022  0.560024  -0.079242
    H   H45  0.482113  0.244170  0.376904  0.045583
    H   H46  0.517887  0.755830  0.623096  0.045603
    H   H47  0.578547  0.279255  0.463996  0.023031
    H   H48  0.421453  0.720745  0.536004  0.023054
    H   H49  0.616988  0.248461  0.594437  0.008338
    H   H50  0.383013  0.751539  0.405563  0.008303
    H   H51  0.613852  0.359977  0.611820  0.027955
    H   H52  0.386148  0.640023  0.388180  0.028010
    H   H53  0.747607  0.613497  0.609717  0.055372
    H   H54  0.252393  0.386503  0.390283  0.055365
    C   C51  0.737633  0.580291  0.546655  -0.182936
    C   C52  0.262367  0.419709  0.453345  -0.182880
    C   C53  0.800499  0.454741  0.530720  -0.147304
    C   C54  0.199501  0.545259  0.469280  -0.147377
    C   C55  0.735686  0.463120  0.540788  -0.116652
    C   C56  0.264314  0.536880  0.459212  -0.116641
    H   H55  0.789050  0.394856  0.484664  0.016556
    H   H56  0.210950  0.605144  0.515336  0.016570
    H   H57  0.852242  0.473787  0.592215  0.037600
    H   H58  0.147758  0.526214  0.407785  0.037622
    C   C57  0.690129  0.499870  0.497835  0.440551
    C   C58  0.309872  0.500130  0.502165  0.440434
    C   C59  0.670774  0.459236  0.408461  -0.186061
    C   C60  0.329226  0.540764  0.591539  -0.186078
    H   H59  0.742811  0.413598  0.368291  0.024230
    H   H60  0.257189  0.586403  0.631709  0.024199
    H   H61  0.824370  0.618530  0.539906  0.010392
    H   H62  0.175630  0.381470  0.460095  0.010398
    O   O9   0.905913  0.553893  0.496700  -0.662799
    O   O10  0.094088  0.446108  0.503301  -0.662834
    O   O11  0.909832  0.450649  0.504437  -0.663271
    O   O12  0.090168  0.549352  0.495563  -0.663331
    C   C61  0.879088  0.502551  0.501083  0.361609
    C   C62  0.120912  0.497449  0.498917  0.361599
    O   O13  0.934801  0.489937  0.373215  -0.662183
    O   O14  0.065199  0.510064  0.626785  -0.662220
    O   O15  0.939781  0.384426  0.376883  -0.707221
    O   O16  0.060219  0.615574  0.623117  -0.707266
    C   C63  0.917787  0.417047  0.336139  0.815276
    C   C64  0.082214  0.582953  0.663861  0.815367
    Zn  Zn3  0.999507  0.569333  0.498027  1.314245
    Zn  Zn4  0.000493  0.430667  0.501973  1.314237
    H   H63  0.758358  0.499142  0.608570  0.024918
    H   H64  0.241642  0.500858  0.391430  0.024915
    H   H65  0.700617  0.407590  0.514483  0.047496
    H   H66  0.299383  0.592410  0.485517  0.047498
    O   O17  0.370134  0.465610  0.428043  -0.680767
    O   O18  0.629866  0.534390  0.571958  -0.680795
    O   O19  0.444900  0.533602  0.572399  -0.671844
    O   O20  0.555101  0.466398  0.427601  -0.671896
    C   C65  0.378840  0.499956  0.501115  0.494064
    C   C66  0.621160  0.500044  0.498885  0.494106
    O   O21  0.462310  0.372528  0.429170  -0.698848
    O   O22  0.537691  0.627472  0.570830  -0.698837
    O   O23  0.540049  0.443522  0.573559  -0.690090
    O   O24  0.459952  0.556478  0.426441  -0.690119
    C   C67  0.501272  0.378786  0.500971  0.558405
    C   C68  0.498728  0.621214  0.499030  0.558402
    Zn  Zn5  0.451285  0.453079  0.405245  1.317917
    Zn  Zn6  0.548715  0.546921  0.594755  1.317886
    C   C69  0.632089  0.378893  0.360164  0.369810
    N   N1   0.601561  0.315546  0.322086  -0.501096
    C   C70  0.367911  0.621108  0.639836  0.369815
    N   N2   0.398439  0.684454  0.677914  -0.501098
    C   C71  0.635584  0.297569  0.915974  0.346818
    N   N3   0.612499  0.330877  0.885989  -0.444923
    C   C72  0.364417  0.702431  0.084026  0.346766
    N   N4   0.387501  0.669123  0.114011  -0.444904
    C   C73  0.863083  0.379756  0.086353  0.362306
    N   N5   0.888003  0.443022  0.117625  -0.453381
    C   C74  0.136917  0.620244  0.913647  0.362397
    N   N6   0.111997  0.556979  0.882375  -0.453419
