# generated using pymatgen
data_Fe2H24C60N2O21
_symmetry_space_group_name_H-M   'P 1'
_cell_length_a   14.03444100
_cell_length_b   24.38405500
_cell_length_c   10.92771600
_cell_angle_alpha   119.33670000
_cell_angle_beta   94.39382200
_cell_angle_gamma   76.88435500
_symmetry_Int_Tables_number   1
_chemical_formula_structural   Fe2H24C60N2O21
_chemical_formula_sum   'Fe2 H24 C60 N2 O21'
_cell_volume   3172.38314427
_cell_formula_units_Z   1
loop_
 _symmetry_equiv_pos_site_id
 _symmetry_equiv_pos_as_xyz
  1  'x, y, z'
loop_
 _atom_site_type_symbol
 _atom_site_label
 _atom_site_symmetry_multiplicity
 _atom_site_fract_x
 _atom_site_fract_y
 _atom_site_fract_z
 _atom_site_occupancy
  Fe  Fe1  1  0.50705100  0.00152100  0.27840000  1
  Fe  Fe2  1  0.49669300  0.00923500  0.73728400  1
  H  H1  1  0.79682700  0.02855500  0.83598300  1
  H  H2  1  0.96209900  0.03336800  0.82079900  1
  H  H3  1  0.12898200  0.03437800  0.79930300  1
  H  H4  1  0.20884600  0.98060300  0.17886300  1
  H  H5  1  0.04462600  0.97507600  0.19342600  1
  H  H6  1  0.35067400  0.25749600  0.96450400  1
  H  H7  1  0.25375600  0.34160500  0.91942000  1
  H  H8  1  0.25774300  0.50233300  0.79334100  1
  H  H9  1  0.71489200  0.79581800  0.52884200  1
  H  H10  1  0.03358400  0.69671400  0.54241500  1
  H  H11  1  0.12364900  0.62464100  0.61416300  1
  H  H12  1  0.17163900  0.57671400  0.72507700  1
  H  H13  1  0.28518100  0.21125900  0.47933300  1
  H  H14  1  0.97431200  0.29717600  0.41990600  1
  H  H15  1  0.79214000  0.43970200  0.32185900  1
  H  H16  1  0.62680700  0.75072500  0.05011100  1
  H  H17  1  0.70813300  0.51352100  0.25124800  1
  H  H18  1  0.72172800  0.66454600  0.09043000  1
  H  H19  1  0.88558400  0.36790600  0.34425700  1
  H  H20  1  0.78603400  0.06247200  0.37146800  1
  H  H21  1  0.91399200  0.06350500  0.36540600  1
  H  H22  1  0.95423100  0.99920900  0.48860500  1
  H  H23  1  0.86573400  0.07364500  0.58967400  1
  H  H24  1  0.82608300  0.99816000  0.49453900  1
  C  C1  1  0.85619800  0.98764100  0.13457200  1
  C  C2  1  0.76150700  0.99141800  0.08663500  1
  C  C3  1  0.74039300  0.00614800  0.97814900  1
  C  C4  1  0.81281900  0.01808800  0.92165200  1
  C  C5  1  0.90727200  0.01198600  0.96609000  1
  C  C6  1  0.92950900  0.99590800  0.07109800  1
  C  C7  1  0.97986100  0.02079500  0.90320300  1
  C  C8  1  0.07497200  0.01372700  0.94543000  1
  C  C9  1  0.09762000  0.99715700  0.04937500  1
  C  C10  1  0.02523000  0.98823100  0.11222000  1
  C  C11  1  0.14735800  0.02302000  0.88335100  1
  C  C12  1  0.24257700  0.01732800  0.92705300  1
  C  C13  1  0.26453100  0.00265900  0.03553300  1
  C  C14  1  0.19231900  0.99103400  0.09320300  1
  C  C15  1  0.68410600  0.98315700  0.15617400  1
  C  C16  1  0.56873800  0.87617400  0.23802400  1
  C  C17  1  0.35870900  0.00710100  0.10348800  1
  C  C18  1  0.38970700  0.11113500  0.48623400  1
  C  C19  1  0.60911800  0.89729200  0.52789300  1
  C  C20  1  0.64616700  0.00221000  0.91011000  1
  C  C21  1  0.42228000  0.13357900  0.77851100  1
  C  C22  1  0.31853700  0.02397400  0.85261900  1
  C  C23  1  0.22626500  0.38681700  0.71440300  1
  C  C24  1  0.12479500  0.31538300  0.58546200  1
  C  C25  1  0.29906200  0.22142100  0.58628400  1
  C  C26  1  0.35580800  0.17374900  0.60978700  1
  C  C27  1  0.33813400  0.24673600  0.85699300  1
  C  C28  1  0.28315100  0.29468600  0.83184200  1
  C  C29  1  0.26195200  0.28171900  0.69613000  1
  C  C30  1  0.09601000  0.41660600  0.58891800  1
  C  C31  1  0.17353800  0.43092500  0.67574700  1
  C  C32  1  0.19874800  0.48904800  0.72252200  1
  C  C33  1  0.07128000  0.35849100  0.54495300  1
  C  C34  1  0.37408800  0.18550400  0.74685600  1
  C  C35  1  0.61533700  0.82332700  0.26765300  1
  C  C36  1  0.02460300  0.55841300  0.53683700  1
  C  C37  1  0.91083000  0.48917900  0.42145000  1
  C  C38  1  0.94236900  0.54505600  0.45744000  1
  C  C39  1  0.05714000  0.61289900  0.56265300  1
  C  C40  1  0.00610100  0.65473700  0.51865000  1
  C  C41  1  0.92187600  0.64323900  0.44676700  1
  C  C42  1  0.89086000  0.58821900  0.41444400  1
  C  C43  1  0.80723700  0.57724900  0.33983400  1
  C  C44  1  0.75491000  0.62171600  0.30188200  1
  C  C45  1  0.86844000  0.68679800  0.40748800  1
  C  C46  1  0.69611000  0.78603400  0.42331300  1
  C  C47  1  0.63937900  0.83467700  0.40303300  1
  C  C48  1  0.64415800  0.76131800  0.15644300  1
  C  C49  1  0.69818400  0.71225400  0.17878100  1
  C  C50  1  0.72617500  0.72497400  0.31225700  1
  C  C51  1  0.07296200  0.51695300  0.58712400  1
  C  C52  1  0.04432500  0.45962000  0.54562600  1
  C  C53  1  0.96490000  0.44472900  0.46056800  1
  C  C54  1  0.14905500  0.53166800  0.67963500  1
  C  C55  1  0.99441200  0.34293100  0.45803700  1
  C  C56  1  0.82511800  0.47952400  0.34772500  1
  C  C57  1  0.77444300  0.52291300  0.30747600  1
  C  C58  1  0.94205000  0.38517500  0.41592200  1
  C  C59  1  0.86207600  0.03536700  0.36540300  1
  C  C60  1  0.87810300  0.02596700  0.49309600  1
  N  N1  1  0.20201000  0.32959100  0.66758000  1
  N  N2  1  0.78549200  0.67596800  0.33759300  1
  O  O1  1  0.59336900  0.01460000  0.16445600  1
  O  O2  1  0.55529400  0.86413800  0.10778900  1
  O  O3  1  0.70648400  0.94881600  0.22062400  1
  O  O4  1  0.55053000  0.93613600  0.34013800  1
  O  O5  1  0.39430900  0.97027800  0.15995200  1
  O  O6  1  0.39790000  0.05579700  0.13123400  1
  O  O7  1  0.48369000  0.08795800  0.45269100  1
  O  O8  1  0.32524300  0.08035100  0.40351200  1
  O  O9  1  0.51571700  0.92281400  0.56298800  1
  O  O10  1  0.67583100  0.92566200  0.60998700  1
  O  O11  1  0.61219900  0.03830100  0.85136700  1
  O  O12  1  0.60454000  0.95497900  0.88610600  1
  O  O13  1  0.29328200  0.05040000  0.77202200  1
  O  O14  1  0.45440000  0.07486100  0.67607500  1
  O  O15  1  0.41090300  0.99790200  0.85501800  1
  O  O16  1  0.42506500  0.14454800  0.90876000  1
  O  O17  1  0.30459200  0.39982900  0.79388800  1
  O  O18  1  0.89932900  0.74034600  0.43881700  1
  O  O19  1  0.09926800  0.25907100  0.54370600  1
  O  O20  1  0.67101400  0.61226900  0.23452200  1
  O  O21  1  0.87784200  0.97510800  0.24398100  1
