# Generated by REPEAT Assigner based on pymatgen
data_DB0-m9_o11_o11_f0_sra.sym.66_sqe
_audit_creation_date              2022-05-24
_audit_creation_method            REPEAT_Assigner
_cell_length_a                    6.328477
_cell_length_b                    12.818672
_cell_length_c                    16.330078
_cell_angle_alpha                 90.004514
_cell_angle_beta                  89.994464
_cell_angle_gamma                 90.007509
_cell_volume                      1324.739466
_symmetry_space_group_name_H-M    P1
_symmetry_Int_Tables_number       1
loop_
    _symmetry_equiv_pos_site_id
    _symmetry_equiv_pos_as_xyz
    1  x,y,z
loop_
    _atom_site_type_symbol
    _atom_site_label
    _atom_site_fract_x
    _atom_site_fract_y
    _atom_site_fract_z
    _atom_type_partial_charge
    O  O1   0.566640  0.551302  0.389935  -0.479768
    O  O2   0.192313  0.569955  0.612340  -0.584165
    O  O3   0.984664  0.400085  0.553729  -0.434083
    C  C1   0.364547  0.624925  0.612671  0.612043
    O  O4   0.283354  0.635029  0.450908  -0.496407
    O  O5   0.067298  0.464082  0.392262  -0.572744
    C  C2   0.398878  0.612330  0.385099  0.586840
    O  O6   0.484690  0.629887  0.547535  -0.397775
    O  O7   0.379749  0.432446  0.502960  -0.630035
    V  V1   0.105637  0.525480  0.501645  1.548001
    O  O8   0.782768  0.386219  0.457949  -0.458780
    C  C3   0.900878  0.401907  0.391750  0.604552
    O  O9   0.692593  0.465690  0.615354  -0.565572
    C  C4   0.862142  0.408714  0.617935  0.607908
    V  V2   0.605534  0.500119  0.502497  1.420248
    O  O10  0.879983  0.592981  0.498274  -0.684013
    C  C5   0.690155  0.214422  0.778646  0.008713
    C  C6   0.862816  0.192165  0.821485  -0.333733
    H  H1   0.542628  0.175831  0.793508  0.096022
    H  H2   0.006038  0.236828  0.811783  0.161339
    C  C7   0.692283  0.297872  0.717163  -0.003764
    C  C8   0.870982  0.327968  0.681174  -0.275938
    H  H3   0.544096  0.332676  0.698132  0.103267
    H  H4   0.018242  0.288277  0.694419  0.137084
    C  C9   0.032779  0.331128  0.265735  0.340137
    C  C10  0.896340  0.323248  0.327372  -0.326042
    H  H5   0.148192  0.393618  0.266072  0.015551
    H  H6   0.792940  0.256198  0.333134  0.120524
    C  C11  0.041176  0.252068  0.201213  -0.360386
    C  C12  0.868599  0.201079  0.177748  0.234910
    H  H7   0.189446  0.237318  0.170016  0.147874
    C  C13  0.199656  0.816801  0.775057  -0.013852
    C  C14  0.369884  0.834460  0.820455  -0.303779
    H  H8   0.053214  0.856479  0.789731  0.105762
    H  H9   0.512108  0.788883  0.811068  0.154402
    C  C15  0.200729  0.735919  0.711830  -0.014695
    C  C16  0.378175  0.706706  0.674681  -0.274631
    H  H10  0.052237  0.701206  0.693058  0.119632
    H  H11  0.526542  0.745611  0.687675  0.132121
    C  C17  0.408966  0.860898  0.261329  0.118424
    C  C18  0.344545  0.837068  0.185982  -0.381451
    H  H12  0.479431  0.936305  0.273400  0.094511
    H  H13  0.254121  0.766378  0.175852  0.139755
    C  C19  0.377329  0.787241  0.329136  -0.271067
    C  C20  0.399344  0.685390  0.316089  0.054630
    H  H14  0.358708  0.816024  0.391138  0.168560
    O  O11  0.183747  0.966495  0.891731  -0.585750
    O  O12  0.557449  0.960651  0.114754  -0.477945
    O  O13  0.767163  0.127293  0.050663  -0.379573
    C  C21  0.380434  0.908800  0.117412  0.629138
    O  O14  0.469366  0.887541  0.954995  -0.504059
    O  O15  0.685384  0.054874  0.891440  -0.597834
    C  C22  0.355804  0.908013  0.888525  0.693378
    O  O16  0.268203  0.897205  0.051171  -0.407623
    O  O17  0.371916  0.092136  0.000193  -0.635240
    V  V3   0.646208  0.999324  0.002782  1.442204
    O  O18  0.968555  0.135786  0.954127  -0.548196
    C  C23  0.853097  0.116154  0.888226  0.728521
    O  O19  0.060308  0.065447  0.114021  -0.570231
    C  C24  0.886632  0.119879  0.115604  0.533352
    V  V4   0.146129  0.024603  0.002307  1.488771
    O  O20  0.871719  0.931554  0.001952  -0.649965
    N  N1   0.460884  0.649917  0.237759  -0.257389
    C  C25  0.500010  0.546988  0.231538  0.433402
    O  O21  0.441627  0.487645  0.285285  -0.405625
    C  C26  0.611748  0.505412  0.158236  -0.315950
    H  H15  0.534096  0.699969  0.197480  0.285826
    H  H16  0.650029  0.570572  0.116093  0.083472
    H  H17  0.508608  0.448449  0.126379  0.107164
    H  H18  0.759805  0.466317  0.177654  0.069873
    N  N2   0.667006  0.231520  0.206074  -0.578448
    C  C27  0.545756  0.151303  0.230976  0.681608
    O  O22  0.592303  0.062539  0.211333  -0.495042
    C  C28  0.361767  0.170041  0.285948  -0.316200
    H  H19  0.646621  0.302616  0.234227  0.311512
    H  H20  0.335509  0.255144  0.292713  0.059203
    H  H21  0.394613  0.135442  0.346875  0.093210
    H  H22  0.218733  0.132555  0.260027  0.114306
