# Generated by REPEAT Assigner based on pymatgen
data_DB0-m2_o1_o16_f0_pcu.sym.20_sqe
_audit_creation_date              2022-05-24
_audit_creation_method            REPEAT_Assigner
_cell_length_a                    9.402572
_cell_length_b                    10.862934
_cell_length_c                    13.567782
_cell_angle_alpha                 89.996043
_cell_angle_beta                  74.569581
_cell_angle_gamma                 90.019392
_cell_volume                      1335.854187
_symmetry_space_group_name_H-M    P1
_symmetry_Int_Tables_number       1
loop_
    _symmetry_equiv_pos_site_id
    _symmetry_equiv_pos_as_xyz
    1  x,y,z
loop_
    _atom_site_type_symbol
    _atom_site_label
    _atom_site_fract_x
    _atom_site_fract_y
    _atom_site_fract_z
    _atom_type_partial_charge
    O   O1   0.378620  0.675680  0.505097  -0.556681
    O   O2   0.625438  0.676251  0.498437  -0.545310
    C   C1   0.501927  0.733711  0.502198  0.639386
    O   O3   0.326790  0.498558  0.648143  -0.541902
    O   O4   0.571674  0.487652  0.645787  -0.565220
    C   C2   0.431514  0.494196  0.695605  0.684555
    Cu  Cu1  0.361665  0.496840  0.499729  0.856865
    Cu  Cu2  0.646758  0.497189  0.497179  0.783975
    O   O5   0.382470  0.317875  0.500924  -0.573462
    O   O6   0.630404  0.318747  0.489549  -0.523209
    O   O7   0.436683  0.503994  0.350973  -0.591619
    O   O8   0.681461  0.498990  0.348763  -0.568981
    C   C3   0.506862  0.260132  0.494925  0.644440
    C   C4   0.576765  0.504684  0.301777  0.752331
    C   C5   0.778050  0.600964  0.037751  -0.423446
    H   H1   0.802269  0.666957  0.850852  0.126350
    H   H2   0.879875  0.647268  0.000161  0.175183
    C   C6   0.616785  0.520455  0.190026  -0.312508
    C   C7   0.254056  0.430534  0.853803  -0.042435
    C   C8   0.215105  0.404549  0.956365  -0.086549
    C   C9   0.309278  0.431325  0.015381  -0.195254
    C   C10  0.443753  0.489990  0.973271  0.073699
    C   C11  0.480162  0.520634  0.869441  0.210542
    C   C12  0.542945  0.518774  0.031785  -0.046596
    C   C13  0.674981  0.576339  0.984714  0.258755
    C   C14  0.703218  0.615163  0.885174  -0.182208
    C   C15  0.605082  0.591093  0.829086  -0.252794
    C   C16  0.514124  0.493883  0.136328  -0.094371
    C   C17  0.750783  0.571513  0.139466  0.485716
    C   C18  0.388169  0.484878  0.808400  -0.202447
    H   H3   0.411440  0.455627  0.179731  0.124420
    H   H4   0.179499  0.404365  0.809070  0.095161
    H   H5   0.271045  0.404737  0.094228  0.135689
    H   H6   0.110997  0.359527  0.990690  0.095508
    H   H7   0.627622  0.632545  0.754543  0.142500
    C   C19  0.632680  0.932219  0.494470  -0.257027
    H   H8   0.734074  0.884022  0.492064  0.140992
    C   C20  0.635040  0.059048  0.491856  0.381197
    C   C21  0.507140  0.124620  0.495639  -0.179602
    C   C22  0.377760  0.060733  0.501690  -0.060860
    H   H9   0.276187  0.109109  0.505331  0.121223
    C   C23  0.375990  0.933709  0.503751  -0.167696
    H   H10  0.273545  0.886060  0.508560  0.135791
    C   C24  0.503259  0.868721  0.500570  0.020364
    C   C25  0.906961  0.575578  0.557314  -0.188067
    H   H11  0.831313  0.640103  0.604420  0.170320
    C   C26  0.051811  0.573738  0.561179  0.430273
    N   N1   0.148223  0.495541  0.501413  -0.174212
    C   C27  0.102446  0.419710  0.437442  0.010538
    H   H12  0.179533  0.357288  0.388662  0.127992
    C   C28  0.956179  0.418676  0.436242  -0.030139
    H   H13  0.919308  0.354594  0.387391  0.132402
    N   N2   0.860309  0.498144  0.495344  0.029976
    F   F1   0.851469  0.603156  0.190232  -0.232032
    F   F2   0.764494  0.117083  0.486424  -0.208528
    F   F3   0.095278  0.649783  0.626795  -0.182990
