# generated using pymatgen
data_Cu3H32(C4O)12
_symmetry_space_group_name_H-M   'P 1'
_cell_length_a   32.00157500
_cell_length_b   32.00157500
_cell_length_c   35.21925400
_cell_angle_alpha   90.00000000
_cell_angle_beta   90.00000000
_cell_angle_gamma   90.00000000
_symmetry_Int_Tables_number   1
_chemical_formula_structural   Cu3H32(C4O)12
_chemical_formula_sum   'Cu12 H128 C192 O48'
_cell_volume   36068.06628417
_cell_formula_units_Z   4
loop_
 _symmetry_equiv_pos_site_id
 _symmetry_equiv_pos_as_xyz
  1  'x, y, z'
loop_
 _atom_site_type_symbol
 _atom_site_label
 _atom_site_symmetry_multiplicity
 _atom_site_fract_x
 _atom_site_fract_y
 _atom_site_fract_z
 _atom_site_occupancy
  Cu  Cu1  1  0.00043100  0.54013700  0.00001800  1
  Cu  Cu2  1  0.54013700  0.00043100  0.99998200  1
  Cu  Cu3  1  0.00044600  0.45864200  0.99998700  1
  Cu  Cu4  1  0.45864200  0.00044600  0.00001300  1
  Cu  Cu5  1  0.50043100  0.04013700  0.50001800  1
  Cu  Cu6  1  0.04013700  0.50043100  0.49998200  1
  Cu  Cu7  1  0.50044600  0.95864200  0.49998700  1
  Cu  Cu8  1  0.95864200  0.50044600  0.50001300  1
  Cu  Cu9  1  0.50036700  0.50054000  0.96211700  1
  Cu  Cu10  1  0.50054000  0.50036700  0.03788300  1
  Cu  Cu11  1  0.00036700  0.00054000  0.46211700  1
  Cu  Cu12  1  0.00054000  0.00036700  0.53788300  1
  H  H1  1  0.93706100  0.47831300  0.68812100  1
  H  H2  1  0.47791000  0.06224200  0.68785700  1
  H  H3  1  0.06256000  0.52227100  0.68790100  1
  H  H4  1  0.52191600  0.93676000  0.68817500  1
  H  H5  1  0.93676000  0.52191600  0.31182500  1
  H  H6  1  0.47831300  0.93706100  0.31187900  1
  H  H7  1  0.06224200  0.47791000  0.31214300  1
  H  H8  1  0.52227100  0.06256000  0.31209900  1
  H  H9  1  0.43706100  0.97831300  0.18812100  1
  H  H10  1  0.97791000  0.56224200  0.18785700  1
  H  H11  1  0.56256000  0.02227100  0.18790100  1
  H  H12  1  0.02191600  0.43676000  0.18817500  1
  H  H13  1  0.43676000  0.02191600  0.81182500  1
  H  H14  1  0.97831300  0.43706100  0.81187900  1
  H  H15  1  0.56224200  0.97791000  0.81214300  1
  H  H16  1  0.02227100  0.56256000  0.81209900  1
  H  H17  1  0.93639300  0.47838500  0.61888200  1
  H  H18  1  0.47794200  0.06254400  0.61863300  1
  H  H19  1  0.06277800  0.52264300  0.61866200  1
  H  H20  1  0.52226000  0.93617600  0.61891800  1
  H  H21  1  0.93617600  0.52226000  0.38108200  1
  H  H22  1  0.47838500  0.93639300  0.38111800  1
  H  H23  1  0.06254400  0.47794200  0.38136700  1
  H  H24  1  0.52264300  0.06277800  0.38133800  1
  H  H25  1  0.43639300  0.97838500  0.11888200  1
  H  H26  1  0.97794200  0.56254400  0.11863300  1
  H  H27  1  0.56277800  0.02264300  0.11866200  1
  H  H28  1  0.02226000  0.43617600  0.11891800  1
  H  H29  1  0.43617600  0.02226000  0.88108200  1
  H  H30  1  0.97838500  0.43639300  0.88111800  1
  H  H31  1  0.56254400  0.97794200  0.88136700  1
  H  H32  1  0.02264300  0.56277800  0.88133800  1
  H  H33  1  0.78984600  0.45173300  0.04131000  1
  H  H34  1  0.45098000  0.21104300  0.04054300  1
  H  H35  1  0.21068700  0.54808300  0.04138300  1
  H  H36  1  0.54720800  0.79019800  0.04218700  1
  H  H37  1  0.79019800  0.54720800  0.95781300  1
  H  H38  1  0.45173300  0.78984600  0.95869000  1
  H  H39  1  0.21104300  0.45098000  0.95945700  1
  H  H40  1  0.54808300  0.21068700  0.95861700  1
  H  H41  1  0.28984600  0.95173300  0.54131000  1
  H  H42  1  0.95098000  0.71104300  0.54054300  1
  H  H43  1  0.71068700  0.04808300  0.54138300  1
  H  H44  1  0.04720800  0.29019800  0.54218700  1
  H  H45  1  0.29019700  0.04720800  0.45781300  1
  H  H46  1  0.95173300  0.28984600  0.45869000  1
  H  H47  1  0.71104300  0.95098000  0.45945700  1
  H  H48  1  0.04808300  0.71068700  0.45861700  1
  H  H49  1  0.66854700  0.41366000  0.00579200  1
  H  H50  1  0.71933100  0.39011100  0.01288200  1
  H  H51  1  0.67827500  0.38223600  0.04740700  1
  H  H52  1  0.72870100  0.43249200  0.07157200  1
  H  H53  1  0.68025800  0.45870500  0.06313200  1
  H  H54  1  0.41371000  0.33222100  0.00413600  1
  H  H55  1  0.38990600  0.28152600  0.01098100  1
  H  H56  1  0.38136100  0.32275700  0.04521200  1
  H  H57  1  0.43099000  0.27220500  0.07037300  1
  H  H58  1  0.45740300  0.32064000  0.06241900  1
  H  H59  1  0.33114600  0.58640300  0.00503600  1
  H  H60  1  0.28027900  0.60967300  0.01231000  1
  H  H61  1  0.32168900  0.61844200  0.04631700  1
  H  H62  1  0.27173800  0.56815300  0.07150700  1
  H  H63  1  0.32044200  0.54235700  0.06327200  1
  H  H64  1  0.58635000  0.66972800  0.00661200  1
  H  H65  1  0.60936600  0.72065900  0.01422900  1
  H  H66  1  0.61747100  0.67933000  0.04844200  1
  H  H67  1  0.56656300  0.72914400  0.07271300  1
  H  H68  1  0.54100300  0.68042100  0.06397700  1
  H  H69  1  0.66972800  0.58635000  0.99338800  1
  H  H70  1  0.72065900  0.60936600  0.98577100  1
  H  H71  1  0.67933000  0.61747100  0.95155800  1
  H  H72  1  0.72914400  0.56656300  0.92728700  1
  H  H73  1  0.68042100  0.54100300  0.93602300  1
  H  H74  1  0.41366000  0.66854700  0.99420800  1
  H  H75  1  0.39011000  0.71933100  0.98711800  1
  H  H76  1  0.38223600  0.67827500  0.95259200  1
  H  H77  1  0.43249200  0.72870100  0.92842800  1
  H  H78  1  0.45870500  0.68025800  0.93686800  1
  H  H79  1  0.33222100  0.41371000  0.99586400  1
  H  H80  1  0.28152600  0.38990600  0.98901800  1
  H  H81  1  0.32275700  0.38136100  0.95478800  1
  H  H82  1  0.27220500  0.43099000  0.92962700  1
  H  H83  1  0.32064000  0.45740400  0.93758100  1
  H  H84  1  0.58640300  0.33114600  0.99496400  1
  H  H85  1  0.60967300  0.28027900  0.98769000  1
  H  H86  1  0.61844200  0.32168900  0.95368300  1
  H  H87  1  0.56815300  0.27173800  0.92849300  1
  H  H88  1  0.54235700  0.32044200  0.93672800  1
  H  H89  1  0.16854700  0.91366000  0.50579200  1
  H  H90  1  0.21933100  0.89011100  0.51288200  1
  H  H91  1  0.17827500  0.88223600  0.54740700  1
  H  H92  1  0.22870100  0.93249200  0.57157200  1
  H  H93  1  0.18025800  0.95870500  0.56313200  1
  H  H94  1  0.91371000  0.83222100  0.50413600  1
  H  H95  1  0.88990600  0.78152600  0.51098200  1
  H  H96  1  0.88136100  0.82275700  0.54521200  1
  H  H97  1  0.93099000  0.77220500  0.57037300  1
  H  H98  1  0.95740400  0.82064000  0.56241900  1
  H  H99  1  0.83114600  0.08640300  0.50503600  1
  H  H100  1  0.78027900  0.10967300  0.51231000  1
  H  H101  1  0.82168900  0.11844200  0.54631800  1
  H  H102  1  0.77173800  0.06815300  0.57150700  1
  H  H103  1  0.82044200  0.04235700  0.56327200  1
  H  H104  1  0.08635000  0.16972800  0.50661200  1
  H  H105  1  0.10936600  0.22065900  0.51422900  1
  H  H106  1  0.11747100  0.17933000  0.54844200  1
  H  H107  1  0.06656300  0.22914400  0.57271300  1
  H  H108  1  0.04100300  0.18042100  0.56397700  1
  H  H109  1  0.16972800  0.08635000  0.49338800  1
  H  H110  1  0.22065900  0.10936600  0.48577100  1
  H  H111  1  0.17933000  0.11747100  0.45155800  1
  H  H112  1  0.22914400  0.06656300  0.42728700  1
  H  H113  1  0.18042100  0.04100300  0.43602300  1
  H  H114  1  0.91366000  0.16854700  0.49420800  1
  H  H115  1  0.89011000  0.21933100  0.48711800  1
  H  H116  1  0.88223600  0.17827500  0.45259200  1
  H  H117  1  0.93249200  0.22870100  0.42842800  1
  H  H118  1  0.95870500  0.18025800  0.43686800  1
  H  H119  1  0.83222100  0.91371000  0.49586400  1
  H  H120  1  0.78152600  0.88990600  0.48901800  1
  H  H121  1  0.82275700  0.88136100  0.45478700  1
  H  H122  1  0.77220500  0.93099100  0.42962700  1
  H  H123  1  0.82064000  0.95740400  0.43758100  1
  H  H124  1  0.08640300  0.83114700  0.49496400  1
  H  H125  1  0.10967300  0.78027900  0.48769000  1
  H  H126  1  0.11844200  0.82168900  0.45368200  1
  H  H127  1  0.06815300  0.77173800  0.42849300  1
  H  H128  1  0.04235700  0.82044200  0.43672800  1
  C  C1  1  0.92142500  0.49938000  0.99983600  1
  C  C2  1  0.49940400  0.07945300  0.99983100  1
  C  C3  1  0.07945300  0.49940400  0.00016900  1
  C  C4  1  0.49938000  0.92142500  0.00016400  1
  C  C5  1  0.42142500  0.99938000  0.49983600  1
  C  C6  1  0.99940400  0.57945300  0.49983100  1
  C  C7  1  0.57945300  0.99940400  0.50016900  1
  C  C8  1  0.99938000  0.42142500  0.50016400  1
  C  C9  1  0.00058400  0.49945900  0.92793000  1
  C  C10  1  0.49933500  0.00023800  0.92792600  1
  C  C11  1  0.00023800  0.49933500  0.07207400  1
  C  C12  1  0.49945900  0.00058400  0.07207000  1
  C  C13  1  0.50058400  0.99945900  0.42793000  1
  C  C14  1  0.99933500  0.50023800  0.42792600  1
  C  C15  1  0.50023800  0.99933500  0.57207400  1
  C  C16  1  0.99945900  0.50058400  0.57207000  1
  C  C17  1  0.96459000  0.48805300  0.67269800  1
  C  C18  1  0.48762700  0.03462700  0.67255100  1
  C  C19  1  0.03491700  0.51267600  0.67257600  1
  C  C20  1  0.51228000  0.96430900  0.67272500  1
  C  C21  1  0.96430900  0.51228000  0.32727500  1
  C  C22  1  0.48805300  0.96459000  0.32730200  1
  C  C23  1  0.03462700  0.48762700  0.32744900  1
  C  C24  1  0.51267600  0.03491700  0.32742400  1
  C  C25  1  0.46459000  0.98805300  0.17269800  1
  C  C26  1  0.98762700  0.53462700  0.17255100  1
  C  C27  1  0.53491700  0.01267600  0.17257600  1
  C  C28  1  0.01228000  0.46430900  0.17272500  1
  C  C29  1  0.46430900  0.01228100  0.82727500  1
  C  C30  1  0.98805300  0.46459000  0.82730200  1
  C  C31  1  0.53462700  0.98762700  0.82744900  1
  C  C32  1  0.01267600  0.53491700  0.82742400  1
  C  C33  1  0.96438000  0.48815700  0.63355900  1
  C  C34  1  0.48771000  0.03462800  0.63341900  1
  C  C35  1  0.03487100  0.51282600  0.63343800  1
  C  C36  1  0.51240900  0.96414600  0.63358100  1
  C  C37  1  0.96414600  0.51240900  0.36641900  1
  C  C38  1  0.48815600  0.96438000  0.36644100  1
  C  C39  1  0.03462800  0.48771000  0.36658100  1
  C  C40  1  0.51282600  0.03487100  0.36656200  1
  C  C41  1  0.46438000  0.98815700  0.13355900  1
  C  C42  1  0.98771000  0.53462800  0.13341900  1
  C  C43  1  0.53487100  0.01282600  0.13343800  1
  C  C44  1  0.01240900  0.46414600  0.13358100  1
  C  C45  1  0.46414600  0.01240900  0.86641900  1
  C  C46  1  0.98815700  0.46438000  0.86644100  1
  C  C47  1  0.53462800  0.98771000  0.86658100  1
  C  C48  1  0.01282600  0.53487100  0.86656200  1
  C  C49  1  0.99956200  0.50054500  0.61369400  1
  C  C50  1  0.50011600  0.99935500  0.61369600  1
  C  C51  1  0.99935500  0.50011600  0.38630400  1
  C  C52  1  0.50054500  0.99956200  0.38630600  1
  C  C53  1  0.49956200  0.00054500  0.11369400  1
  C  C54  1  0.00011600  0.49935500  0.11369600  1
  C  C55  1  0.49935500  0.00011600  0.88630400  1
  C  C56  1  0.00054500  0.49956200  0.88630600  1
  C  C57  1  0.99982200  0.50028600  0.69219300  1
  C  C58  1  0.49989700  0.99951200  0.69219300  1
  C  C59  1  0.99951200  0.49989700  0.30780700  1
  C  C60  1  0.50028600  0.99982200  0.30780700  1
  C  C61  1  0.49982200  0.00028600  0.19219300  1
  C  C62  1  0.99989700  0.49951200  0.19219300  1
  C  C63  1  0.49951200  0.99989700  0.80780700  1
  C  C64  1  0.00028600  0.49982200  0.80780700  1
  C  C65  1  0.99996800  0.50010500  0.73290400  1
  C  C66  1  0.49974700  0.99962000  0.73290300  1
  C  C67  1  0.99962000  0.49974700  0.26709600  1
  C  C68  1  0.50010500  0.99996800  0.26709600  1
  C  C69  1  0.49996800  0.00010500  0.23290400  1
  C  C70  1  0.99974700  0.49962000  0.23290300  1
  C  C71  1  0.49962000  0.99974700  0.76709600  1
  C  C72  1  0.00010500  0.49996800  0.76709600  1
  C  C73  1  0.72947400  0.47255500  0.02313600  1
  C  C74  1  0.47214100  0.27142200  0.02269000  1
  C  C75  1  0.27121000  0.52724400  0.02364500  1
  C  C76  1  0.52670400  0.72968100  0.02412600  1
  C  C77  1  0.72968100  0.52670400  0.97587400  1
  C  C78  1  0.47255500  0.72947400  0.97686400  1
  C  C79  1  0.27142200  0.47214100  0.97731000  1
  C  C80  1  0.52724400  0.27121000  0.97635500  1
  C  C81  1  0.22947400  0.97255500  0.52313600  1
  C  C82  1  0.97214100  0.77142200  0.52269000  1
  C  C83  1  0.77121000  0.02724400  0.52364500  1
  C  C84  1  0.02670400  0.22968100  0.52412600  1
  C  C85  1  0.22968100  0.02670400  0.47587400  1
  C  C86  1  0.97255500  0.22947400  0.47686400  1
  C  C87  1  0.77142200  0.97214100  0.47731000  1
  C  C88  1  0.02724400  0.77121000  0.47635500  1
  C  C89  1  0.70788700  0.49973000  0.99952200  1
  C  C90  1  0.49979200  0.29301300  0.99953800  1
  C  C91  1  0.29301300  0.49979200  0.00046200  1
  C  C92  1  0.49973000  0.70788700  0.00047800  1
  C  C93  1  0.20788700  0.99973000  0.49952200  1
  C  C94  1  0.99979200  0.79301300  0.49953800  1
  C  C95  1  0.79301300  0.99979200  0.50046200  1
  C  C96  1  0.99973000  0.20788700  0.50047800  1
  C  C97  1  0.77281000  0.52626100  0.97597000  1
  C  C98  1  0.52678100  0.22807800  0.97642900  1
  C  C99  1  0.22828300  0.47235200  0.97731700  1
  C  C100  1  0.47274700  0.77260800  0.97689800  1
  C  C101  1  0.77260800  0.47274700  0.02310200  1
  C  C102  1  0.52626100  0.77281000  0.02403000  1
  C  C103  1  0.22807800  0.52678100  0.02357200  1
  C  C104  1  0.47235200  0.22828400  0.02268300  1
  C  C105  1  0.27281000  0.02626100  0.47597000  1
  C  C106  1  0.02678100  0.72807800  0.47642800  1
  C  C107  1  0.72828300  0.97235200  0.47731700  1
  C  C108  1  0.97274700  0.27260800  0.47689800  1
  C  C109  1  0.27260800  0.97274700  0.52310200  1
  C  C110  1  0.02626100  0.27281000  0.52403000  1
  C  C111  1  0.72807800  0.02678100  0.52357200  1
  C  C112  1  0.97235200  0.72828300  0.52268300  1
  C  C113  1  0.79414800  0.49946100  0.99956900  1
  C  C114  1  0.49952400  0.20673800  0.99959100  1
  C  C115  1  0.20673800  0.49952400  0.00040900  1
  C  C116  1  0.49946000  0.79414800  0.00043100  1
  C  C117  1  0.29414800  0.99946100  0.49956900  1
  C  C118  1  0.99952400  0.70673800  0.49959100  1
  C  C119  1  0.70673800  0.99952400  0.50040900  1
  C  C120  1  0.99946100  0.29414800  0.50043100  1
  C  C121  1  0.66300400  0.50002500  0.99962800  1
  C  C122  1  0.50007600  0.33790700  0.99963600  1
  C  C123  1  0.33790700  0.50007600  0.00036400  1
  C  C124  1  0.50002500  0.66300400  0.00037200  1
  C  C125  1  0.16300400  0.00002500  0.49962800  1
  C  C126  1  0.00007600  0.83790700  0.49963600  1
  C  C127  1  0.83790700  0.00007600  0.50036400  1
  C  C128  1  0.00002500  0.16300400  0.50037200  1
  C  C129  1  0.83896300  0.49941200  0.99967000  1
  C  C130  1  0.49946900  0.16191900  0.99968500  1
  C  C131  1  0.16191900  0.49946900  0.00031500  1
  C  C132  1  0.49941200  0.83896300  0.00033000  1
  C  C133  1  0.33896300  0.99941200  0.49967000  1
  C  C134  1  0.99946900  0.66191900  0.49968500  1
  C  C135  1  0.66191900  0.99946900  0.50031500  1
  C  C136  1  0.99941200  0.33896300  0.50033000  1
  C  C137  1  0.87660600  0.49939000  0.99974900  1
  C  C138  1  0.49943600  0.12427500  0.99975600  1
  C  C139  1  0.12427500  0.49943600  0.00024400  1
  C  C140  1  0.49939000  0.87660600  0.00025100  1
  C  C141  1  0.37660600  0.99939000  0.49974900  1
  C  C142  1  0.99943600  0.62427500  0.49975600  1
  C  C143  1  0.62427400  0.99943600  0.50024400  1
  C  C144  1  0.99939000  0.37660600  0.50025100  1
  C  C145  1  0.62538300  0.50033400  0.99973800  1
  C  C146  1  0.50037200  0.37553300  0.99974600  1
  C  C147  1  0.37553300  0.50037200  0.00025400  1
  C  C148  1  0.50033400  0.62538300  0.00026200  1
  C  C149  1  0.12538300  0.00033400  0.49973800  1
  C  C150  1  0.00037200  0.87553300  0.49974600  1
  C  C151  1  0.87553300  0.00037200  0.50025400  1
  C  C152  1  0.00033400  0.12538300  0.50026200  1
  C  C153  1  0.50080700  0.42029100  0.99985100  1
  C  C154  1  0.42029100  0.50080700  0.00014900  1
  C  C155  1  0.50079100  0.58063200  0.00015200  1
  C  C156  1  0.58063200  0.50079100  0.99984800  1
  C  C157  1  0.00080700  0.92029100  0.49985100  1
  C  C158  1  0.92029100  0.00080700  0.50014800  1
  C  C159  1  0.00079100  0.08063200  0.50015200  1
  C  C160  1  0.08063200  0.00079100  0.49984700  1
  C  C161  1  0.70700000  0.44309000  0.04901200  1
  C  C162  1  0.69227900  0.40488300  0.02726200  1
  C  C163  1  0.44210500  0.29389800  0.04801300  1
  C  C164  1  0.40441200  0.30861100  0.02553200  1
  C  C165  1  0.29345300  0.55740100  0.04901800  1
  C  C166  1  0.30761800  0.59535900  0.02662500  1
  C  C167  1  0.55632600  0.70743800  0.05001900  1
  C  C168  1  0.59478900  0.69331800  0.02832100  1
  C  C169  1  0.70743800  0.55632600  0.94998100  1
  C  C170  1  0.69331800  0.59478900  0.97167900  1
  C  C171  1  0.44309000  0.70700000  0.95098800  1
  C  C172  1  0.40488300  0.69227900  0.97273800  1
  C  C173  1  0.29389800  0.44210500  0.95198700  1
  C  C174  1  0.30861100  0.40441200  0.97446800  1
  C  C175  1  0.55740200  0.29345400  0.95098200  1
  C  C176  1  0.59535900  0.30761800  0.97337500  1
  C  C177  1  0.20700000  0.94309000  0.54901200  1
  C  C178  1  0.19227900  0.90488300  0.52726200  1
  C  C179  1  0.94210500  0.79389800  0.54801300  1
  C  C180  1  0.90441200  0.80861100  0.52553200  1
  C  C181  1  0.79345300  0.05740100  0.54901800  1
  C  C182  1  0.80761800  0.09535900  0.52662500  1
  C  C183  1  0.05632600  0.20743800  0.55001900  1
  C  C184  1  0.09478900  0.19331800  0.52832100  1
  C  C185  1  0.20743800  0.05632600  0.44998100  1
  C  C186  1  0.19331800  0.09478900  0.47167900  1
  C  C187  1  0.94309000  0.20700000  0.45098700  1
  C  C188  1  0.90488300  0.19227900  0.47273800  1
  C  C189  1  0.79389800  0.94210500  0.45198600  1
  C  C190  1  0.80861100  0.90441200  0.47446800  1
  C  C191  1  0.05740100  0.79345300  0.45098200  1
  C  C192  1  0.09535900  0.80761800  0.47337500  1
  O  O1  1  0.94094900  0.53380700  0.98925600  1
  O  O2  1  0.53381700  0.05991600  0.98923000  1
  O  O3  1  0.05998500  0.46498000  0.98948500  1
  O  O4  1  0.46495600  0.94090700  0.98950200  1
  O  O5  1  0.94090700  0.46495600  0.01049800  1
  O  O6  1  0.53380700  0.94094900  0.01074400  1
  O  O7  1  0.05991600  0.53381700  0.01077000  1
  O  O8  1  0.46498000  0.05998500  0.01051500  1
  O  O9  1  0.44094900  0.03380700  0.48925600  1
  O  O10  1  0.03381700  0.55991600  0.48923000  1
  O  O11  1  0.55998500  0.96498000  0.48948500  1
  O  O12  1  0.96495600  0.44090700  0.48950200  1
  O  O13  1  0.44090700  0.96495600  0.51049800  1
  O  O14  1  0.03380700  0.44094900  0.51074400  1
  O  O15  1  0.55991600  0.03381700  0.51077000  1
  O  O16  1  0.96498000  0.55998500  0.51051500  1
  O  O17  1  0.01225400  0.53381800  0.94582200  1
  O  O18  1  0.53372400  0.98860500  0.94579700  1
  O  O19  1  0.98889300  0.46505000  0.94574900  1
  O  O20  1  0.46496400  0.01199200  0.94576600  1
  O  O21  1  0.01199200  0.46496400  0.05423400  1
  O  O22  1  0.53381800  0.01225400  0.05417800  1
  O  O23  1  0.98860500  0.53372400  0.05420300  1
  O  O24  1  0.46505000  0.98889300  0.05425100  1
  O  O25  1  0.51225400  0.03381800  0.44582200  1
  O  O26  1  0.03372400  0.48860500  0.44579700  1
  O  O27  1  0.48889300  0.96505000  0.44574900  1
  O  O28  1  0.96496400  0.51199200  0.44576600  1
  O  O29  1  0.51199200  0.96496400  0.55423400  1
  O  O30  1  0.03381800  0.51225400  0.55417800  1
  O  O31  1  0.48860500  0.03372400  0.55420300  1
  O  O32  1  0.96505000  0.48889300  0.55425100  1
  O  O33  1  0.49882000  0.43971900  0.96708800  1
  O  O34  1  0.43956700  0.49896900  0.96730000  1
  O  O35  1  0.49882100  0.56132900  0.96738300  1
  O  O36  1  0.56117700  0.49896900  0.96715300  1
  O  O37  1  0.49896900  0.56117700  0.03284700  1
  O  O38  1  0.43971900  0.49882000  0.03291200  1
  O  O39  1  0.49896900  0.43956700  0.03270000  1
  O  O40  1  0.56132900  0.49882200  0.03261700  1
  O  O41  1  0.99882000  0.93971900  0.46708800  1
  O  O42  1  0.93956700  0.99896900  0.46730000  1
  O  O43  1  0.99882100  0.06132900  0.46738300  1
  O  O44  1  0.06117700  0.99896900  0.46715300  1
  O  O45  1  0.99896900  0.06117700  0.53284700  1
  O  O46  1  0.93971900  0.99882000  0.53291200  1
  O  O47  1  0.99896900  0.93956700  0.53270000  1
  O  O48  1  0.06132900  0.99882200  0.53261700  1
