# Generated by REPEAT Assigner based on pymatgen
data_DB0-m3_o21_o24_f0_pcu.sym.71_sqe
_audit_creation_date              2022-05-24
_audit_creation_method            REPEAT_Assigner
_cell_length_a                    10.799139
_cell_length_b                    12.954026
_cell_length_c                    14.099967
_cell_angle_alpha                 88.910735
_cell_angle_beta                  90.018248
_cell_angle_gamma                 93.650153
_cell_volume                      1968.119389
_symmetry_space_group_name_H-M    P1
_symmetry_Int_Tables_number       1
loop_
    _symmetry_equiv_pos_site_id
    _symmetry_equiv_pos_as_xyz
    1  x,y,z
loop_
    _atom_site_type_symbol
    _atom_site_label
    _atom_site_fract_x
    _atom_site_fract_y
    _atom_site_fract_z
    _atom_type_partial_charge
    O   O1   0.492131  0.407189  0.639262  -0.669972
    O   O2   0.503834  0.609822  0.366709  -0.702704
    O   O3   0.506245  0.585501  0.648838  -0.696463
    O   O4   0.490387  0.431532  0.357116  -0.688104
    C   C1   0.499435  0.492619  0.687996  0.945034
    C   C2   0.496783  0.524426  0.317957  0.962354
    O   O5   0.675735  0.419240  0.497036  -0.640013
    O   O6   0.320560  0.597751  0.509240  -0.658787
    O   O7   0.689597  0.597568  0.505951  -0.647494
    O   O8   0.306853  0.419481  0.499726  -0.610295
    C   C3   0.740220  0.508361  0.500741  0.539491
    C   C4   0.256141  0.508508  0.505340  0.521738
    Zn  Zn1  0.489070  0.391011  0.496636  1.077207
    Zn  Zn2  0.507298  0.626007  0.509326  1.134561
    C   C5   0.949290  0.417277  0.535726  -0.072005
    C   C6   0.046408  0.598205  0.470714  -0.132604
    C   C7   0.034746  0.492412  0.589877  -0.045148
    C   C8   0.961531  0.522444  0.416395  0.010761
    H   H1   0.907364  0.342350  0.563505  0.006855
    H   H2   0.087942  0.673479  0.443422  0.060109
    C   C9   0.118261  0.508198  0.504865  0.315558
    C   C10  0.878042  0.507855  0.501482  0.243056
    C   C11  0.035117  0.432723  0.449240  -0.140999
    C   C12  0.961676  0.582782  0.556979  -0.080268
    H   H3   0.067354  0.370891  0.403707  0.012950
    H   H4   0.929566  0.645139  0.601957  0.051531
    C   C13  0.496420  0.533253  0.216344  -0.313697
    C   C14  0.498542  0.483927  0.789607  -0.297649
    C   C15  0.497001  0.550822  0.029264  -0.098969
    C   C16  0.495366  0.466687  0.976683  0.045506
    C   C17  0.497236  0.476270  0.874911  -0.013926
    C   C18  0.496460  0.541133  0.131045  0.033877
    H   H5   0.493059  0.390753  0.010529  0.124920
    H   H6   0.499490  0.626782  0.995450  0.148200
    N   N1   0.476999  0.236758  0.488144  -0.180138
    N   N2   0.519370  0.780259  0.517800  -0.157594
    C   C19  0.461108  0.036634  0.476894  -0.062654
    C   C20  0.535311  0.980389  0.528996  -0.047743
    C   C21  0.526463  0.869489  0.522780  0.199967
    C   C22  0.469929  0.147530  0.483138  0.221645
    H   H7   0.602496  0.018113  0.576198  0.183076
    H   H8   0.393914  0.998920  0.429694  0.190468
    C   C23  0.074574  0.481458  0.691207  0.418279
    O   O9   0.053789  0.551040  0.744833  -0.456336
    C   C24  0.135344  0.390298  0.729270  -0.058935
    C   C25  0.169202  0.387848  0.824086  -0.006698
    C   C26  0.224737  0.303620  0.862270  -0.092225
    C   C27  0.247335  0.220964  0.806370  -0.089080
    C   C28  0.214098  0.222514  0.712155  -0.136976
    C   C29  0.158259  0.306462  0.673616  -0.061416
    H   H9   0.152702  0.451509  0.869872  0.075841
    H   H10  0.250553  0.302496  0.936342  0.070119
    H   H11  0.290924  0.154983  0.836382  0.103560
    H   H12  0.231631  0.157552  0.668187  0.089441
    H   H13  0.133463  0.304202  0.599750  0.101364
    C   C30  0.923096  0.544379  0.316311  0.444526
    O   O10  0.951281  0.629925  0.282396  -0.477063
    C   C31  0.858664  0.465871  0.255882  -0.108539
    C   C32  0.841046  0.488988  0.160656  0.010120
    C   C33  0.783599  0.416870  0.101846  -0.106841
    C   C34  0.742182  0.321215  0.137431  -0.087939
    C   C35  0.758562  0.297595  0.231983  -0.134513
    C   C36  0.816649  0.369210  0.291028  -0.020795
    H   H14  0.872936  0.563264  0.130493  0.092729
    H   H15  0.771333  0.435469  0.027523  0.078757
    H   H16  0.697020  0.264783  0.091259  0.097999
    H   H17  0.726053  0.222483  0.260053  0.089660
    H   H18  0.827618  0.347440  0.364406  0.093319
