# Generated by REPEAT Assigner based on pymatgen
data_DB0-m3_o13_o25_f0_pcu.sym.103_sqe
_audit_creation_date              2022-05-24
_audit_creation_method            REPEAT_Assigner
_cell_length_a                    11.859241
_cell_length_b                    13.091048
_cell_length_c                    15.988875
_cell_angle_alpha                 89.993617
_cell_angle_beta                  85.878146
_cell_angle_gamma                 91.188247
_cell_volume                      2475.314876
_symmetry_space_group_name_H-M    P1
_symmetry_Int_Tables_number       1
loop_
    _symmetry_equiv_pos_site_id
    _symmetry_equiv_pos_as_xyz
    1  x,y,z
loop_
    _atom_site_type_symbol
    _atom_site_label
    _atom_site_fract_x
    _atom_site_fract_y
    _atom_site_fract_z
    _atom_type_partial_charge
    O   O1   0.426617  0.652062  0.507894  -0.603158
    O   O2   0.585408  0.336180  0.496367  -0.601926
    O   O3   0.620846  0.639526  0.494935  -0.620093
    O   O4   0.391180  0.348715  0.509329  -0.622828
    C   C1   0.528509  0.693630  0.501187  0.700006
    C   C2   0.483517  0.294610  0.503071  0.700289
    O   O5   0.414076  0.499120  0.633103  -0.648281
    O   O6   0.597952  0.489123  0.371166  -0.658976
    O   O7   0.608607  0.487430  0.619682  -0.706246
    O   O8   0.403419  0.500809  0.384587  -0.710899
    C   C3   0.512361  0.493039  0.665177  0.824572
    C   C4   0.499665  0.495202  0.339092  0.820995
    Zn  Zn1  0.377859  0.502807  0.511257  1.021179
    Zn  Zn2  0.634168  0.485434  0.493013  1.013119
    C   C5   0.465271  0.581886  0.030119  -0.170096
    C   C6   0.546758  0.406337  0.974150  -0.158853
    C   C7   0.572117  0.570284  0.972609  -0.162935
    C   C8   0.439912  0.417939  0.031661  -0.168564
    H   H1   0.627160  0.633417  0.945834  0.066658
    H   H2   0.384869  0.354806  0.058436  0.064386
    H   H3   0.431255  0.654696  0.055616  0.066013
    H   H4   0.580774  0.333527  0.948654  0.063751
    H   H5   0.694552  0.473869  0.049113  0.028041
    H   H6   0.317477  0.514354  0.955157  0.021676
    C   C9   0.514001  0.492911  0.754824  -0.129036
    C   C10  0.498026  0.495324  0.249445  -0.129882
    C   C11  0.402939  0.505176  0.977754  -0.100993
    C   C12  0.609090  0.483047  0.026516  -0.116289
    C   C13  0.509736  0.493582  0.921871  0.672926
    C   C14  0.502293  0.494641  0.082398  0.675640
    C   C15  0.513015  0.493096  0.830234  -0.410390
    C   C16  0.499013  0.495132  0.174036  -0.410785
    C   C17  0.472809  0.182585  0.503515  -0.085513
    C   C18  0.539214  0.805655  0.500522  -0.102682
    C   C19  0.655145  0.957634  0.494903  0.209721
    C   C20  0.356885  0.030607  0.508478  0.299003
    C   C21  0.644484  0.852679  0.495747  -0.206559
    C   C22  0.367536  0.135561  0.508418  -0.247026
    C   C23  0.443720  0.864739  0.504625  -0.046712
    C   C24  0.568306  0.123500  0.499016  -0.068277
    C   C25  0.452862  0.970695  0.504143  -0.027170
    C   C26  0.559166  0.017544  0.499330  0.022847
    H   H7   0.649801  0.161581  0.495423  0.061344
    H   H8   0.362229  0.826654  0.508027  0.081784
    H   H9   0.291682  0.180142  0.512158  0.102568
    H   H10  0.720328  0.808100  0.492712  0.094585
    N   N1   0.209547  0.515642  0.524113  -0.004351
    N   N2   0.802479  0.472599  0.480157  -0.003660
    C   C27  0.973391  0.400410  0.423827  -0.310283
    C   C28  0.038637  0.587830  0.580443  -0.281870
    C   C29  0.857200  0.407162  0.426464  0.175017
    C   C30  0.154828  0.581083  0.577802  0.189923
    C   C31  0.861625  0.532357  0.530774  -0.204378
    C   C32  0.150401  0.455880  0.473500  -0.209324
    C   C33  0.977875  0.527266  0.528883  0.243309
    C   C34  0.034151  0.460971  0.475390  0.209753
    H   H11  0.194561  0.403959  0.430709  0.212326
    H   H12  0.817464  0.584277  0.573565  0.213106
    H   H13  0.016186  0.347398  0.381206  0.157179
    H   H14  0.995841  0.640845  0.623062  0.120605
    S   S1   0.795601  0.011752  0.489294  -0.225178
    C   C35  0.812143  0.998371  0.376090  0.152349
    H   H15  0.877484  0.053958  0.350362  -0.039500
    H   H16  0.731106  0.014816  0.348781  -0.012774
    H   H17  0.838503  0.919690  0.359577  0.002499
    S   S2   0.216407  0.976488  0.515579  -0.279708
    C   C36  0.203108  0.990152  0.403744  0.090206
    H   H18  0.138302  0.934733  0.383878  0.045473
    H   H19  0.284995  0.973636  0.369007  -0.030354
    H   H20  0.177352  0.068916  0.389677  0.026908
    S   S3   0.230044  0.661921  0.645788  -0.102017
    C   C37  0.186631  0.584886  0.737397  -0.046900
    H   H21  0.252343  0.590924  0.783219  0.110741
    H   H22  0.177447  0.503727  0.718712  0.034082
    H   H23  0.105127  0.612327  0.766526  0.023262
    S   S4   0.781989  0.326341  0.358462  -0.053173
    C   C38  0.825411  0.403398  0.266866  -0.104630
    H   H24  0.759704  0.397369  0.221039  0.119582
    H   H25  0.906918  0.375963  0.237737  0.027085
    H   H26  0.834592  0.484552  0.285564  0.057762
