# generated using pymatgen
data_Zn3H26C43O12
_symmetry_space_group_name_H-M   'P 1'
_cell_length_a   37.08254600
_cell_length_b   30.33015300
_cell_length_c   21.80480700
_cell_angle_alpha   90.00000000
_cell_angle_beta   54.91180000
_cell_angle_gamma   90.00000000
_symmetry_Int_Tables_number   1
_chemical_formula_structural   Zn3H26C43O12
_chemical_formula_sum   'Zn12 H104 C172 O48'
_cell_volume   20067.44236756
_cell_formula_units_Z   4
loop_
 _symmetry_equiv_pos_site_id
 _symmetry_equiv_pos_as_xyz
  1  'x, y, z'
loop_
 _atom_site_type_symbol
 _atom_site_label
 _atom_site_symmetry_multiplicity
 _atom_site_fract_x
 _atom_site_fract_y
 _atom_site_fract_z
 _atom_site_occupancy
  Zn  Zn1  1  0.00021300  0.56693600  0.50003400  1
  Zn  Zn2  1  0.50021300  0.06693600  0.50003400  1
  Zn  Zn3  1  0.00031200  0.46708000  0.49956800  1
  Zn  Zn4  1  0.50031200  0.96708000  0.49956800  1
  Zn  Zn5  1  0.95019000  0.51392000  0.04392000  1
  Zn  Zn6  1  0.04980100  0.51396400  0.95619000  1
  Zn  Zn7  1  0.45019000  0.01392000  0.04392000  1
  Zn  Zn8  1  0.54980100  0.01396400  0.95619000  1
  Zn  Zn9  1  0.50015200  0.51382400  0.06902200  1
  Zn  Zn10  1  0.50032800  0.51403400  0.93001700  1
  Zn  Zn11  1  0.00015200  0.01382400  0.06902200  1
  Zn  Zn12  1  0.00032800  0.01403400  0.93001700  1
  H  H1  1  0.06699600  0.65410100  0.90385600  1
  H  H2  1  0.93279900  0.65422800  0.09502400  1
  H  H3  1  0.56699600  0.15410100  0.90385600  1
  H  H4  1  0.43279900  0.15422800  0.09502400  1
  H  H5  1  0.95973600  0.56353700  0.73445200  1
  H  H6  1  0.04228900  0.56367900  0.26290300  1
  H  H7  1  0.45973600  0.06353700  0.73445100  1
  H  H8  1  0.54228900  0.06367900  0.26290300  1
  H  H9  1  0.07698000  0.46854900  0.56190700  1
  H  H10  1  0.92129900  0.47410400  0.44068400  1
  H  H11  1  0.57697900  0.96854900  0.56190700  1
  H  H12  1  0.42129900  0.97410400  0.44068400  1
  H  H13  1  0.11513000  0.40616000  0.68981600  1
  H  H14  1  0.88107400  0.41122700  0.31615500  1
  H  H15  1  0.61513000  0.90616000  0.68981600  1
  H  H16  1  0.38107400  0.91122700  0.31615500  1
  H  H17  1  0.06199800  0.44803300  0.79844300  1
  H  H18  1  0.93586100  0.45032900  0.20517500  1
  H  H19  1  0.56199800  0.94803300  0.79844300  1
  H  H20  1  0.43586100  0.95032900  0.20517500  1
  H  H21  1  0.95903100  0.56152100  0.84661500  1
  H  H22  1  0.04268400  0.56090000  0.15115500  1
  H  H23  1  0.45903100  0.06152100  0.84661500  1
  H  H24  1  0.54268400  0.06090000  0.15115500  1
  H  H25  1  0.21952200  0.44996200  0.24282200  1
  H  H26  1  0.78066000  0.44988500  0.76160100  1
  H  H27  1  0.71952200  0.94996200  0.24282200  1
  H  H28  1  0.28066000  0.94988500  0.76160100  1
  H  H29  1  0.13931500  0.45061900  0.32304800  1
  H  H30  1  0.86088500  0.45014900  0.68168300  1
  H  H31  1  0.63931500  0.95061900  0.32304800  1
  H  H32  1  0.36088500  0.95014900  0.68168300  1
  H  H33  1  0.14138500  0.58476700  0.38139500  1
  H  H34  1  0.85949700  0.58164500  0.61226500  1
  H  H35  1  0.64138500  0.08476700  0.38139500  1
  H  H36  1  0.35949700  0.08164500  0.61226500  1
  H  H37  1  0.22155300  0.58353300  0.30237200  1
  H  H38  1  0.77933200  0.58076900  0.69101700  1
  H  H39  1  0.72155300  0.08353300  0.30237200  1
  H  H40  1  0.27933200  0.08076900  0.69101700  1
  H  H41  1  0.27976700  0.54288500  0.30529500  1
  H  H42  1  0.72092700  0.53814900  0.69149900  1
  H  H43  1  0.77976700  0.04288500  0.30529500  1
  H  H44  1  0.22092700  0.03814900  0.69149900  1
  H  H45  1  0.35993300  0.54134000  0.22799000  1
  H  H46  1  0.64075100  0.53710900  0.76891400  1
  H  H47  1  0.85993300  0.04134000  0.22799000  1
  H  H48  1  0.14075100  0.03710900  0.76891400  1
  H  H49  1  0.35993500  0.48792400  0.04648900  1
  H  H50  1  0.64042300  0.49096000  0.95455500  1
  H  H51  1  0.85993500  0.98792400  0.04648900  1
  H  H52  1  0.14042300  0.99096000  0.95455500  1
  H  H53  1  0.27968500  0.48867000  0.12473900  1
  H  H54  1  0.72066400  0.49119300  0.87628400  1
  H  H55  1  0.77968500  0.98867000  0.12473900  1
  H  H56  1  0.22066400  0.99119300  0.87628400  1
  H  H57  1  0.47310400  0.37389400  0.11543900  1
  H  H58  1  0.52677300  0.37352900  0.88160800  1
  H  H59  1  0.97310400  0.87389400  0.11543900  1
  H  H60  1  0.02677300  0.87352900  0.88160800  1
  H  H61  1  0.06671100  0.73433900  0.90322000  1
  H  H62  1  0.93306600  0.73446300  0.09496600  1
  H  H63  1  0.56671100  0.23433900  0.90322000  1
  H  H64  1  0.43306500  0.23446300  0.09496600  1
  H  H65  1  0.47267600  0.29365600  0.11571300  1
  H  H66  1  0.52710200  0.29329300  0.88199600  1
  H  H67  1  0.97267600  0.79365600  0.11571300  1
  H  H68  1  0.02710200  0.79329300  0.88199600  1
  H  H69  1  0.06533900  0.29360700  0.97397200  1
  H  H70  1  0.93510200  0.29336800  0.02727200  1
  H  H71  1  0.56533900  0.79360700  0.97397200  1
  H  H72  1  0.43510200  0.79336800  0.02727200  1
  H  H73  1  0.06553800  0.37381800  0.97311600  1
  H  H74  1  0.93470900  0.37359200  0.02798600  1
  H  H75  1  0.56553800  0.87381800  0.97311600  1
  H  H76  1  0.43470900  0.87359200  0.02798600  1
  H  H77  1  0.47744900  0.73428800  0.93041200  1
  H  H78  1  0.52318300  0.73451200  0.07083600  1
  H  H79  1  0.97744900  0.23428800  0.93041200  1
  H  H80  1  0.02318300  0.23451200  0.07083600  1
  H  H81  1  0.47792800  0.65406500  0.92970100  1
  H  H82  1  0.52291900  0.65429200  0.07161300  1
  H  H83  1  0.97792800  0.15406500  0.92970100  1
  H  H84  1  0.02291900  0.15429200  0.07161200  1
  H  H85  1  0.13049900  0.41602400  0.50466300  1
  H  H86  1  0.12785100  0.37406600  0.56557000  1
  H  H87  1  0.18827500  0.45726300  0.51379300  1
  H  H88  1  0.19581000  0.36006100  0.54290600  1
  H  H89  1  0.23778800  0.40481000  0.51094400  1
  H  H90  1  0.86588700  0.42367700  0.50084700  1
  H  H91  1  0.86684200  0.38104100  0.44245300  1
  H  H92  1  0.80981100  0.46652100  0.48924700  1
  H  H93  1  0.79839000  0.36935000  0.46576800  1
  H  H94  1  0.75823400  0.41565300  0.49507700  1
  H  H95  1  0.63049900  0.91602400  0.50466300  1
  H  H96  1  0.62785100  0.87406600  0.56557000  1
  H  H97  1  0.68827500  0.95726300  0.51379400  1
  H  H98  1  0.69580900  0.86006100  0.54290600  1
  H  H99  1  0.73778800  0.90481000  0.51094400  1
  H  H100  1  0.36588700  0.92367700  0.50084700  1
  H  H101  1  0.36684200  0.88104100  0.44245300  1
  H  H102  1  0.30981100  0.96652100  0.48924700  1
  H  H103  1  0.29839000  0.86935000  0.46576800  1
  H  H104  1  0.25823400  0.91565300  0.49507700  1
  C  C1  1  0.08637300  0.51801400  0.40734500  1
  C  C2  1  0.91416800  0.51596500  0.59217900  1
  C  C3  1  0.58637300  0.01801400  0.40734500  1
  C  C4  1  0.41416800  0.01596500  0.59217900  1
  C  C5  1  0.00727300  0.51581900  0.61249400  1
  C  C6  1  0.99319200  0.51820900  0.38719500  1
  C  C7  1  0.50727300  0.01581900  0.61249400  1
  C  C8  1  0.49319200  0.01820900  0.38719500  1
  C  C9  1  0.03739100  0.67141900  0.94614600  1
  C  C10  1  0.96240000  0.67148900  0.05257900  1
  C  C11  1  0.53739100  0.17141900  0.94614600  1
  C  C12  1  0.46240000  0.17148900  0.05257900  1
  C  C13  1  0.50043800  0.64852400  0.00065000  1
  C  C14  1  0.00043800  0.14852400  0.00065000  1
  C  C15  1  0.07205100  0.46438500  0.61533300  1
  C  C16  1  0.92616300  0.46914600  0.38745300  1
  C  C17  1  0.57205100  0.96438400  0.61533300  1
  C  C18  1  0.42616300  0.96914600  0.38745300  1
  C  C19  1  0.09931600  0.43545700  0.61916100  1
  C  C20  1  0.89783200  0.44095700  0.38524400  1
  C  C21  1  0.59931600  0.93545700  0.61916100  1
  C  C22  1  0.39783200  0.94095700  0.38524400  1
  C  C23  1  0.09480400  0.42982600  0.68572900  1
  C  C24  1  0.90223600  0.43440200  0.31894600  1
  C  C25  1  0.59480400  0.92982600  0.68572900  1
  C  C26  1  0.40223600  0.93440200  0.31894700  1
  C  C27  1  0.06468400  0.45453300  0.74739900  1
  C  C28  1  0.93330900  0.45757800  0.25588700  1
  C  C29  1  0.56468400  0.95453300  0.74739900  1
  C  C30  1  0.43330900  0.95757800  0.25588700  1
  C  C31  1  0.03846500  0.48548700  0.74335800  1
  C  C32  1  0.96060700  0.48792100  0.25822800  1
  C  C33  1  0.53846500  0.98548700  0.74335800  1
  C  C34  1  0.46060700  0.98792100  0.25822800  1
  C  C35  1  0.04030700  0.48835200  0.67802200  1
  C  C36  1  0.95887100  0.49147700  0.32340400  1
  C  C37  1  0.54030700  0.98835200  0.67802200  1
  C  C38  1  0.45887100  0.99147700  0.32340400  1
  C  C39  1  0.01103800  0.51584400  0.67566800  1
  C  C40  1  0.98923300  0.51803200  0.32422500  1
  C  C41  1  0.51103800  0.01584400  0.67566800  1
  C  C42  1  0.48923300  0.01803200  0.32422500  1
  C  C43  1  0.98252800  0.54221300  0.73607400  1
  C  C44  1  0.01866100  0.54305800  0.26247600  1
  C  C45  1  0.48252800  0.04221300  0.73607400  1
  C  C46  1  0.51866100  0.04305800  0.26247600  1
  C  C47  1  0.98164200  0.54048400  0.79980000  1
  C  C48  1  0.01936500  0.54084400  0.19895700  1
  C  C49  1  0.48164200  0.04048400  0.79980000  1
  C  C50  1  0.51936500  0.04084400  0.19895700  1
  C  C51  1  0.00935000  0.51248800  0.80416100  1
  C  C52  1  0.99065200  0.51359400  0.19601700  1
  C  C53  1  0.50935000  0.01248800  0.80416100  1
  C  C54  1  0.49065200  0.01359400  0.19601700  1
  C  C55  1  0.20248500  0.47976700  0.27274300  1
  C  C56  1  0.79785300  0.47903200  0.72928200  1
  C  C57  1  0.70248500  0.97976700  0.27274300  1
  C  C58  1  0.29785300  0.97903200  0.72928200  1
  C  C59  1  0.15703900  0.48008000  0.31868800  1
  C  C60  1  0.84330600  0.47910300  0.68352700  1
  C  C61  1  0.65703900  0.98008000  0.31868800  1
  C  C62  1  0.34330600  0.97910300  0.68352700  1
  C  C63  1  0.13464400  0.51779900  0.35771700  1
  C  C64  1  0.86589200  0.51599200  0.64153900  1
  C  C65  1  0.63464400  0.01779900  0.35771700  1
  C  C66  1  0.36589200  0.01599200  0.64153900  1
  C  C67  1  0.15817900  0.55501800  0.35094000  1
  C  C68  1  0.84254700  0.55257700  0.64509600  1
  C  C69  1  0.65817900  0.05501800  0.35094000  1
  C  C70  1  0.34254700  0.05257700  0.64509600  1
  C  C71  1  0.20362100  0.55423000  0.30675200  1
  C  C72  1  0.79710700  0.55196400  0.68912500  1
  C  C73  1  0.70362100  0.05423000  0.30675200  1
  C  C74  1  0.29710700  0.05196400  0.68912500  1
  C  C75  1  0.22598600  0.51668300  0.26718900  1
  C  C76  1  0.77454400  0.51529000  0.73170500  1
  C  C77  1  0.72598600  0.01668300  0.26718900  1
  C  C78  1  0.27454400  0.01529000  0.73170500  1
  C  C79  1  0.29723500  0.53093000  0.24835000  1
  C  C80  1  0.70338400  0.52791000  0.74936900  1
  C  C81  1  0.79723500  0.03093000  0.24835000  1
  C  C82  1  0.20338400  0.02791000  0.74936900  1
  C  C83  1  0.34265900  0.52964000  0.20471400  1
  C  C84  1  0.65795000  0.52690900  0.79310900  1
  C  C85  1  0.84265900  0.02964000  0.20471400  1
  C  C86  1  0.15795000  0.02690900  0.79310900  1
  C  C87  1  0.36561800  0.51454000  0.13173300  1
  C  C88  1  0.63489500  0.51399300  0.86726100  1
  C  C89  1  0.86561800  0.01454000  0.13173300  1
  C  C90  1  0.13489500  0.01399300  0.86726100  1
  C  C91  1  0.34265200  0.50007300  0.10328300  1
  C  C92  1  0.65777500  0.50139800  0.89682600  1
  C  C93  1  0.84265200  0.00007300  0.10328300  1
  C  C94  1  0.15777500  0.00139800  0.89682600  1
  C  C95  1  0.29718700  0.50012500  0.14775400  1
  C  C96  1  0.70323800  0.50114600  0.85236500  1
  C  C97  1  0.79718700  0.00012500  0.14775400  1
  C  C98  1  0.20323800  0.00114600  0.85236500  1
  C  C99  1  0.27427800  0.51591500  0.22026600  1
  C  C100  1  0.72624700  0.51476700  0.77862700  1
  C  C101  1  0.77427800  0.01591500  0.22026600  1
  C  C102  1  0.22624700  0.01476700  0.77862700  1
  C  C103  1  0.99989800  0.64851800  0.99946400  1
  C  C104  1  0.49989800  0.14851800  0.99946400  1
  C  C105  1  0.03715100  0.71686200  0.94529900  1
  C  C106  1  0.96263000  0.71693500  0.05303100  1
  C  C107  1  0.53715100  0.21686200  0.94529900  1
  C  C108  1  0.46263000  0.21693500  0.05303100  1
  C  C109  1  0.50030400  0.73981100  0.00062800  1
  C  C110  1  0.00030400  0.23981100  0.00062800  1
  C  C111  1  0.99988800  0.73980500  0.99906700  1
  C  C112  1  0.49988800  0.23980500  0.99906700  1
  C  C113  1  0.00009500  0.42762800  0.00039700  1
  C  C114  1  0.50009500  0.92762800  0.00039700  1
  C  C115  1  0.00673700  0.51290000  0.87379800  1
  C  C116  1  0.99322300  0.51350500  0.12637500  1
  C  C117  1  0.50673700  0.01290000  0.87379800  1
  C  C118  1  0.49322300  0.01350500  0.12637500  1
  C  C119  1  0.48442700  0.31107800  0.06419900  1
  C  C120  1  0.51535900  0.31087500  0.93337300  1
  C  C121  1  0.98442700  0.81107800  0.06419900  1
  C  C122  1  0.01535900  0.81087500  0.93337300  1
  C  C123  1  0.99989900  0.60024900  0.99969200  1
  C  C124  1  0.49989900  0.10024900  0.99969200  1
  C  C125  1  0.50003000  0.42762800  0.99827800  1
  C  C126  1  0.00003000  0.92762800  0.99827800  1
  C  C127  1  0.41391900  0.51409400  0.08485200  1
  C  C128  1  0.58658900  0.51380500  0.91416400  1
  C  C129  1  0.91391900  0.01409400  0.08485200  1
  C  C130  1  0.08658900  0.01380500  0.91416400  1
  C  C131  1  0.48506500  0.35652300  0.06381000  1
  C  C132  1  0.51477400  0.35632000  0.93338700  1
  C  C133  1  0.98506500  0.85652300  0.06381000  1
  C  C134  1  0.01477400  0.85632000  0.93338700  1
  C  C135  1  0.50042500  0.60025400  0.00078300  1
  C  C136  1  0.00042500  0.10025400  0.00078300  1
  C  C137  1  0.03648200  0.31105000  0.98619500  1
  C  C138  1  0.96391200  0.31091700  0.01504000  1
  C  C139  1  0.53648200  0.81105000  0.98619500  1
  C  C140  1  0.46391200  0.81091700  0.01504000  1
  C  C141  1  0.03669800  0.35649100  0.98505800  1
  C  C142  1  0.96358100  0.35636200  0.01610500  1
  C  C143  1  0.53669800  0.85649100  0.98505800  1
  C  C144  1  0.46358100  0.85636200  0.01610500  1
  C  C145  1  0.00011400  0.37936300  0.00055400  1
  C  C146  1  0.50011400  0.87936300  0.00055400  1
  C  C147  1  0.49988700  0.28807000  0.99887800  1
  C  C148  1  0.99988700  0.78807000  0.99887800  1
  C  C149  1  0.49993900  0.37935800  0.99850200  1
  C  C150  1  0.99993900  0.87935800  0.99850200  1
  C  C151  1  0.00022900  0.28807600  0.00062500  1
  C  C152  1  0.50022900  0.78807600  0.00062500  1
  C  C153  1  0.48729600  0.71684000  0.96177400  1
  C  C154  1  0.51339200  0.71696800  0.03947200  1
  C  C155  1  0.98729600  0.21684000  0.96177400  1
  C  C156  1  0.01339200  0.21696800  0.03947200  1
  C  C157  1  0.48797700  0.67139700  0.96085300  1
  C  C158  1  0.51284300  0.67152400  0.04041800  1
  C  C159  1  0.98797700  0.17139700  0.96085300  1
  C  C160  1  0.01284300  0.17152400  0.04041800  1
  C  C161  1  0.13320300  0.40971300  0.55195300  1
  C  C162  1  0.17798500  0.42325600  0.52921000  1
  C  C163  1  0.20541600  0.39421700  0.52761400  1
  C  C164  1  0.86293300  0.41695900  0.45393100  1
  C  C165  1  0.81873200  0.43208000  0.47581100  1
  C  C166  1  0.79015800  0.40391900  0.47906200  1
  C  C167  1  0.63320300  0.90971300  0.55195300  1
  C  C168  1  0.67798500  0.92325600  0.52921000  1
  C  C169  1  0.70541600  0.89421700  0.52761400  1
  C  C170  1  0.36293300  0.91695900  0.45393100  1
  C  C171  1  0.31873200  0.93208000  0.47581100  1
  C  C172  1  0.29015800  0.90391900  0.47906200  1
  O  O1  1  0.06587600  0.55611400  0.42831300  1
  O  O2  1  0.93478000  0.55394500  0.56842900  1
  O  O3  1  0.56587600  0.05611400  0.42831300  1
  O  O4  1  0.43478000  0.05394500  0.56842900  1
  O  O5  1  0.06570400  0.48004300  0.43019700  1
  O  O6  1  0.93471900  0.47790500  0.57222600  1
  O  O7  1  0.56570400  0.98004300  0.43019700  1
  O  O8  1  0.43471900  0.97790500  0.57222600  1
  O  O9  1  0.00566400  0.55387300  0.58552800  1
  O  O10  1  0.99683300  0.55626300  0.41174500  1
  O  O11  1  0.50566400  0.05387300  0.58552800  1
  O  O12  1  0.49683300  0.05626300  0.41174500  1
  O  O13  1  0.00433600  0.47777300  0.58710700  1
  O  O14  1  0.99418700  0.48020000  0.41489900  1
  O  O15  1  0.50433600  0.97777300  0.58710700  1
  O  O16  1  0.49418700  0.98020000  0.41489900  1
  O  O17  1  0.96210300  0.44822100  0.03489300  1
  O  O18  1  0.03808500  0.44822300  0.96570400  1
  O  O19  1  0.46210300  0.94822100  0.03489300  1
  O  O20  1  0.53808500  0.94822300  0.96570400  1
  O  O21  1  0.96749000  0.51452800  0.93727900  1
  O  O22  1  0.03246600  0.51485400  0.06284800  1
  O  O23  1  0.46749000  0.01452800  0.93727900  1
  O  O24  1  0.53246600  0.01485400  0.06284800  1
  O  O25  1  0.04332200  0.51405700  0.87004000  1
  O  O26  1  0.95665900  0.51468700  0.13007500  1
  O  O27  1  0.54332200  0.01405700  0.87004000  1
  O  O28  1  0.45665900  0.01468700  0.13007500  1
  O  O29  1  0.96188800  0.57965600  0.03502100  1
  O  O30  1  0.03790700  0.57965200  0.96458600  1
  O  O31  1  0.46188800  0.07965600  0.03502100  1
  O  O32  1  0.53790700  0.07965200  0.96458600  1
  O  O33  1  0.49844700  0.44831400  0.05264100  1
  O  O34  1  0.50177700  0.44814900  0.94367600  1
  O  O35  1  0.99844700  0.94831400  0.05264100  1
  O  O36  1  0.00177700  0.94814900  0.94367600  1
  O  O37  1  0.43434500  0.51559100  0.11787900  1
  O  O38  1  0.56616000  0.51344900  0.88110300  1
  O  O39  1  0.93434500  0.01559100  0.11787800  1
  O  O40  1  0.06616000  0.01344900  0.88110300  1
  O  O41  1  0.43474000  0.51254400  0.01176900  1
  O  O42  1  0.56576000  0.51419400  0.98728900  1
  O  O43  1  0.93474000  0.01254400  0.01176900  1
  O  O44  1  0.06576000  0.01419400  0.98728900  1
  O  O45  1  0.49988200  0.57972900  0.05425700  1
  O  O46  1  0.50087800  0.57957100  0.94747900  1
  O  O47  1  0.99988200  0.07972900  0.05425700  1
  O  O48  1  0.00087800  0.07957100  0.94747900  1
