# Generated by REPEAT Assigner based on pymatgen
data_DB0-m3_o1500_o159_f0_fsc.sym.22
_audit_creation_date              2022-05-24
_audit_creation_method            REPEAT_Assigner
_cell_length_a                    15.020884
_cell_length_b                    8.463204
_cell_length_c                    13.397756
_cell_angle_alpha                 90.000000
_cell_angle_beta                  98.264596
_cell_angle_gamma                 90.000000
_cell_volume                      1685.499134
_symmetry_space_group_name_H-M    P1
_symmetry_Int_Tables_number       1
loop_
    _symmetry_equiv_pos_site_id
    _symmetry_equiv_pos_as_xyz
    1  x,y,z
loop_
    _atom_site_type_symbol
    _atom_site_label
    _atom_site_fract_x
    _atom_site_fract_y
    _atom_site_fract_z
    _atom_type_partial_charge
    H   H1   0.566741  0.993734  0.057017  0.143157
    H   H2   0.433259  0.993734  0.942983  0.143136
    C   C1   0.680222  0.853195  0.037573  0.062150
    C   C2   0.319778  0.853195  0.962427  0.062221
    C   C3   0.769218  0.853241  0.022893  -0.278272
    C   C4   0.230782  0.853241  0.977107  -0.278273
    C   C5   0.814561  0.994987  0.020219  0.586080
    C   C6   0.185439  0.994987  0.979780  0.586025
    C   C7   0.769048  0.136359  0.024053  -0.671114
    C   C8   0.230952  0.136359  0.975947  -0.671117
    H   H3   0.802969  0.247023  0.015134  0.267729
    H   H4   0.197031  0.247023  0.984866  0.267740
    C   C9   0.680006  0.135492  0.038609  0.158046
    C   C10  0.319994  0.135492  0.961391  0.158105
    C   C11  0.637292  0.994081  0.049310  -0.261946
    C   C12  0.362708  0.994081  0.950690  -0.261947
    C   C13  0.973800  0.995443  0.094436  -0.095266
    C   C14  0.026200  0.995443  0.905563  -0.095232
    C   C15  0.064003  0.995376  0.084928  -0.107453
    C   C16  0.935997  0.995376  0.915072  -0.107465
    H   H5   0.114109  0.995270  0.151480  0.078651
    H   H6   0.885891  0.995269  0.848520  0.078656
    C   C17  0.090197  0.995387  0.990453  0.075090
    C   C18  0.909803  0.995387  0.009547  0.075098
    O   O1   0.590008  0.659649  0.103892  -0.741175
    O   O2   0.409992  0.659649  0.896107  -0.741075
    O   O3   0.601626  0.656639  0.934160  -0.707649
    O   O4   0.398374  0.656639  0.065840  -0.707619
    C   C19  0.625518  0.710209  0.025906  0.852569
    C   C20  0.374482  0.710209  0.974094  0.852408
    O   O5   0.600025  0.330565  0.935376  -0.688359
    O   O6   0.399975  0.330565  0.064624  -0.688329
    O   O7   0.589563  0.328081  0.105705  -0.723186
    O   O8   0.410437  0.328081  0.894294  -0.723088
    C   C21  0.625096  0.278306  0.027385  0.798271
    C   C22  0.374904  0.278306  0.972615  0.798120
    Zn  Zn1  0.505748  0.495503  0.889663  1.055834
    Zn  Zn2  0.494252  0.495503  0.110337  1.055862
    C   C23  0.491541  0.359911  0.292807  -0.222060
    C   C24  0.508459  0.359911  0.707193  -0.222045
    N   N1   0.489377  0.495501  0.240278  0.132301
    N   N2   0.510623  0.495501  0.759722  0.132324
    C   C25  0.490416  0.635468  0.287653  -0.110200
    C   C26  0.509584  0.635468  0.712347  -0.110182
    C   C27  0.494000  0.643044  0.390830  -0.190238
    C   C28  0.506000  0.643044  0.609170  -0.190280
    C   C29  0.497281  0.505183  0.447427  0.057827
    C   C30  0.502719  0.505183  0.552573  0.057882
    C   C31  0.495249  0.362647  0.396443  0.249148
    C   C32  0.504751  0.362647  0.603557  0.249087
    C   C33  0.502187  0.221901  0.551569  -0.240030
    C   C34  0.497813  0.221901  0.448430  -0.240011
    H   H7   0.489728  0.743550  0.244557  0.158659
    H   H8   0.510272  0.743550  0.755443  0.158660
    H   H9   0.508149  0.248314  0.746390  0.173574
    H   H10  0.491851  0.248314  0.253610  0.173572
    H   H11  0.503768  0.110821  0.591616  0.160409
    H   H12  0.496232  0.110821  0.408384  0.160424
    H   H13  0.494780  0.759162  0.423145  0.145090
    H   H14  0.505220  0.759162  0.576855  0.145103
    Br  Br1  0.829298  0.658857  0.005781  -0.064300
    Br  Br2  0.170702  0.658857  0.994219  -0.064296
    Br  Br3  0.937500  0.995320  0.225029  -0.053409
    Br  Br4  0.062500  0.995320  0.774971  -0.053391
