# generated using pymatgen
data_Zn3H21C54O13
_symmetry_space_group_name_H-M   'P 1'
_cell_length_a   28.34358400
_cell_length_b   19.15615100
_cell_length_c   16.61348000
_cell_angle_alpha   90.00000000
_cell_angle_beta   61.92950300
_cell_angle_gamma   90.00000000
_symmetry_Int_Tables_number   1
_chemical_formula_structural   Zn3H21C54O13
_chemical_formula_sum   'Zn12 H84 C216 O52'
_cell_volume   7959.28419213
_cell_formula_units_Z   4
loop_
 _symmetry_equiv_pos_site_id
 _symmetry_equiv_pos_as_xyz
  1  'x, y, z'
loop_
 _atom_site_type_symbol
 _atom_site_label
 _atom_site_symmetry_multiplicity
 _atom_site_fract_x
 _atom_site_fract_y
 _atom_site_fract_z
 _atom_site_occupancy
  Zn  Zn1  1  0.79356200  0.20703400  0.50466500  1
  Zn  Zn2  1  0.20845600  0.79085800  0.49844000  1
  Zn  Zn3  1  0.20845600  0.20915700  0.49843900  1
  Zn  Zn4  1  0.79356200  0.79298100  0.50466300  1
  Zn  Zn5  1  0.29356200  0.70703400  0.50466500  1
  Zn  Zn6  1  0.70845600  0.29085800  0.49844000  1
  Zn  Zn7  1  0.70845600  0.70915700  0.49843900  1
  Zn  Zn8  1  0.29356200  0.29298100  0.50466300  1
  Zn  Zn9  1  0.49941100  0.50000800  0.09321200  1
  Zn  Zn10  1  0.50354100  0.50000800  0.90910800  1
  Zn  Zn11  1  0.99941100  0.00000800  0.09321200  1
  Zn  Zn12  1  0.00354100  0.00000800  0.90910800  1
  H  H1  1  0.06764900  0.26782600  0.42372000  1
  H  H2  1  0.98481100  0.73240500  0.41316200  1
  H  H3  1  0.98481000  0.26761000  0.41316400  1
  H  H4  1  0.06764900  0.73219000  0.42372100  1
  H  H5  1  0.56764900  0.76782600  0.42372000  1
  H  H6  1  0.48481100  0.23240500  0.41316200  1
  H  H7  1  0.48481000  0.76761000  0.41316400  1
  H  H8  1  0.56764900  0.23219000  0.42372100  1
  H  H9  1  0.13300100  0.32953500  0.43864200  1
  H  H10  1  0.91564600  0.67080700  0.40955000  1
  H  H11  1  0.91564600  0.32920800  0.40955200  1
  H  H12  1  0.13300000  0.67048100  0.43864400  1
  H  H13  1  0.63300100  0.82953500  0.43864200  1
  H  H14  1  0.41564600  0.17080700  0.40955000  1
  H  H15  1  0.41564600  0.82920800  0.40955200  1
  H  H16  1  0.63300000  0.17048100  0.43864400  1
  H  H17  1  0.62093200  0.34770000  0.78039600  1
  H  H18  1  0.38119100  0.65079700  0.22283300  1
  H  H19  1  0.38119200  0.34921700  0.22283100  1
  H  H20  1  0.62093200  0.65231400  0.78039500  1
  H  H21  1  0.12093200  0.84770000  0.78039600  1
  H  H22  1  0.88119100  0.15079700  0.22283300  1
  H  H23  1  0.88119200  0.84921700  0.22283100  1
  H  H24  1  0.12093200  0.15231400  0.78039500  1
  H  H25  1  0.59248100  0.36855600  0.09424000  1
  H  H26  1  0.41065100  0.63212600  0.90819500  1
  H  H27  1  0.41064900  0.36789200  0.90819500  1
  H  H28  1  0.59247900  0.63146300  0.09424100  1
  H  H29  1  0.09248100  0.86855600  0.09424000  1
  H  H30  1  0.91065100  0.13212600  0.90819500  1
  H  H31  1  0.91064900  0.86789200  0.90819500  1
  H  H32  1  0.09247900  0.13146300  0.09424100  1
  H  H33  1  0.64528900  0.34601300  0.15979800  1
  H  H34  1  0.35783400  0.65490000  0.84255800  1
  H  H35  1  0.35783300  0.34511900  0.84255900  1
  H  H36  1  0.64528700  0.65400700  0.15979900  1
  H  H37  1  0.14528900  0.84601300  0.15979800  1
  H  H38  1  0.85783400  0.15490000  0.84255800  1
  H  H39  1  0.85783300  0.84511900  0.84255900  1
  H  H40  1  0.14528700  0.15400700  0.15979900  1
  H  H41  1  0.73841500  0.16005300  0.75311600  1
  H  H42  1  0.26378600  0.83853500  0.25134100  1
  H  H43  1  0.26378600  0.16148200  0.25133900  1
  H  H44  1  0.73841500  0.83996200  0.75311400  1
  H  H45  1  0.23841500  0.66005300  0.75311600  1
  H  H46  1  0.76378600  0.33853500  0.25134100  1
  H  H47  1  0.76378600  0.66148200  0.25133900  1
  H  H48  1  0.23841500  0.33996200  0.75311400  1
  H  H49  1  0.79097000  0.13368000  0.82258200  1
  H  H50  1  0.21178100  0.86627200  0.18113300  1
  H  H51  1  0.21178000  0.13374500  0.18113300  1
  H  H52  1  0.79096900  0.86633700  0.82258000  1
  H  H53  1  0.29097000  0.63368000  0.82258200  1
  H  H54  1  0.71178100  0.36627200  0.18113300  1
  H  H55  1  0.71178000  0.63374500  0.18113300  1
  H  H56  1  0.29096900  0.36633700  0.82258000  1
  H  H57  1  0.71602800  0.50000800  0.60958400  1
  H  H58  1  0.63069900  0.50000700  0.60499400  1
  H  H59  1  0.56967700  0.50000400  0.40348700  1
  H  H60  1  0.63130500  0.45239400  0.34239000  1
  H  H61  1  0.63130400  0.54761500  0.34239000  1
  H  H62  1  0.71648100  0.50000700  0.31284700  1
  H  H63  1  0.80012000  0.50000700  0.31883500  1
  H  H64  1  0.14049800  0.50000800  0.71347200  1
  H  H65  1  0.18492700  0.50000900  0.80939200  1
  H  H66  1  0.34800700  0.50000800  0.78241900  1
  H  H67  1  0.35876200  0.54762700  0.68169900  1
  H  H68  1  0.35876200  0.45238900  0.68169900  1
  H  H69  1  0.33701900  0.50000700  0.56900900  1
  H  H70  1  0.29250300  0.50000700  0.47561600  1
  H  H71  1  0.21602800  0.00000800  0.60958400  1
  H  H72  1  0.13069900  0.00000700  0.60499400  1
  H  H73  1  0.06967700  0.00000400  0.40348700  1
  H  H74  1  0.13130500  0.95239400  0.34239000  1
  H  H75  1  0.13130400  0.04761500  0.34239000  1
  H  H76  1  0.21648100  0.00000700  0.31284700  1
  H  H77  1  0.30012000  0.00000700  0.31883500  1
  H  H78  1  0.64049800  0.00000800  0.71347200  1
  H  H79  1  0.68492700  0.00000900  0.80939200  1
  H  H80  1  0.84800700  0.00000800  0.78241900  1
  H  H81  1  0.85876200  0.04762700  0.68169900  1
  H  H82  1  0.85876200  0.95238900  0.68169900  1
  H  H83  1  0.83701900  0.00000700  0.56900900  1
  H  H84  1  0.79250300  0.00000700  0.47561600  1
  C  C1  1  0.70187600  0.26478300  0.68195100  1
  C  C2  1  0.29992900  0.73307700  0.32150900  1
  C  C3  1  0.29993000  0.26693800  0.32150700  1
  C  C4  1  0.70187600  0.73523200  0.68194900  1
  C  C5  1  0.20187600  0.76478300  0.68195100  1
  C  C6  1  0.79992900  0.23307700  0.32150900  1
  C  C7  1  0.79993000  0.76693800  0.32150700  1
  C  C8  1  0.20187600  0.23523200  0.68194900  1
  C  C9  1  0.69478800  0.13083100  0.52032600  1
  C  C10  1  0.30896200  0.86730600  0.47635500  1
  C  C11  1  0.30896200  0.13270900  0.47635400  1
  C  C12  1  0.69478800  0.86918400  0.52032500  1
  C  C13  1  0.19478800  0.63083100  0.52032600  1
  C  C14  1  0.80896200  0.36730600  0.47635500  1
  C  C15  1  0.80896200  0.63270900  0.47635400  1
  C  C16  1  0.19478800  0.36918400  0.52032500  1
  C  C17  1  0.56493900  0.12237900  0.45031600  1
  C  C18  1  0.47135500  0.87740900  0.43807300  1
  C  C19  1  0.47135500  0.12260600  0.43807200  1
  C  C20  1  0.56493900  0.87763700  0.45031500  1
  C  C21  1  0.06493900  0.62237900  0.45031600  1
  C  C22  1  0.97135500  0.37740900  0.43807300  1
  C  C23  1  0.97135500  0.62260600  0.43807200  1
  C  C24  1  0.06493900  0.37763700  0.45031500  1
  C  C25  1  0.54632300  0.18371500  0.43197000  1
  C  C26  1  0.49951800  0.81617000  0.42601900  1
  C  C27  1  0.49951900  0.18384600  0.42601800  1
  C  C28  1  0.54632300  0.81630000  0.43197000  1
  C  C29  1  0.04632300  0.68371500  0.43197000  1
  C  C30  1  0.99951800  0.31617000  0.42601900  1
  C  C31  1  0.99951900  0.68384600  0.42601800  1
  C  C32  1  0.04632300  0.31630000  0.43197000  1
  C  C33  1  0.49097100  0.06139200  0.45254300  1
  C  C34  1  0.53798000  0.93866500  0.45904300  1
  C  C35  1  0.53798000  0.06135000  0.45904300  1
  C  C36  1  0.49097100  0.93862400  0.45254300  1
  C  C37  1  0.99097100  0.56139200  0.45254300  1
  C  C38  1  0.03798000  0.43866500  0.45904300  1
  C  C39  1  0.03798000  0.56135000  0.45904300  1
  C  C40  1  0.99097100  0.43862400  0.45254300  1
  C  C41  1  0.96545300  0.50000800  0.45409400  1
  C  C42  1  0.06028000  0.50000800  0.46761800  1
  C  C43  1  0.46545300  0.00000800  0.45409400  1
  C  C44  1  0.56028000  0.00000800  0.46761800  1
  C  C45  1  0.89247800  0.43673700  0.45171900  1
  C  C46  1  0.12858700  0.56298800  0.48518000  1
  C  C47  1  0.12858800  0.43702800  0.48517900  1
  C  C48  1  0.89247800  0.56327800  0.45171800  1
  C  C49  1  0.39247800  0.93673700  0.45171900  1
  C  C50  1  0.62858700  0.06298800  0.48518000  1
  C  C51  1  0.62858800  0.93702800  0.48517900  1
  C  C52  1  0.39247800  0.06327800  0.45171800  1
  C  C53  1  0.83994200  0.43529500  0.46230200  1
  C  C54  1  0.16898900  0.56400400  0.51255200  1
  C  C55  1  0.16898900  0.43601100  0.51255200  1
  C  C56  1  0.83994200  0.56472000  0.46230100  1
  C  C57  1  0.33994200  0.93529500  0.46230200  1
  C  C58  1  0.66898900  0.06400400  0.51255200  1
  C  C59  1  0.66898900  0.93601100  0.51255200  1
  C  C60  1  0.33994200  0.06472000  0.46230100  1
  C  C61  1  0.81494800  0.50000700  0.46558300  1
  C  C62  1  0.18549500  0.50000800  0.53266800  1
  C  C63  1  0.31494800  0.00000700  0.46558300  1
  C  C64  1  0.68549500  0.00000800  0.53266800  1
  C  C65  1  0.91608600  0.50000800  0.45384300  1
  C  C66  1  0.10526400  0.50000800  0.48166400  1
  C  C67  1  0.41608600  0.00000800  0.45384300  1
  C  C68  1  0.60526400  0.00000800  0.48166400  1
  C  C69  1  0.11118300  0.37749900  0.45796900  1
  C  C70  1  0.92424100  0.62297200  0.43330000  1
  C  C71  1  0.92424100  0.37704300  0.43330200  1
  C  C72  1  0.11118300  0.62251700  0.45797000  1
  C  C73  1  0.61118300  0.87749900  0.45796900  1
  C  C74  1  0.42424100  0.12297200  0.43330000  1
  C  C75  1  0.42424100  0.87704300  0.43330200  1
  C  C76  1  0.61118300  0.12251700  0.45797000  1
  C  C77  1  0.71920900  0.26427000  0.96089700  1
  C  C78  1  0.28367500  0.73596100  0.04190600  1
  C  C79  1  0.28367400  0.26405600  0.04190500  1
  C  C80  1  0.71920800  0.73574800  0.96089700  1
  C  C81  1  0.21920900  0.76427000  0.96089700  1
  C  C82  1  0.78367500  0.23596100  0.04190600  1
  C  C83  1  0.78367400  0.76405600  0.04190500  1
  C  C84  1  0.21920800  0.23574800  0.96089700  1
  C  C85  1  0.76110700  0.21771500  0.92101300  1
  C  C86  1  0.24178300  0.78255800  0.08186600  1
  C  C87  1  0.24178200  0.21746000  0.08186600  1
  C  C88  1  0.76110600  0.78230300  0.92101300  1
  C  C89  1  0.26110700  0.71771500  0.92101300  1
  C  C90  1  0.74178300  0.28255800  0.08186600  1
  C  C91  1  0.74178200  0.71746000  0.08186600  1
  C  C92  1  0.26110600  0.28230300  0.92101300  1
  C  C93  1  0.79469500  0.20611600  0.95944800  1
  C  C94  1  0.20829000  0.79433700  0.04322500  1
  C  C95  1  0.20828800  0.20568100  0.04322500  1
  C  C96  1  0.79469400  0.79390100  0.95944800  1
  C  C97  1  0.29469500  0.70611600  0.95944800  1
  C  C98  1  0.70829000  0.29433700  0.04322500  1
  C  C99  1  0.70828800  0.70568100  0.04322500  1
  C  C100  1  0.29469400  0.29390100  0.95944800  1
  C  C101  1  0.64577900  0.32697100  0.95902200  1
  C  C102  1  0.35706500  0.67303400  0.04364300  1
  C  C103  1  0.35706400  0.32698300  0.04364300  1
  C  C104  1  0.64577800  0.67304700  0.95902200  1
  C  C105  1  0.14577900  0.82697100  0.95902200  1
  C  C106  1  0.85706500  0.17303400  0.04364300  1
  C  C107  1  0.85706400  0.82698300  0.04364300  1
  C  C108  1  0.14577800  0.17304700  0.95902200  1
  C  C109  1  0.61968900  0.35057700  0.90981900  1
  C  C110  1  0.38304900  0.64909400  0.09285600  1
  C  C111  1  0.38304900  0.35092100  0.09285500  1
  C  C112  1  0.61968900  0.64944000  0.90981800  1
  C  C113  1  0.11968900  0.85057700  0.90981900  1
  C  C114  1  0.88304900  0.14909400  0.09285600  1
  C  C115  1  0.88304900  0.85092100  0.09285500  1
  C  C116  1  0.11968900  0.14944000  0.90981800  1
  C  C117  1  0.63819600  0.32694200  0.82093400  1
  C  C118  1  0.36417500  0.67196200  0.18213000  1
  C  C119  1  0.36417500  0.32805200  0.18212900  1
  C  C120  1  0.63819500  0.67307300  0.82093300  1
  C  C121  1  0.13819600  0.82694200  0.82093400  1
  C  C122  1  0.86417500  0.17196200  0.18213000  1
  C  C123  1  0.86417500  0.82805200  0.18212900  1
  C  C124  1  0.13819500  0.17307300  0.82093300  1
  C  C125  1  0.67900300  0.27837700  0.78160800  1
  C  C126  1  0.32315200  0.72014500  0.22175600  1
  C  C127  1  0.32315200  0.27987100  0.22175400  1
  C  C128  1  0.67900200  0.72163800  0.78160700  1
  C  C129  1  0.17900300  0.77837700  0.78160800  1
  C  C130  1  0.82315200  0.22014500  0.22175600  1
  C  C131  1  0.82315200  0.77987100  0.22175400  1
  C  C132  1  0.17900200  0.22163800  0.78160700  1
  C  C133  1  0.70164300  0.25203800  0.83375600  1
  C  C134  1  0.30076700  0.74710000  0.16957200  1
  C  C135  1  0.30076700  0.25291600  0.16957100  1
  C  C136  1  0.70164200  0.74797800  0.83375500  1
  C  C137  1  0.20164300  0.75203800  0.83375600  1
  C  C138  1  0.80076700  0.24710000  0.16957200  1
  C  C139  1  0.80076700  0.75291600  0.16957100  1
  C  C140  1  0.20164200  0.24797800  0.83375500  1
  C  C141  1  0.68878700  0.28135800  0.91775700  1
  C  C142  1  0.31394600  0.71846700  0.08514100  1
  C  C143  1  0.31394500  0.28155000  0.08514100  1
  C  C144  1  0.68878600  0.71866000  0.91775700  1
  C  C145  1  0.18878700  0.78135800  0.91775700  1
  C  C146  1  0.81394600  0.21846700  0.08514100  1
  C  C147  1  0.81394500  0.78155000  0.08514100  1
  C  C148  1  0.18878600  0.21866000  0.91775700  1
  C  C149  1  0.62987300  0.34505100  0.04921700  1
  C  C150  1  0.37318100  0.65545400  0.95324500  1
  C  C151  1  0.37318000  0.34456400  0.95324500  1
  C  C152  1  0.62987100  0.65496700  0.04921800  1
  C  C153  1  0.12987300  0.84505100  0.04921700  1
  C  C154  1  0.87318100  0.15545400  0.95324500  1
  C  C155  1  0.87318000  0.84456400  0.95324500  1
  C  C156  1  0.12987100  0.15496700  0.04921800  1
  C  C157  1  0.66113900  0.33072400  0.08941400  1
  C  C158  1  0.34193300  0.66991700  0.91306100  1
  C  C159  1  0.34193200  0.33010100  0.91306100  1
  C  C160  1  0.66113700  0.66929500  0.08941400  1
  C  C161  1  0.16113900  0.83072400  0.08941400  1
  C  C162  1  0.84193300  0.16991700  0.91306100  1
  C  C163  1  0.84193200  0.83010100  0.91306100  1
  C  C164  1  0.16113700  0.16929500  0.08941400  1
  C  C165  1  0.73558800  0.19510400  0.80583600  1
  C  C166  1  0.26683900  0.80406800  0.19788500  1
  C  C167  1  0.26683800  0.19594900  0.19788400  1
  C  C168  1  0.73558700  0.80491200  0.80583500  1
  C  C169  1  0.23558800  0.69510400  0.80583600  1
  C  C170  1  0.76683900  0.30406800  0.19788500  1
  C  C171  1  0.76683800  0.69594900  0.19788400  1
  C  C172  1  0.23558700  0.30491200  0.80583500  1
  C  C173  1  0.76571000  0.17898300  0.84759400  1
  C  C174  1  0.23701800  0.82089400  0.15576100  1
  C  C175  1  0.23701700  0.17912300  0.15576000  1
  C  C176  1  0.76570900  0.82103400  0.84759300  1
  C  C177  1  0.26571000  0.67898300  0.84759400  1
  C  C178  1  0.73701800  0.32089400  0.15576100  1
  C  C179  1  0.73701700  0.67912300  0.15576000  1
  C  C180  1  0.26570900  0.32103400  0.84759300  1
  C  C181  1  0.07659600  0.09533800  0.94280000  1
  C  C182  1  0.92632700  0.90473800  0.05956100  1
  C  C183  1  0.92632600  0.09527700  0.05956100  1
  C  C184  1  0.07659600  0.90467800  0.94280000  1
  C  C185  1  0.57659600  0.59533800  0.94280000  1
  C  C186  1  0.42632700  0.40473800  0.05956100  1
  C  C187  1  0.42632600  0.59527700  0.05956100  1
  C  C188  1  0.57659600  0.40467800  0.94280000  1
  C  C189  1  0.76352400  0.50000700  0.46427400  1
  C  C190  1  0.71577700  0.50000700  0.54471900  1
  C  C191  1  0.66790300  0.50000700  0.54201500  1
  C  C192  1  0.66704200  0.50000600  0.45959400  1
  C  C193  1  0.61294900  0.50000500  0.38328000  1
  C  C194  1  0.71500000  0.50000700  0.37899500  1
  C  C195  1  0.76286900  0.50000700  0.38172800  1
  C  C196  1  0.21345100  0.50000700  0.58840200  1
  C  C197  1  0.18365900  0.50000800  0.68209600  1
  C  C198  1  0.20866200  0.50000800  0.73596400  1
  C  C199  1  0.26370800  0.50000800  0.69710600  1
  C  C200  1  0.34052400  0.50000800  0.72262800  1
  C  C201  1  0.29385500  0.50000700  0.60281800  1
  C  C202  1  0.26874800  0.50000700  0.54907600  1
  C  C203  1  0.26352400  0.00000700  0.46427400  1
  C  C204  1  0.21577700  0.00000700  0.54471900  1
  C  C205  1  0.16790300  0.00000700  0.54201500  1
  C  C206  1  0.16704200  0.00000600  0.45959400  1
  C  C207  1  0.11294900  0.00000500  0.38328000  1
  C  C208  1  0.21500000  0.00000700  0.37899500  1
  C  C209  1  0.26286900  0.00000700  0.38172800  1
  C  C210  1  0.71345100  0.00000700  0.58840200  1
  C  C211  1  0.68365900  0.00000800  0.68209600  1
  C  C212  1  0.70866200  0.00000800  0.73596400  1
  C  C213  1  0.76370800  0.00000800  0.69710600  1
  C  C214  1  0.84052400  0.00000800  0.72262800  1
  C  C215  1  0.79385500  0.00000700  0.60281800  1
  C  C216  1  0.76874800  0.00000700  0.54907600  1
  O  O1  1  0.74762900  0.23207100  0.63783600  1
  O  O2  1  0.25325700  0.76394100  0.36564300  1
  O  O3  1  0.25325700  0.23607400  0.36564200  1
  O  O4  1  0.74762900  0.76794400  0.63783500  1
  O  O5  1  0.24762900  0.73207100  0.63783600  1
  O  O6  1  0.75325700  0.26394100  0.36564300  1
  O  O7  1  0.75325700  0.73607400  0.36564200  1
  O  O8  1  0.24762900  0.26794400  0.63783500  1
  O  O9  1  0.67199100  0.19073500  0.52305200  1
  O  O10  1  0.32930700  0.80758200  0.48324900  1
  O  O11  1  0.32930700  0.19243300  0.48324800  1
  O  O12  1  0.67199100  0.80928000  0.52305000  1
  O  O13  1  0.17199100  0.69073500  0.52305200  1
  O  O14  1  0.82930700  0.30758200  0.48324900  1
  O  O15  1  0.82930700  0.69243300  0.48324800  1
  O  O16  1  0.17199100  0.30928000  0.52305000  1
  O  O17  1  0.74280300  0.12913300  0.51386800  1
  O  O18  1  0.26064700  0.86804300  0.48440500  1
  O  O19  1  0.26064700  0.13197200  0.48440400  1
  O  O20  1  0.74280400  0.87088300  0.51386600  1
  O  O21  1  0.24280300  0.62913300  0.51386800  1
  O  O22  1  0.76064700  0.36804300  0.48440500  1
  O  O23  1  0.76064700  0.63197200  0.48440400  1
  O  O24  1  0.24280400  0.37088300  0.51386600  1
  O  O25  1  0.67830800  0.29225600  0.63820800  1
  O  O26  1  0.32469400  0.70774500  0.36468800  1
  O  O27  1  0.32469400  0.29227000  0.36468600  1
  O  O28  1  0.67830800  0.70775900  0.63820700  1
  O  O29  1  0.17830800  0.79225600  0.63820800  1
  O  O30  1  0.82469400  0.20774500  0.36468800  1
  O  O31  1  0.82469400  0.79227000  0.36468600  1
  O  O32  1  0.17830800  0.20775900  0.63820700  1
  O  O33  1  0.05773600  0.06937800  0.02488400  1
  O  O34  1  0.94519700  0.93064900  0.97742800  1
  O  O35  1  0.94519700  0.06936600  0.97742800  1
  O  O36  1  0.05773600  0.93063800  0.02488400  1
  O  O37  1  0.55773600  0.56937800  0.02488400  1
  O  O38  1  0.44519700  0.43064900  0.97742800  1
  O  O39  1  0.44519700  0.56936600  0.97742800  1
  O  O40  1  0.55773600  0.43063800  0.02488400  1
  O  O41  1  0.94424800  0.07368200  0.11509800  1
  O  O42  1  0.05869800  0.92631100  0.88723000  1
  O  O43  1  0.05869800  0.07370500  0.88723100  1
  O  O44  1  0.94424800  0.92633300  0.11509800  1
  O  O45  1  0.44424800  0.57368200  0.11509800  1
  O  O46  1  0.55869800  0.42631100  0.88723000  1
  O  O47  1  0.55869800  0.57370500  0.88723100  1
  O  O48  1  0.44424800  0.42633300  0.11509800  1
  O  O49  1  0.61915700  0.50000500  0.46042700  1
  O  O50  1  0.28634100  0.50000700  0.75274300  1
  O  O51  1  0.11915700  0.00000500  0.46042700  1
  O  O52  1  0.78634100  0.00000700  0.75274300  1
