# generated using pymatgen
data_ZnH10C21N4(O2F3)2
_symmetry_space_group_name_H-M   'P 1'
_cell_length_a   24.30622400
_cell_length_b   24.22115400
_cell_length_c   15.93053900
_cell_angle_alpha   90.00000000
_cell_angle_beta   91.27835000
_cell_angle_gamma   90.00000000
_symmetry_Int_Tables_number   1
_chemical_formula_structural   ZnH10C21N4(O2F3)2
_chemical_formula_sum   'Zn4 H40 C84 N16 O16 F24'
_cell_volume   9376.36904248
_cell_formula_units_Z   4
loop_
 _symmetry_equiv_pos_site_id
 _symmetry_equiv_pos_as_xyz
  1  'x, y, z'
loop_
 _atom_site_type_symbol
 _atom_site_label
 _atom_site_symmetry_multiplicity
 _atom_site_fract_x
 _atom_site_fract_y
 _atom_site_fract_z
 _atom_site_occupancy
  Zn  Zn1  1  0.49843000  0.00004600  0.59519300  1
  Zn  Zn2  1  0.50157000  0.00004600  0.40480700  1
  Zn  Zn3  1  0.99843000  0.50004600  0.59519300  1
  Zn  Zn4  1  0.00157000  0.50004600  0.40480700  1
  H  H1  1  0.33049600  0.23050600  0.59217400  1
  H  H2  1  0.66950400  0.76958600  0.40782500  1
  H  H3  1  0.66950400  0.23050600  0.40782500  1
  H  H4  1  0.33049600  0.76958600  0.59217400  1
  H  H5  1  0.83049600  0.73050600  0.59217400  1
  H  H6  1  0.16950400  0.26958600  0.40782500  1
  H  H7  1  0.16950400  0.73050600  0.40782500  1
  H  H8  1  0.83049600  0.26958600  0.59217400  1
  H  H9  1  0.72760800  0.84628900  0.63369400  1
  H  H10  1  0.27239200  0.15380300  0.36630500  1
  H  H11  1  0.27239200  0.84628900  0.36630600  1
  H  H12  1  0.72760800  0.15380300  0.63369500  1
  H  H13  1  0.22760800  0.34628900  0.63369400  1
  H  H14  1  0.77239200  0.65380300  0.36630500  1
  H  H15  1  0.77239200  0.34628900  0.36630600  1
  H  H16  1  0.22760800  0.65380300  0.63369500  1
  H  H17  1  0.65309000  0.91310800  0.62376100  1
  H  H18  1  0.34691000  0.08698400  0.37623800  1
  H  H19  1  0.34691000  0.91310800  0.37623900  1
  H  H20  1  0.65309000  0.08698400  0.62376200  1
  H  H21  1  0.15309000  0.41310800  0.62376100  1
  H  H22  1  0.84691000  0.58698400  0.37623800  1
  H  H23  1  0.84691000  0.41310800  0.37623900  1
  H  H24  1  0.15309000  0.58698400  0.62376200  1
  H  H25  1  0.58039200  0.00004500  0.74151300  1
  H  H26  1  0.41960800  0.00004500  0.25848700  1
  H  H27  1  0.08039200  0.50004500  0.74151300  1
  H  H28  1  0.91960800  0.50004500  0.25848700  1
  H  H29  1  0.57429800  0.00004500  0.89300500  1
  H  H30  1  0.42570200  0.00004500  0.10699400  1
  H  H31  1  0.07429800  0.50004500  0.89300500  1
  H  H32  1  0.92570200  0.50004500  0.10699400  1
  H  H33  1  0.60157300  0.00004700  0.13327700  1
  H  H34  1  0.39842700  0.00004700  0.86672300  1
  H  H35  1  0.10157300  0.50004700  0.13327700  1
  H  H36  1  0.89842700  0.50004700  0.86672300  1
  H  H37  1  0.59194200  0.00004700  0.28606000  1
  H  H38  1  0.40805800  0.00004700  0.71394000  1
  H  H39  1  0.09194200  0.50004700  0.28606000  1
  H  H40  1  0.90805800  0.50004700  0.71394000  1
  C  C1  1  0.57545300  0.07734900  0.50690400  1
  C  C2  1  0.42454700  0.92274300  0.49309600  1
  C  C3  1  0.42454700  0.07734900  0.49309600  1
  C  C4  1  0.57545300  0.92274300  0.50690400  1
  C  C5  1  0.07545300  0.57734900  0.50690400  1
  C  C6  1  0.92454700  0.42274300  0.49309600  1
  C  C7  1  0.92454700  0.57734900  0.49309600  1
  C  C8  1  0.07545300  0.42274300  0.50690400  1
  C  C9  1  0.61825700  0.87976700  0.51002900  1
  C  C10  1  0.38174300  0.12032500  0.48997100  1
  C  C11  1  0.38174300  0.87976700  0.48997100  1
  C  C12  1  0.61825700  0.12032500  0.51002900  1
  C  C13  1  0.11825700  0.37976700  0.51002900  1
  C  C14  1  0.88174300  0.62032500  0.48997100  1
  C  C15  1  0.88174300  0.37976700  0.48997100  1
  C  C16  1  0.11825700  0.62032500  0.51002900  1
  C  C17  1  0.62236900  0.83800200  0.44976300  1
  C  C18  1  0.37763000  0.16209000  0.55023700  1
  C  C19  1  0.37763100  0.83800200  0.55023700  1
  C  C20  1  0.62237000  0.16209000  0.44976300  1
  C  C21  1  0.12236900  0.33800200  0.44976300  1
  C  C22  1  0.87763000  0.66209000  0.55023700  1
  C  C23  1  0.87763100  0.33800200  0.55023700  1
  C  C24  1  0.12237000  0.66209000  0.44976300  1
  C  C25  1  0.66577700  0.80077000  0.45566800  1
  C  C26  1  0.33422300  0.19932200  0.54433100  1
  C  C27  1  0.33422300  0.80077000  0.54433100  1
  C  C28  1  0.66577700  0.19932200  0.45566800  1
  C  C29  1  0.16577700  0.30077000  0.45566800  1
  C  C30  1  0.83422300  0.69932200  0.54433100  1
  C  C31  1  0.83422300  0.30077000  0.54433100  1
  C  C32  1  0.16577700  0.69932200  0.45566800  1
  C  C33  1  0.70397800  0.80388300  0.52155600  1
  C  C34  1  0.29602100  0.19620900  0.47844300  1
  C  C35  1  0.29602200  0.80388300  0.47844400  1
  C  C36  1  0.70397900  0.19620900  0.52155700  1
  C  C37  1  0.20397800  0.30388300  0.52155600  1
  C  C38  1  0.79602100  0.69620900  0.47844300  1
  C  C39  1  0.79602200  0.30388300  0.47844400  1
  C  C40  1  0.20397900  0.69620900  0.52155700  1
  C  C41  1  0.69815900  0.84385200  0.58197900  1
  C  C42  1  0.30184100  0.15624100  0.41802000  1
  C  C43  1  0.30184100  0.84385200  0.41802100  1
  C  C44  1  0.69815900  0.15624100  0.58198000  1
  C  C45  1  0.19815900  0.34385200  0.58197900  1
  C  C46  1  0.80184100  0.65624100  0.41802000  1
  C  C47  1  0.80184100  0.34385200  0.41802100  1
  C  C48  1  0.19815900  0.65624100  0.58198000  1
  C  C49  1  0.65576700  0.88133900  0.57639000  1
  C  C50  1  0.34423300  0.11875400  0.42360900  1
  C  C51  1  0.34423300  0.88133900  0.42360900  1
  C  C52  1  0.65576700  0.11875400  0.57639100  1
  C  C53  1  0.15576700  0.38133900  0.57639000  1
  C  C54  1  0.84423300  0.61875400  0.42360900  1
  C  C55  1  0.84423300  0.38133900  0.42360900  1
  C  C56  1  0.15576700  0.61875400  0.57639100  1
  C  C57  1  0.45966000  0.00004500  0.23032500  1
  C  C58  1  0.54034000  0.00004500  0.76967500  1
  C  C59  1  0.95966000  0.50004500  0.23032500  1
  C  C60  1  0.04034000  0.50004500  0.76967500  1
  C  C61  1  0.46354900  0.00004500  0.14393500  1
  C  C62  1  0.53645100  0.00004500  0.85606400  1
  C  C63  1  0.96354900  0.50004500  0.14393500  1
  C  C64  1  0.03645100  0.50004500  0.85606400  1
  C  C65  1  0.51507000  0.00004600  0.10807700  1
  C  C66  1  0.48493000  0.00004600  0.89192300  1
  C  C67  1  0.01507000  0.50004600  0.10807700  1
  C  C68  1  0.98493000  0.50004600  0.89192300  1
  C  C69  1  0.56107400  0.00004700  0.15995000  1
  C  C70  1  0.43892700  0.00004700  0.84005000  1
  C  C71  1  0.06107400  0.50004700  0.15995000  1
  C  C72  1  0.93892700  0.50004700  0.84005000  1
  C  C73  1  0.55559200  0.00004700  0.24573100  1
  C  C74  1  0.44440800  0.00004700  0.75426800  1
  C  C75  1  0.05559200  0.50004700  0.24573100  1
  C  C76  1  0.94440800  0.50004700  0.75426800  1
  C  C77  1  0.42005500  0.16954600  0.61966900  1
  C  C78  1  0.57994400  0.83054500  0.38033200  1
  C  C79  1  0.57994500  0.16954600  0.38033000  1
  C  C80  1  0.42005600  0.83054500  0.61966800  1
  C  C81  1  0.92005500  0.66954600  0.61966900  1
  C  C82  1  0.07994400  0.33054500  0.38033200  1
  C  C83  1  0.07994500  0.66954600  0.38033000  1
  C  C84  1  0.92005600  0.33054500  0.61966800  1
  N  N1  1  0.74901000  0.76699000  0.52926400  1
  N  N2  1  0.25099000  0.23310200  0.47073500  1
  N  N3  1  0.25099000  0.76699000  0.47073500  1
  N  N4  1  0.74901000  0.23310200  0.52926500  1
  N  N5  1  0.24901000  0.26699000  0.52926400  1
  N  N6  1  0.75099000  0.73310200  0.47073500  1
  N  N7  1  0.75099000  0.26699000  0.47073500  1
  N  N8  1  0.24901000  0.73310200  0.52926500  1
  N  N9  1  0.50537800  0.00004600  0.27959200  1
  N  N10  1  0.49462200  0.00004600  0.72040700  1
  N  N11  1  0.00537800  0.50004600  0.27959200  1
  N  N12  1  0.99462200  0.50004600  0.72040700  1
  N  N13  1  0.52217600  0.00004600  0.02018700  1
  N  N14  1  0.47782400  0.00004600  0.97981300  1
  N  N15  1  0.02217600  0.50004600  0.02018700  1
  N  N16  1  0.97782400  0.50004600  0.97981300  1
  O  O1  1  0.55692300  0.05834800  0.57811100  1
  O  O2  1  0.44307700  0.94174400  0.42188900  1
  O  O3  1  0.44307700  0.05834800  0.42188900  1
  O  O4  1  0.55692300  0.94174400  0.57811000  1
  O  O5  1  0.05692300  0.55834800  0.57811100  1
  O  O6  1  0.94307700  0.44174400  0.42188900  1
  O  O7  1  0.94307700  0.55834800  0.42188900  1
  O  O8  1  0.05692300  0.44174400  0.57811000  1
  O  O9  1  0.55848700  0.05847700  0.43374900  1
  O  O10  1  0.44151300  0.94161500  0.56625100  1
  O  O11  1  0.44151300  0.05847700  0.56625100  1
  O  O12  1  0.55848700  0.94161500  0.43374900  1
  O  O13  1  0.05848700  0.55847700  0.43374900  1
  O  O14  1  0.94151300  0.44161500  0.56625100  1
  O  O15  1  0.94151300  0.55847700  0.56625100  1
  O  O16  1  0.05848700  0.44161500  0.43374900  1
  F  F1  1  0.41316100  0.12968300  0.68065400  1
  F  F2  1  0.41498100  0.22078700  0.65686400  1
  F  F3  1  0.47242000  0.16605800  0.58786300  1
  F  F4  1  0.52758000  0.83403400  0.41213900  1
  F  F5  1  0.58501800  0.77930400  0.34313900  1
  F  F6  1  0.58683800  0.87040800  0.31934600  1
  F  F7  1  0.58683900  0.12968300  0.31934600  1
  F  F8  1  0.58501900  0.22078700  0.34313600  1
  F  F9  1  0.52758000  0.16605800  0.41213700  1
  F  F10  1  0.47242000  0.83403400  0.58786100  1
  F  F11  1  0.41498200  0.77930400  0.65686100  1
  F  F12  1  0.41316200  0.87040800  0.68065300  1
  F  F13  1  0.91316100  0.62968300  0.68065400  1
  F  F14  1  0.91498100  0.72078700  0.65686400  1
  F  F15  1  0.97242000  0.66605800  0.58786300  1
  F  F16  1  0.02758000  0.33403400  0.41213900  1
  F  F17  1  0.08501800  0.27930400  0.34313900  1
  F  F18  1  0.08683800  0.37040800  0.31934600  1
  F  F19  1  0.08683900  0.62968300  0.31934600  1
  F  F20  1  0.08501900  0.72078700  0.34313600  1
  F  F21  1  0.02758000  0.66605800  0.41213700  1
  F  F22  1  0.97242000  0.33403400  0.58786100  1
  F  F23  1  0.91498200  0.27930400  0.65686100  1
  F  F24  1  0.91316200  0.37040800  0.68065300  1
