# generated using pymatgen
data_ZnH7C15(NO2)2
_symmetry_space_group_name_H-M   'P 1'
_cell_length_a   9.16339700
_cell_length_b   8.45179300
_cell_length_c   15.05673300
_cell_angle_alpha   90.00000000
_cell_angle_beta   98.96515600
_cell_angle_gamma   90.00000000
_symmetry_Int_Tables_number   1
_chemical_formula_structural   ZnH7C15(NO2)2
_chemical_formula_sum   'Zn2 H14 C30 N4 O8'
_cell_volume   1151.85491476
_cell_formula_units_Z   2
loop_
 _symmetry_equiv_pos_site_id
 _symmetry_equiv_pos_as_xyz
  1  'x, y, z'
loop_
 _atom_site_type_symbol
 _atom_site_label
 _atom_site_symmetry_multiplicity
 _atom_site_fract_x
 _atom_site_fract_y
 _atom_site_fract_z
 _atom_site_occupancy
  Zn  Zn1  1  0.16255800  0.50000000  0.49904300  1
  Zn  Zn2  1  0.83744200  0.50000000  0.50095700  1
  H  H1  1  0.92476600  0.00000000  0.43263200  1
  H  H2  1  0.07523300  0.00000000  0.56736800  1
  H  H3  1  0.98287400  0.25251500  0.19658300  1
  H  H4  1  0.01712600  0.74748500  0.80341700  1
  H  H5  1  0.01712600  0.25251500  0.80341700  1
  H  H6  1  0.98287400  0.74748500  0.19658300  1
  H  H7  1  0.77594500  0.00000000  0.88615900  1
  H  H8  1  0.22405400  0.00000000  0.11384100  1
  H  H9  1  0.63019600  0.50000000  0.64929200  1
  H  H10  1  0.36980400  0.50000000  0.35070800  1
  H  H11  1  0.41881900  0.27432600  0.57227700  1
  H  H12  1  0.58118100  0.72567400  0.42772300  1
  H  H13  1  0.58118100  0.27432600  0.42772300  1
  H  H14  1  0.41881900  0.72567400  0.57227700  1
  C  C1  1  0.95158200  0.14136300  0.31973200  1
  C  C2  1  0.04841700  0.85863700  0.68026800  1
  C  C3  1  0.04841700  0.14136300  0.68026800  1
  C  C4  1  0.95158200  0.85863700  0.31973200  1
  C  C5  1  0.97069000  0.14187500  0.23069400  1
  C  C6  1  0.02931000  0.85812500  0.76930600  1
  C  C7  1  0.02931000  0.14187500  0.76930600  1
  C  C8  1  0.97069000  0.85812500  0.23069400  1
  C  C9  1  0.97477100  0.00000000  0.18536600  1
  C  C10  1  0.02522900  0.00000000  0.81463400  1
  C  C11  1  0.93647900  0.00000000  0.36248300  1
  C  C12  1  0.06352100  0.00000000  0.63751700  1
  C  C13  1  0.86255600  0.00000000  0.02633500  1
  C  C14  1  0.13744400  0.00000000  0.97366500  1
  C  C15  1  0.87437400  0.00000000  0.93615500  1
  C  C16  1  0.12562500  0.00000000  0.06384500  1
  C  C17  1  0.01186900  0.00000000  0.90984200  1
  C  C18  1  0.98813100  0.00000000  0.09015800  1
  C  C19  1  0.45752100  0.37971700  0.53877300  1
  C  C20  1  0.54247900  0.62028300  0.46122700  1
  C  C21  1  0.54247900  0.37971700  0.46122700  1
  C  C22  1  0.45752100  0.62028300  0.53877300  1
  C  C23  1  0.56855300  0.50000000  0.57979200  1
  C  C24  1  0.43144700  0.50000000  0.42020800  1
  C  C25  1  0.96651400  0.28464800  0.37442400  1
  C  C26  1  0.03348600  0.71535200  0.62557600  1
  C  C27  1  0.03348600  0.28464800  0.62557600  1
  C  C28  1  0.96651400  0.71535200  0.37442400  1
  C  C29  1  0.71948300  0.00000000  0.05382300  1
  C  C30  1  0.28051700  0.00000000  0.94617700  1
  N  N1  1  0.64609100  0.50000000  0.50217400  1
  N  N2  1  0.35390800  0.50000000  0.49782600  1
  N  N3  1  0.60412800  0.00000000  0.07598700  1
  N  N4  1  0.39587200  0.00000000  0.92401300  1
  O  O1  1  0.84863400  0.33908100  0.40373700  1
  O  O2  1  0.15136600  0.66091900  0.59626300  1
  O  O3  1  0.15136600  0.33908100  0.59626300  1
  O  O4  1  0.84863400  0.66091900  0.40373700  1
  O  O5  1  0.10087400  0.33299500  0.40549700  1
  O  O6  1  0.89912600  0.66700500  0.59450300  1
  O  O7  1  0.89912600  0.33299500  0.59450300  1
  O  O8  1  0.10087400  0.66700500  0.40549700  1
