# Generated by REPEAT Assigner based on pymatgen
data_DB0-m2_o15_o29_f0_pcu.sym.53_sqe
_audit_creation_date              2022-05-24
_audit_creation_method            REPEAT_Assigner
_cell_length_a                    10.944420
_cell_length_b                    9.547534
_cell_length_c                    27.509328
_cell_angle_alpha                 90.000000
_cell_angle_beta                  89.990432
_cell_angle_gamma                 90.000000
_cell_volume                      2874.510617
_symmetry_space_group_name_H-M    P1
_symmetry_Int_Tables_number       1
loop_
    _symmetry_equiv_pos_site_id
    _symmetry_equiv_pos_as_xyz
    1  x,y,z
loop_
    _atom_site_type_symbol
    _atom_site_label
    _atom_site_fract_x
    _atom_site_fract_y
    _atom_site_fract_z
    _atom_type_partial_charge
    O   O1   0.317441  0.602122  0.500578  -0.531698
    O   O2   0.678281  0.373374  0.496949  -0.410804
    O   O3   0.672460  0.611546  0.501854  -0.482993
    O   O4   0.323252  0.364018  0.496552  -0.505501
    C   C1   0.261582  0.480268  0.502088  0.758182
    C   C2   0.734249  0.495284  0.496200  0.623341
    O   O5   0.495330  0.611741  0.429077  -0.479194
    O   O6   0.501928  0.364001  0.568878  -0.562413
    O   O7   0.486230  0.603060  0.570285  -0.497861
    O   O8   0.508560  0.372385  0.427653  -0.597607
    C   C3   0.505357  0.493229  0.405574  0.532745
    C   C4   0.492650  0.482416  0.592452  0.529607
    Cu  Cu1  0.494628  0.628045  0.499895  0.714542
    Cu  Cu2  0.501111  0.347537  0.498066  0.779995
    C   C5   0.416710  0.497441  0.176942  0.533245
    C   C6   0.600551  0.465008  0.821524  0.472032
    O   O9   0.312825  0.490188  0.202867  -0.543095
    O   O10  0.702930  0.442810  0.795677  -0.533369
    N   N1   0.524479  0.504884  0.200203  -0.221829
    N   N2   0.494079  0.484409  0.798181  -0.228095
    C   C7   0.629976  0.514932  0.175272  0.585034
    C   C8   0.390172  0.508887  0.822921  0.555241
    C   C9   0.569923  0.611581  0.278575  -0.085978
    C   C10  0.460917  0.601894  0.721091  -0.193159
    C   C11  0.564035  0.609505  0.328705  -0.203744
    C   C12  0.461593  0.601846  0.671010  -0.050381
    C   C13  0.477722  0.380145  0.325856  -0.133641
    C   C14  0.518413  0.360306  0.671197  -0.038486
    C   C15  0.481633  0.383243  0.275821  -0.150883
    C   C16  0.520433  0.361543  0.721359  -0.253715
    C   C17  0.526448  0.499495  0.251991  0.167510
    C   C18  0.491474  0.482289  0.746401  0.281316
    C   C19  0.518757  0.507682  0.100170  0.218754
    C   C20  0.500378  0.495445  0.898097  0.200227
    C   C21  0.412417  0.499043  0.126824  -0.226265
    C   C22  0.605201  0.470939  0.871637  -0.170420
    C   C23  0.301792  0.489986  0.103358  0.003718
    C   C24  0.714547  0.451668  0.895324  -0.027438
    C   C25  0.629092  0.518018  0.124507  -0.319284
    C   C26  0.391375  0.516042  0.873590  -0.295609
    C   C27  0.515207  0.494962  0.352479  0.132291
    C   C28  0.490385  0.481017  0.645749  -0.007029
    H   H1   0.441755  0.288541  0.343815  0.092671
    H   H2   0.540733  0.264577  0.652279  0.081749
    H   H3   0.449221  0.294102  0.255303  0.114138
    H   H4   0.543550  0.267112  0.740998  0.146957
    H   H5   0.217320  0.479940  0.123376  0.079953
    H   H6   0.797536  0.429321  0.875516  0.112111
    C   C29  0.398445  0.513383  0.975182  0.059290
    C   C30  0.621398  0.503540  0.022989  0.032476
    C   C31  0.616514  0.488377  0.972436  0.150371
    C   C32  0.402256  0.504591  0.025904  0.091859
    C   C33  0.505115  0.499207  0.948645  -0.065345
    C   C34  0.514160  0.505537  0.049610  -0.042146
    C   C35  0.290268  0.539019  0.950323  -0.281704
    C   C36  0.731376  0.519830  0.047570  -0.291162
    C   C37  0.286472  0.543460  0.900398  0.336430
    C   C38  0.735708  0.530260  0.097418  0.376315
    O   O11  0.285548  0.520878  0.797739  -0.517121
    O   O12  0.735359  0.515172  0.200295  -0.523339
    C   C39  0.296394  0.493213  0.053586  -0.198977
    C   C40  0.720583  0.460926  0.945025  -0.250365
    H   H7   0.438684  0.697418  0.652049  0.080206
    H   H8   0.596667  0.698809  0.349072  0.131626
    H   H9   0.438771  0.697048  0.740491  0.153404
    H   H10  0.605374  0.703040  0.260191  0.150265
    H   H11  0.206631  0.565675  0.968641  0.116255
    H   H12  0.816822  0.534190  0.028908  0.113874
    H   H13  0.206971  0.480092  0.038016  0.118753
    H   H14  0.808486  0.439686  0.960894  0.138154
    H   H15  0.084375  0.014959  0.467023  0.040856
    H   H16  0.910359  0.958321  0.534926  0.070411
    H   H17  0.890414  0.062494  0.425416  0.075468
    H   H18  0.106616  0.910931  0.575039  0.092071
    C   C41  0.117754  0.703148  0.546991  -0.164710
    C   C42  0.879311  0.271529  0.452315  -0.091413
    C   C43  0.891925  0.750497  0.508257  -0.361153
    C   C44  0.103546  0.224286  0.492576  -0.243175
    C   C45  0.061840  0.830183  0.554029  -0.164819
    C   C46  0.934784  0.143772  0.446309  -0.138731
    C   C47  0.951827  0.856150  0.532255  0.185647
    C   C48  0.043772  0.117822  0.468901  0.075252
    C   C49  0.939983  0.615447  0.506733  0.196324
    C   C50  0.055820  0.359566  0.493155  0.407722
    C   C51  0.062006  0.598581  0.519578  0.170291
    C   C52  0.934266  0.376609  0.479757  0.044544
    C   C53  0.871263  0.499487  0.491385  -0.238824
    C   C54  0.124806  0.475935  0.507702  -0.417459
    H   H19  0.203095  0.685703  0.565656  0.137988
    H   H20  0.794895  0.288776  0.432975  0.095167
    H   H21  0.810373  0.780232  0.489180  0.150109
    H   H22  0.185071  0.195763  0.511939  0.103417
    C   C55  0.653193  0.128073  0.561295  -0.351227
    C   C56  0.340737  0.847773  0.436975  -0.333131
    C   C57  0.354684  0.128546  0.431603  -0.375066
    C   C58  0.637380  0.847939  0.567379  -0.356365
    C   C59  0.710462  0.061067  0.599017  0.316846
    C   C60  0.272570  0.917080  0.402859  0.304880
    C   C61  0.281624  0.058632  0.398780  0.211416
    C   C62  0.699784  0.919423  0.603178  0.199973
    C   C63  0.566986  0.914261  0.531438  0.188057
    C   C64  0.428502  0.061454  0.466357  0.194363
    C   C65  0.422553  0.914371  0.468557  0.165954
    C   C66  0.573778  0.061109  0.528933  0.149049
    N   N3   0.490813  0.839130  0.501347  -0.181216
    N   N4   0.504662  0.136445  0.496525  -0.184545
    H   H23  0.670156  0.236443  0.561034  0.236996
    H   H24  0.323743  0.739198  0.436789  0.250616
    H   H25  0.352336  0.237071  0.427699  0.347108
    H   H26  0.642542  0.739088  0.570504  0.273974
    N   N5   0.233680  0.125497  0.356581  -0.481257
    C   C67  0.167694  0.245034  0.359561  0.710321
    O   O13  0.162436  0.312425  0.396995  -0.587571
    C   C68  0.100130  0.295665  0.315963  -0.442317
    H   H27  0.220500  0.067125  0.325613  0.266786
    H   H28  0.032568  0.215615  0.304515  0.089436
    H   H29  0.165494  0.315298  0.285910  0.141190
    H   H30  0.051638  0.394243  0.325020  0.129258
    N   N6   0.739247  0.852333  0.646563  -0.502957
    C   C69  0.793450  0.725009  0.645142  0.533997
    O   O14  0.836243  0.679852  0.607440  -0.430478
    C   C70  0.808676  0.641881  0.690707  -0.455244
    H   H31  0.700681  0.883992  0.678855  0.286424
    H   H32  0.767937  0.697164  0.722225  0.098303
    H   H33  0.907436  0.625117  0.697615  0.154068
    H   H34  0.763213  0.538846  0.686301  0.168414
    N   N7   0.774886  0.140045  0.634309  -0.481662
    C   C71  0.878871  0.202238  0.618895  0.588489
    O   O15  0.901412  0.211004  0.575618  -0.489227
    C   C72  0.968119  0.259610  0.654762  -0.478225
    H   H35  0.775096  0.106856  0.669841  0.289047
    H   H36  0.934107  0.246417  0.692452  0.106783
    H   H37  0.982091  0.372735  0.647505  0.154502
    H   H38  0.056544  0.204038  0.650805  0.142477
    N   N8   0.186234  0.842136  0.374939  -0.614576
    C   C73  0.233701  0.779120  0.335396  0.725918
    O   O16  0.343870  0.766138  0.331572  -0.517364
    C   C74  0.152617  0.729313  0.295381  -0.539169
    H   H39  0.102310  0.888300  0.369653  0.302043
    H   H40  0.055188  0.745575  0.304889  0.116923
    H   H41  0.168806  0.616080  0.289201  0.213215
    H   H42  0.174238  0.787767  0.261624  0.137424
    N   N9   0.174176  0.577466  0.878078  -0.488114
    C   C75  0.166818  0.712526  0.863830  0.801590
    O   O17  0.259584  0.781872  0.859060  -0.585512
    C   C76  0.045626  0.778279  0.853947  -0.578668
    H   H43  0.096573  0.540392  0.894824  0.274399
    H   H44  0.970857  0.701112  0.858683  0.127030
    H   H45  0.043988  0.817898  0.816056  0.187301
    H   H46  0.031469  0.867079  0.879318  0.132217
    N   N10  0.850367  0.554527  0.119374  -0.538237
    C   C77  0.868680  0.689269  0.132226  0.766095
    O   O18  0.782029  0.768187  0.137279  -0.572211
    C   C78  0.995186  0.742341  0.139995  -0.455547
    H   H47  0.925101  0.508657  0.103179  0.296259
    H   H48  0.039871  0.680883  0.169221  0.165694
    H   H49  0.991483  0.854192  0.150769  0.125754
    H   H50  0.048471  0.732096  0.105879  0.080320
