# Generated by REPEAT Assigner based on pymatgen
data_DB0-m3_o21_o21_f0_pcu.sym.1_sqe
_audit_creation_date              2022-05-24
_audit_creation_method            REPEAT_Assigner
_cell_length_a                    19.996096
_cell_length_b                    19.868742
_cell_length_c                    12.953105
_cell_angle_alpha                 90.000000
_cell_angle_beta                  91.548479
_cell_angle_gamma                 90.000000
_cell_volume                      5144.353961
_symmetry_space_group_name_H-M    P1
_symmetry_Int_Tables_number       1
loop_
    _symmetry_equiv_pos_site_id
    _symmetry_equiv_pos_as_xyz
    1  x,y,z
loop_
    _atom_site_type_symbol
    _atom_site_label
    _atom_site_fract_x
    _atom_site_fract_y
    _atom_site_fract_z
    _atom_type_partial_charge
    O   O1   0.434893  0.070936  0.398744  -0.682557
    O   O2   0.565107  0.929064  0.601256  -0.682600
    O   O3   0.565107  0.070936  0.601256  -0.682601
    O   O4   0.434893  0.929064  0.398744  -0.682555
    O   O5   0.934893  0.570936  0.398744  -0.682555
    O   O6   0.065107  0.429064  0.601256  -0.682601
    O   O7   0.065107  0.570936  0.601256  -0.682600
    O   O8   0.934893  0.429064  0.398744  -0.682556
    O   O9   0.424674  0.070921  0.576092  -0.673126
    O   O10  0.575325  0.929079  0.423908  -0.673231
    O   O11  0.575325  0.070921  0.423908  -0.673233
    O   O12  0.424674  0.929079  0.576092  -0.673124
    O   O13  0.924674  0.570921  0.576092  -0.673125
    O   O14  0.075325  0.429079  0.423908  -0.673234
    O   O15  0.075325  0.570921  0.423908  -0.673233
    O   O16  0.924674  0.429079  0.576092  -0.673126
    C   C1   0.407912  0.093023  0.483516  0.897184
    C   C2   0.592088  0.906977  0.516484  0.897239
    C   C3   0.592088  0.093023  0.516484  0.897239
    C   C4   0.407912  0.906977  0.483516  0.897184
    C   C5   0.907912  0.593023  0.483516  0.897183
    C   C6   0.092088  0.406977  0.516484  0.897240
    C   C7   0.092088  0.593023  0.516484  0.897238
    C   C8   0.907912  0.406977  0.483516  0.897185
    H   H1   0.423614  0.000000  0.002551  0.192296
    H   H2   0.576386  0.000000  0.997448  0.192291
    H   H3   0.923614  0.500000  0.002551  0.192297
    H   H4   0.076386  0.500000  0.997448  0.192291
    Zn  Zn1  0.506770  0.000000  0.383117  1.079522
    Zn  Zn2  0.493230  0.000000  0.616883  1.079404
    Zn  Zn3  0.006770  0.500000  0.383117  1.079523
    Zn  Zn4  0.993230  0.500000  0.616883  1.079405
    C   C9   0.479205  0.000000  0.859060  0.160831
    C   C10  0.520795  0.000000  0.140940  0.160834
    C   C11  0.979205  0.500000  0.859060  0.160831
    C   C12  0.020795  0.500000  0.140940  0.160834
    C   C13  0.642649  0.144096  0.525500  -0.296356
    C   C14  0.357351  0.855904  0.474500  -0.296337
    C   C15  0.357351  0.144096  0.474500  -0.296335
    C   C16  0.642649  0.855904  0.525500  -0.296358
    C   C17  0.142649  0.644096  0.525500  -0.296357
    C   C18  0.857351  0.355904  0.474500  -0.296336
    C   C19  0.857351  0.644096  0.474500  -0.296336
    C   C20  0.142649  0.355904  0.525500  -0.296357
    C   C21  0.735776  0.238163  0.542071  -0.059292
    C   C22  0.264224  0.761837  0.457929  -0.059282
    C   C23  0.264224  0.238163  0.457929  -0.059282
    C   C24  0.735776  0.761837  0.542071  -0.059292
    C   C25  0.235776  0.738163  0.542071  -0.059292
    C   C26  0.764224  0.261837  0.457929  -0.059282
    C   C27  0.764224  0.738163  0.457929  -0.059282
    C   C28  0.235776  0.261837  0.542071  -0.059292
    C   C29  0.314892  0.813017  0.466940  0.024625
    C   C30  0.685108  0.186983  0.533060  0.024633
    C   C31  0.685108  0.813017  0.533060  0.024635
    C   C32  0.314892  0.186983  0.466940  0.024624
    C   C33  0.814892  0.313017  0.466940  0.024625
    C   C34  0.185108  0.686983  0.533060  0.024634
    C   C35  0.185108  0.313017  0.533060  0.024634
    C   C36  0.814892  0.686983  0.466940  0.024624
    H   H5   0.749231  0.242565  0.382508  0.144030
    H   H6   0.250769  0.757435  0.617492  0.144037
    H   H7   0.250769  0.242565  0.617492  0.144037
    H   H8   0.749231  0.757435  0.382508  0.144030
    H   H9   0.249231  0.742565  0.382508  0.144030
    H   H10  0.750769  0.257435  0.617492  0.144037
    H   H11  0.750769  0.742565  0.617492  0.144037
    H   H12  0.249231  0.257435  0.382508  0.144030
    N   N1   0.515643  0.000000  0.229692  -0.106380
    N   N2   0.484356  0.000000  0.770308  -0.106363
    N   N3   0.015643  0.500000  0.229692  -0.106380
    N   N4   0.984356  0.500000  0.770308  -0.106363
    C   C37  0.527197  0.000000  0.030633  -0.035209
    C   C38  0.472803  0.000000  0.969367  -0.035162
    C   C39  0.027197  0.500000  0.030633  -0.035210
    C   C40  0.972803  0.500000  0.969367  -0.035162
