# generated using pymatgen
data_FeH9C26IO8
_symmetry_space_group_name_H-M   'P 1'
_cell_length_a   17.76488800
_cell_length_b   16.00477900
_cell_length_c   13.14645000
_cell_angle_alpha   91.87242100
_cell_angle_beta   81.76864300
_cell_angle_gamma   115.19271200
_symmetry_Int_Tables_number   1
_chemical_formula_structural   FeH9C26IO8
_chemical_formula_sum   'Fe2 H18 C52 I2 O16'
_cell_volume   3345.78827525
_cell_formula_units_Z   2
loop_
 _symmetry_equiv_pos_site_id
 _symmetry_equiv_pos_as_xyz
  1  'x, y, z'
loop_
 _atom_site_type_symbol
 _atom_site_label
 _atom_site_symmetry_multiplicity
 _atom_site_fract_x
 _atom_site_fract_y
 _atom_site_fract_z
 _atom_site_occupancy
  Fe  Fe1  1  0.50756900  0.02050200  0.20652900  1
  Fe  Fe2  1  0.48872800  0.99392100  0.80243600  1
  H  H1  1  0.22353500  0.96636600  0.80909900  1
  H  H2  1  0.97422300  0.99249700  0.26402000  1
  H  H3  1  0.10090900  0.96408000  0.76873800  1
  H  H4  1  0.91245700  0.07199300  0.22348900  1
  H  H5  1  0.99183800  0.96402700  0.73585700  1
  H  H6  1  0.78817400  0.07380500  0.18778400  1
  H  H7  1  0.86454500  0.96408100  0.70539100  1
  H  H8  1  0.73688600  0.97434000  0.76203100  1
  H  H9  1  0.54454100  0.11129400  0.51049200  1
  H  H10  1  0.52330300  0.32185000  0.35162600  1
  H  H11  1  0.54366500  0.34602000  0.67354000  1
  H  H12  1  0.60706600  0.48391500  0.36320000  1
  H  H13  1  0.58211400  0.62088900  0.35374500  1
  H  H14  1  0.41887400  0.53983700  0.64046900  1
  H  H15  1  0.44399500  0.40339600  0.65004100  1
  H  H16  1  0.48137700  0.67951300  0.33234700  1
  H  H17  1  0.47729300  0.91124800  0.50041900  1
  H  H18  1  0.50076900  0.69980600  0.65463300  1
  C  C1  1  0.23928700  0.02457500  0.16877900  1
  C  C2  1  0.09460500  0.99975700  0.22534800  1
  C  C3  1  0.29855000  0.01885400  0.09219700  1
  C  C4  1  0.28249600  0.00650300  0.99137900  1
  C  C5  1  0.16005100  0.00941700  0.14779500  1
  C  C6  1  0.14505300  0.00273500  0.04649900  1
  C  C7  1  0.20479500  0.99783600  0.96908400  1
  C  C8  1  0.18404000  0.98042800  0.87077700  1
  C  C9  1  0.02402900  0.00417600  0.20107000  1
  C  C10  1  0.01352700  0.01143800  0.10009300  1
  C  C11  1  0.07036700  0.00150800  0.02272600  1
  C  C12  1  0.05267800  0.99065400  0.92233800  1
  C  C13  1  0.11001700  0.97729500  0.84762400  1
  C  C14  1  0.89405200  0.04707600  0.14968500  1
  C  C15  1  0.94312800  0.02001400  0.07667900  1
  C  C16  1  0.92311700  0.00555800  0.97803300  1
  C  C17  1  0.97721200  0.99006200  0.90011800  1
  C  C18  1  0.95463800  0.97594700  0.80151500  1
  C  C19  1  0.82092500  0.04801000  0.12904700  1
  C  C20  1  0.79353500  0.02048700  0.03515600  1
  C  C21  1  0.84812500  0.00552500  0.95782700  1
  C  C22  1  0.82742500  0.99000800  0.86001400  1
  C  C23  1  0.71462100  0.01129000  0.01599900  1
  C  C24  1  0.69631100  0.99689300  0.91584800  1
  C  C25  1  0.88070400  0.97592600  0.78242400  1
  C  C26  1  0.75314000  0.98787700  0.83893100  1
  C  C27  1  0.64846800  0.00928100  0.10014600  1
  C  C28  1  0.47923200  0.84946500  0.31146000  1
  C  C29  1  0.38161200  0.03710900  0.11867800  1
  C  C30  1  0.50880400  0.14762200  0.34363400  1
  C  C31  1  0.50543300  0.86884100  0.67117200  1
  C  C32  1  0.61394700  0.97940100  0.88956800  1
  C  C33  1  0.53610400  0.17156200  0.69747200  1
  C  C34  1  0.35112100  0.01293600  0.90927600  1
  C  C35  1  0.53798300  0.21407800  0.42316600  1
  C  C36  1  0.53574300  0.29874100  0.42104100  1
  C  C37  1  0.53959600  0.34808800  0.51041400  1
  C  C38  1  0.54434100  0.31042200  0.60239700  1
  C  C39  1  0.54605100  0.22460400  0.60335500  1
  C  C40  1  0.54540600  0.17919300  0.51259800  1
  C  C41  1  0.56503700  0.49519000  0.42426900  1
  C  C42  1  0.55029900  0.57282800  0.41835400  1
  C  C43  1  0.49830200  0.59046100  0.49610300  1
  C  C44  1  0.46117900  0.52891400  0.57949000  1
  C  C45  1  0.47599700  0.45143500  0.58546200  1
  C  C46  1  0.52826300  0.43396700  0.50800000  1
  C  C47  1  0.48128200  0.71476400  0.40384700  1
  C  C48  1  0.47668200  0.79930000  0.40485400  1
  C  C49  1  0.47768200  0.84395000  0.49653900  1
  C  C50  1  0.48488700  0.80752500  0.58532500  1
  C  C51  1  0.48942900  0.72405900  0.58517600  1
  C  C52  1  0.48724600  0.67659500  0.49474200  1
  I  I1  1  0.28775200  0.09759800  0.29905800  1
  I  I2  1  0.07915100  0.94726400  0.37683700  1
  O  O1  1  0.58836400  0.03152800  0.08168000  1
  O  O2  1  0.48198700  0.81484500  0.21985800  1
  O  O3  1  0.64471900  0.97729500  0.19217700  1
  O  O4  1  0.48706500  0.93464600  0.32314600  1
  O  O5  1  0.39289600  0.97164500  0.16341600  1
  O  O6  1  0.44433800  0.11904600  0.09904500  1
  O  O7  1  0.55894000  0.14866500  0.25975000  1
  O  O8  1  0.44175100  0.07094900  0.37100800  1
  O  O9  1  0.44569900  0.86751800  0.74348400  1
  O  O10  1  0.57649300  0.94359300  0.65741600  1
  O  O11  1  0.60041400  0.04686000  0.85394000  1
  O  O12  1  0.55560700  0.89428100  0.89329200  1
  O  O13  1  0.36614500  0.06295700  0.82540700  1
  O  O14  1  0.51046800  0.08190800  0.68762700  1
  O  O15  1  0.40171300  0.97491000  0.92290500  1
  O  O16  1  0.54524300  0.20947100  0.78757900  1
