# Generated by REPEAT Assigner based on pymatgen
data_DB0-m3_o13_sbr
_audit_creation_date              2022-05-24
_audit_creation_method            REPEAT_Assigner
_cell_length_a                    31.851915
_cell_length_b                    30.077051
_cell_length_c                    28.905773
_cell_angle_alpha                 89.970541
_cell_angle_beta                  89.940657
_cell_angle_gamma                 61.775835
_cell_volume                      24399.580216
_symmetry_space_group_name_H-M    P1
_symmetry_Int_Tables_number       1
loop_
    _symmetry_equiv_pos_site_id
    _symmetry_equiv_pos_as_xyz
    1  x,y,z
loop_
    _atom_site_type_symbol
    _atom_site_label
    _atom_site_fract_x
    _atom_site_fract_y
    _atom_site_fract_z
    _atom_type_partial_charge
    O   O1    0.457668  0.483432  0.454440  -0.674036
    O   O2    0.545060  0.433567  0.545338  -0.688635
    O   O3    0.464380  0.469582  0.550345  -0.763951
    O   O4    0.538307  0.442769  0.447871  -0.736953
    C   C1    0.496101  0.449636  0.434090  0.693577
    C   C2    0.507007  0.433857  0.562414  0.817541
    O   O5    0.539793  0.535542  0.458124  -0.692435
    O   O6    0.460312  0.563452  0.559524  -0.659216
    O   O7    0.540863  0.529429  0.556768  -0.749363
    O   O8    0.458934  0.577648  0.461144  -0.779641
    Zn  Zn1   0.448036  0.530067  0.506362  1.330132
    Zn  Zn2   0.553295  0.479677  0.501533  1.333464
    C   C3    0.499550  0.573024  0.444813  0.827836
    C   C4    0.499629  0.560297  0.576204  0.683919
    O   O9    0.293433  0.279194  0.275790  -0.678776
    O   O10   0.370286  0.335543  0.238825  -0.728941
    O   O11   0.313565  0.360127  0.294690  -0.718015
    O   O12   0.351796  0.250939  0.221193  -0.709115
    C   C5    0.329985  0.241910  0.255649  0.678506
    C   C6    0.355944  0.351881  0.281089  0.705273
    O   O13   0.282735  0.308598  0.155876  -0.728827
    O   O14   0.243133  0.419067  0.228324  -0.689096
    O   O15   0.298193  0.390770  0.170535  -0.726963
    O   O16   0.226248  0.336672  0.212384  -0.712194
    Zn  Zn3   0.260937  0.353515  0.261784  1.314922
    Zn  Zn4   0.335155  0.317232  0.188713  1.346798
    C   C7    0.240164  0.318476  0.170712  0.740271
    C   C8    0.261288  0.427657  0.190763  0.725009
    O   O17   0.737058  0.691171  0.178580  -0.724931
    O   O18   0.754418  0.575590  0.234812  -0.687678
    O   O19   0.708582  0.617483  0.173026  -0.713288
    O   O20   0.786758  0.649008  0.238091  -0.730093
    C   C9    0.778938  0.672986  0.198428  0.728386
    C   C10   0.739130  0.575137  0.192833  0.719538
    O   O21   0.716261  0.704366  0.300236  -0.672138
    O   O22   0.632975  0.671923  0.237029  -0.751668
    O   O23   0.680649  0.634485  0.298998  -0.731048
    O   O24   0.665246  0.747983  0.242217  -0.694377
    Zn  Zn5   0.677589  0.688814  0.199134  1.342469
    Zn  Zn6   0.741714  0.633893  0.277106  1.326204
    C   C11   0.685385  0.747323  0.282116  0.667451
    C   C12   0.639416  0.650853  0.278006  0.740475
    O   O25   0.301914  0.915868  0.722125  -0.688425
    O   O26   0.376710  0.796858  0.783424  -0.734626
    O   O27   0.322800  0.811272  0.726345  -0.728258
    O   O28   0.354227  0.902440  0.780679  -0.715554
    C   C13   0.335595  0.923250  0.740814  0.651970
    C   C14   0.365016  0.783177  0.744354  0.768990
    O   O29   0.281108  0.925975  0.844810  -0.721897
    O   O30   0.248437  0.839757  0.791121  -0.695442
    O   O31   0.300971  0.825429  0.849677  -0.718695
    O   O32   0.230211  0.940468  0.784616  -0.708265
    Zn  Zn7   0.268546  0.878096  0.746652  1.318840
    Zn  Zn8   0.337041  0.859792  0.823039  1.344947
    C   C15   0.240131  0.954297  0.824333  0.762904
    C   C16   0.265118  0.821077  0.832129  0.704552
    O   O33   0.733197  0.066376  0.823378  -0.712922
    O   O34   0.757475  0.164197  0.778903  -0.696974
    O   O35   0.706870  0.167889  0.836060  -0.709146
    O   O36   0.785582  0.060130  0.766930  -0.710372
    C   C17   0.775535  0.042258  0.804366  0.735061
    C   C18   0.740018  0.178317  0.820601  0.699227
    O   O37   0.716792  0.083695  0.700692  -0.681093
    O   O38   0.633867  0.195345  0.767935  -0.721956
    O   O39   0.685389  0.187419  0.710075  -0.717491
    O   O40   0.663266  0.088831  0.755248  -0.715784
    Zn  Zn9   0.675619  0.130996  0.803811  1.332587
    Zn  Zn10  0.744097  0.123937  0.730822  1.314389
    C   C19   0.684114  0.072246  0.714965  0.685954
    C   C20   0.643201  0.212088  0.729397  0.730722
    O   O41   0.928079  0.352174  0.997236  -0.697757
    O   O42   0.017743  0.253779  0.067664  -0.712103
    O   O43   0.029776  0.296754  0.008834  -0.719442
    O   O44   0.918511  0.306473  0.055048  -0.689279
    C   C21   0.905832  0.349974  0.034764  0.695949
    C   C22   0.039429  0.278046  0.050848  0.715987
    O   O45   0.923535  0.234955  0.989988  -0.715455
    O   O46   0.033609  0.225919  0.944153  -0.694688
    O   O47   0.025385  0.180862  0.003438  -0.707138
    O   O48   0.934198  0.279897  0.932136  -0.713043
    Zn  Zn11  0.982758  0.295989  0.961884  1.320374
    Zn  Zn12  0.969714  0.236791  0.037612  1.320860
    C   C23   0.913228  0.254675  0.948338  0.697978
    C   C24   0.047062  0.182738  0.965413  0.717125
    O   O49   0.071595  0.764626  0.988012  -0.720858
    O   O50   0.968402  0.768050  0.932898  -0.703708
    O   O51   0.969327  0.814743  0.994448  -0.707152
    O   O52   0.067320  0.717754  0.928238  -0.711614
    C   C25   0.085287  0.744796  0.946650  0.709136
    C   C26   0.951846  0.811608  0.954223  0.729607
    O   O53   0.072722  0.645344  0.992162  -0.707476
    O   O54   0.974957  0.741361  0.058088  -0.710655
    O   O55   0.969957  0.696805  0.996686  -0.726958
    O   O56   0.074766  0.693194  0.052148  -0.690245
    Zn  Zn13  0.023083  0.761122  0.032143  1.321191
    Zn  Zn14  0.019130  0.699186  0.953792  1.329739
    C   C27   0.091088  0.649307  0.031656  0.703727
    C   C28   0.956536  0.715221  0.038427  0.712465
    O   O57   0.534786  0.946659  0.448211  -0.664108
    O   O58   0.529077  0.028887  0.536304  -0.665561
    O   O59   0.530068  0.953317  0.546524  -0.760075
    O   O60   0.526075  0.025628  0.437828  -0.760133
    C   C29   0.546710  0.977444  0.427059  0.782350
    C   C30   0.545400  0.985544  0.557596  0.757563
    O   O61   0.428174  0.069802  0.443805  -0.658733
    O   O62   0.432278  0.995350  0.539525  -0.667540
    O   O63   0.430070  0.072094  0.541922  -0.767128
    O   O64   0.436034  0.990568  0.441408  -0.768107
    Zn  Zn15  0.484107  0.959289  0.494346  1.325552
    Zn  Zn16  0.477579  0.061247  0.489620  1.321414
    C   C31   0.415853  0.037508  0.426675  0.771858
    C   C32   0.414719  0.040883  0.556436  0.769378
    C   C33   0.386194  0.360629  0.314591  0.109867
    C   C34   0.488702  0.417061  0.400894  0.140732
    C   C35   0.485476  0.391187  0.322973  -0.234037
    C   C36   0.505117  0.409855  0.355786  -0.211405
    C   C37   0.454630  0.403213  0.412948  -0.333905
    C   C38   0.434466  0.385828  0.380407  0.243204
    C   C39   0.448850  0.380618  0.334906  0.202550
    C   C40   0.425037  0.367235  0.301737  -0.307411
    C   C41   0.373570  0.364565  0.360750  -0.166917
    C   C42   0.397775  0.376611  0.393387  -0.244511
    H   H1    0.435226  0.364513  0.265755  0.166047
    H   H2    0.344150  0.358822  0.372039  0.143641
    H   H3    0.497105  0.387606  0.287392  0.142149
    H   H4    0.386535  0.380632  0.429121  0.135978
    H   H5    0.530696  0.421954  0.345277  0.153154
    H   H6    0.441151  0.409280  0.447985  0.169148
    C   C43   0.601166  0.644265  0.300063  0.126517
    C   C44   0.503508  0.611084  0.416381  0.030262
    C   C45   0.546988  0.657902  0.414293  -0.226755
    C   C46   0.520519  0.640131  0.438247  -0.164901
    C   C47   0.510280  0.603284  0.369155  -0.321110
    C   C48   0.536912  0.621140  0.344993  0.222242
    C   C49   0.557124  0.646367  0.368123  0.255923
    C   C50   0.589849  0.657055  0.345973  -0.366088
    C   C51   0.577993  0.622704  0.275922  -0.168221
    C   C52   0.546590  0.610380  0.298503  -0.250593
    H   H7    0.607496  0.674485  0.364856  0.176550
    H   H8    0.586601  0.612505  0.239988  0.142515
    H   H9    0.562779  0.677521  0.432773  0.129414
    H   H10   0.530854  0.590774  0.279913  0.137616
    H   H11   0.517784  0.644141  0.475453  0.141706
    H   H12   0.499421  0.578351  0.352197  0.158951
    C   C53   0.493804  0.592813  0.616272  0.134672
    C   C54   0.394314  0.732854  0.724451  0.125091
    C   C55   0.396002  0.656889  0.697768  -0.213606
    C   C56   0.374085  0.701341  0.722060  -0.195294
    C   C57   0.437829  0.718835  0.702886  -0.392644
    C   C58   0.459142  0.674631  0.676793  0.270265
    C   C59   0.437603  0.644363  0.674012  0.229662
    C   C60   0.455358  0.603448  0.644728  -0.362187
    C   C61   0.517279  0.621261  0.620524  -0.198941
    C   C62   0.500188  0.661795  0.651131  -0.258328
    H   H13   0.436473  0.581737  0.641631  0.175607
    H   H14   0.546622  0.614493  0.597721  0.157764
    H   H15   0.378871  0.633375  0.695303  0.134370
    H   H16   0.517386  0.685300  0.652660  0.145167
    H   H17   0.340012  0.712282  0.738333  0.144164
    H   H18   0.453212  0.744067  0.703619  0.174395
    C   C63   0.606303  0.257272  0.706617  0.121461
    C   C64   0.515058  0.389149  0.588949  0.033141
    C   C65   0.563830  0.299414  0.589379  -0.231389
    C   C66   0.537524  0.343757  0.565734  -0.158979
    C   C67   0.516702  0.389401  0.636818  -0.308232
    C   C68   0.543396  0.344648  0.660715  0.205905
    C   C69   0.568479  0.300124  0.636665  0.250288
    C   C70   0.600368  0.256886  0.659405  -0.349833
    C   C71   0.578635  0.300794  0.731304  -0.201339
    C   C72   0.547851  0.344602  0.708317  -0.218933
    H   H19   0.621412  0.222674  0.640057  0.172000
    H   H20   0.582924  0.301497  0.768341  0.142399
    H   H21   0.583433  0.264688  0.570295  0.137268
    H   H22   0.528282  0.379139  0.727676  0.139934
    H   H23   0.538175  0.343478  0.528335  0.128590
    H   H24   0.501198  0.424965  0.655120  0.144981
    C   C73   0.074201  0.284432  0.079303  0.102213
    C   C74   0.207496  0.309774  0.141101  0.075642
    C   C75   0.178966  0.303430  0.066161  -0.255341
    C   C76   0.211787  0.308850  0.093522  -0.162756
    C   C77   0.171108  0.303713  0.161051  -0.294675
    C   C78   0.139217  0.296781  0.133729  0.227212
    C   C79   0.142498  0.297578  0.086232  0.222558
    C   C80   0.109441  0.292354  0.058977  -0.298834
    C   C81   0.072055  0.282105  0.126887  -0.169520
    C   C82   0.104026  0.289010  0.154003  -0.260129
    H   H25   0.111900  0.293330  0.021735  0.158214
    H   H26   0.044670  0.276089  0.143327  0.142756
    H   H27   0.182028  0.303763  0.028936  0.145735
    H   H28   0.101466  0.288025  0.191240  0.149820
    H   H29   0.239893  0.313846  0.077384  0.143954
    H   H30   0.167837  0.303594  0.198255  0.155320
    C   C83   0.129072  0.604738  0.053839  0.093094
    C   C84   0.234775  0.475934  0.167126  0.082131
    C   C85   0.176631  0.562954  0.169875  -0.219428
    C   C86   0.207417  0.519083  0.192267  -0.182556
    C   C87   0.231200  0.476836  0.119480  -0.292061
    C   C88   0.198438  0.519992  0.097318  0.197758
    C   C89   0.171294  0.563099  0.122504  0.231996
    C   C90   0.137447  0.605749  0.100623  -0.315261
    C   C91   0.156044  0.561395  0.028709  -0.165123
    C   C92   0.191182  0.519380  0.050304  -0.228325
    H   H31   0.116019  0.639169  0.120802  0.156104
    H   H32   0.150120  0.560105  0.992042  0.135626
    H   H33   0.155069  0.596494  0.189879  0.141007
    H   H34   0.212049  0.485548  0.030404  0.138078
    H   H35   0.209430  0.518523  0.229603  0.133900
    H   H36   0.251121  0.442622  0.099788  0.167084
    C   C93   0.385092  0.054646  0.386468  0.080805
    C   C94   0.347016  0.190607  0.273152  0.096360
    C   C95   0.409754  0.106341  0.282482  -0.277633
    C   C96   0.391168  0.152375  0.260383  -0.149928
    C   C97   0.319937  0.181093  0.305112  -0.299394
    C   C98   0.338959  0.135424  0.327814  0.181799
    C   C99   0.384458  0.098713  0.317585  0.273697
    C   C100  0.406712  0.057201  0.345946  -0.352741
    C   C101  0.337907  0.088741  0.394003  -0.221931
    C   C102  0.314411  0.128520  0.364014  -0.174285
    H   H37   0.444291  0.032102  0.341359  0.179892
    H   H38   0.321348  0.088460  0.426584  0.140401
    H   H39   0.445556  0.077659  0.274395  0.144021
    H   H40   0.278797  0.157397  0.372432  0.133448
    H   H41   0.412647  0.158956  0.235117  0.142094
    H   H42   0.285092  0.210484  0.315027  0.153444
    C   C103  0.868261  0.396208  0.055482  0.087934
    C   C104  0.761885  0.528041  0.166574  0.077640
    C   C105  0.808815  0.438230  0.167109  -0.221978
    C   C106  0.780364  0.482664  0.189898  -0.174853
    C   C107  0.771564  0.528656  0.120020  -0.291672
    C   C108  0.802025  0.484264  0.097756  0.201344
    C   C109  0.820720  0.439118  0.121380  0.220511
    C   C110  0.852999  0.395099  0.100032  -0.294671
    C   C111  0.849240  0.441425  0.031701  -0.170655
    C   C112  0.815762  0.485187  0.052601  -0.225822
    H   H43   0.867958  0.360203  0.119339  0.150252
    H   H44   0.860544  0.443072  0.996771  0.138128
    H   H45   0.823624  0.403015  0.185943  0.142181
    H   H46   0.801558  0.520444  0.033881  0.138776
    H   H47   0.773459  0.481746  0.226409  0.132755
    H   H48   0.758589  0.564202  0.101970  0.160248
    C   C113  0.920159  0.707244  0.062384  0.116407
    C   C114  0.816679  0.679691  0.175791  0.104396
    C   C115  0.886322  0.690531  0.179590  -0.236662
    C   C116  0.852390  0.681615  0.201341  -0.173212
    C   C117  0.816076  0.685020  0.128330  -0.309215
    C   C118  0.851015  0.692008  0.106469  0.213030
    C   C119  0.885625  0.695873  0.132088  0.218840
    C   C120  0.919591  0.704684  0.110119  -0.319313
    C   C121  0.886393  0.701561  0.036884  -0.164443
    C   C122  0.851423  0.694888  0.058893  -0.244379
    H   H49   0.946520  0.708091  0.130221  0.162535
    H   H50   0.886331  0.703626  0.999556  0.139950
    H   H51   0.913555  0.693055  0.199955  0.142220
    H   H52   0.824611  0.691473  0.038595  0.141463
    H   H53   0.853164  0.677727  0.238546  0.140802
    H   H54   0.788775  0.682619  0.107984  0.168331
    C   C123  0.672868  0.793438  0.308570  0.105797
    C   C124  0.580308  0.955976  0.389147  0.038066
    C   C125  0.584753  0.927260  0.311257  -0.243194
    C   C126  0.563320  0.964482  0.344347  -0.147848
    C   C127  0.621699  0.912905  0.399208  -0.326643
    C   C128  0.642348  0.875346  0.366771  0.250690
    C   C129  0.622619  0.881331  0.323331  0.235736
    C   C130  0.638169  0.840293  0.293807  -0.330291
    C   C131  0.694843  0.789064  0.350812  -0.146971
    C   C132  0.679670  0.829897  0.379711  -0.266240
    H   H55   0.620989  0.844277  0.260716  0.167830
    H   H56   0.722690  0.753264  0.362961  0.131384
    H   H57   0.568860  0.932510  0.277331  0.139395
    H   H58   0.695331  0.825195  0.413698  0.148354
    H   H59   0.529916  0.997338  0.336484  0.132079
    H   H60   0.633802  0.905432  0.434671  0.151685
    C   C133  0.204901  0.001705  0.845054  0.087177
    C   C134  0.086447  0.136662  0.946626  0.092178
    C   C135  0.150548  0.053041  0.957255  -0.237119
    C   C136  0.112971  0.096031  0.975105  -0.171480
    C   C137  0.097195  0.133605  0.900090  -0.323243
    C   C138  0.133505  0.089847  0.881959  0.222735
    C   C139  0.160771  0.049746  0.910572  0.238508
    C   C140  0.197386  0.006083  0.892283  -0.337578
    C   C141  0.176762  0.041542  0.816515  -0.204844
    C   C142  0.141887  0.085858  0.834982  -0.205522
    H   H61   0.218520  0.974475  0.914605  0.168185
    H   H62   0.182304  0.038473  0.779509  0.145167
    H   H63   0.171407  0.021683  0.979931  0.142420
    H   H64   0.120397  0.116950  0.812291  0.135605
    H   H65   0.105165  0.097946  0.011664  0.136960
    H   H66   0.076115  0.164838  0.877387  0.159387
    C   C143  0.239674  0.801161  0.860352  0.070409
    C   C144  0.118896  0.754432  0.919489  0.107884
    C   C145  0.148493  0.761733  0.845399  -0.255793
    C   C146  0.118627  0.750819  0.871864  -0.169800
    C   C147  0.150568  0.767251  0.940601  -0.306102
    C   C148  0.181509  0.776792  0.913971  0.233780
    C   C149  0.179693  0.775081  0.866383  0.215421
    C   C150  0.208304  0.787747  0.839644  -0.286681
    C   C151  0.243178  0.800485  0.908025  -0.141742
    C   C152  0.213878  0.788715  0.934753  -0.268849
    H   H67   0.205443  0.787887  0.802392  0.158098
    H   H68   0.267112  0.811493  0.924873  0.142677
    H   H69   0.147033  0.760100  0.808119  0.146344
    H   H70   0.215789  0.789887  0.972029  0.148706
    H   H71   0.093985  0.741028  0.854734  0.146022
    H   H72   0.151497  0.769387  0.977878  0.160875
    C   C153  0.351456  0.955741  0.717367  0.137187
    C   C154  0.383402  0.051380  0.595933  0.076089
    C   C155  0.316359  0.041157  0.618498  -0.200742
    C   C156  0.337938  0.058819  0.587600  -0.202192
    C   C157  0.405260  0.030517  0.637354  -0.326427
    C   C158  0.384898  0.010382  0.667099  0.231994
    C   C159  0.341222  0.014026  0.656679  0.223814
    C   C160  0.324327  0.987013  0.682001  -0.332108
    C   C161  0.393707  0.954826  0.729746  -0.142059
    C   C162  0.410415  0.982116  0.704558  -0.286718
    H   H73   0.290802  0.988706  0.672515  0.165732
    H   H74   0.415095  0.931024  0.757675  0.141120
    H   H75   0.282222  0.043816  0.609940  0.136815
    H   H76   0.444768  0.979063  0.712835  0.146619
    H   H77   0.321597  0.072744  0.554280  0.137111
    H   H78   0.441861  0.022117  0.642567  0.176953
    C   C163  0.762636  0.199300  0.851481  0.070293
    C   C164  0.879647  0.247166  0.918954  0.111580
    C   C165  0.850535  0.244425  0.843357  -0.255226
    C   C166  0.879911  0.254158  0.871737  -0.169911
    C   C167  0.848283  0.232301  0.937735  -0.299671
    C   C168  0.818140  0.223502  0.909220  0.229568
    C   C169  0.820059  0.228526  0.861992  0.213187
    C   C170  0.792610  0.216218  0.833207  -0.277418
    C   C171  0.758904  0.196742  0.898936  -0.133869
    C   C172  0.786765  0.208606  0.927692  -0.274632
    H   H79   0.795788  0.218562  0.796176  0.152968
    H   H80   0.736128  0.182994  0.913914  0.135619
    H   H81   0.852084  0.248623  0.806353  0.147262
    H   H82   0.784824  0.204769  0.964703  0.150642
    H   H83   0.904169  0.265674  0.856336  0.145520
    H   H84   0.847321  0.227361  0.974682  0.158215
    C   C173  0.811580  0.995457  0.825286  0.103346
    C   C174  0.914538  0.857155  0.932738  0.091736
    C   C175  0.846742  0.938682  0.939868  -0.226617
    C   C176  0.881813  0.895572  0.960023  -0.174722
    C   C177  0.912854  0.862639  0.885235  -0.333697
    C   C178  0.879108  0.906862  0.865213  0.228818
    C   C179  0.845486  0.944478  0.892465  0.229958
    C   C180  0.811045  0.988176  0.872397  -0.333991
    C   C181  0.846262  0.958500  0.798234  -0.196772
    C   C182  0.879390  0.913896  0.818049  -0.216114
    H   H85   0.784578  0.017414  0.893880  0.168136
    H   H86   0.846935  0.963696  0.761293  0.140492
    H   H87   0.820789  0.968228  0.961485  0.140250
    H   H88   0.905914  0.884797  0.796492  0.138423
    H   H89   0.882843  0.891664  0.997234  0.135738
    H   H90   0.939157  0.833154  0.863827  0.164516
    C   C183  0.578660  0.976873  0.595163  0.065650
    C   C184  0.670071  0.043193  0.683830  0.097654
    C   C185  0.673107  0.010947  0.607695  -0.241606
    C   C186  0.689220  0.032893  0.639742  -0.160576
    C   C187  0.636936  0.027922  0.696556  -0.325778
    C   C188  0.620746  0.005768  0.664048  0.250222
    C   C189  0.637892  0.998929  0.619400  0.228283
    C   C190  0.617102  0.984242  0.585280  -0.321756
    C   C191  0.563827  0.979486  0.640430  -0.151320
    C   C192  0.585140  0.993600  0.674984  -0.273927
    H   H91   0.627428  0.984048  0.549614  0.154456
    H   H92   0.532413  0.975824  0.648217  0.140179
    H   H93   0.686687  0.005452  0.572720  0.139539
    H   H94   0.571232  0.998930  0.709823  0.147784
    H   H95   0.715510  0.043796  0.628883  0.137421
    H   H96   0.622015  0.035368  0.731032  0.173570
