# generated using pymatgen
data_ZnH26C25N3O7
_symmetry_space_group_name_H-M   'P 1'
_cell_length_a   14.52968000
_cell_length_b   15.95845700
_cell_length_c   17.15513000
_cell_angle_alpha   89.11955100
_cell_angle_beta   89.99593700
_cell_angle_gamma   92.52944800
_symmetry_Int_Tables_number   1
_chemical_formula_structural   ZnH26C25N3O7
_chemical_formula_sum   'Zn2 H52 C50 N6 O14'
_cell_volume   3973.43587114
_cell_formula_units_Z   2
loop_
 _symmetry_equiv_pos_site_id
 _symmetry_equiv_pos_as_xyz
  1  'x, y, z'
loop_
 _atom_site_type_symbol
 _atom_site_label
 _atom_site_symmetry_multiplicity
 _atom_site_fract_x
 _atom_site_fract_y
 _atom_site_fract_z
 _atom_site_occupancy
  Zn  Zn1  1  0.47260900  0.42837100  0.51506000  1
  Zn  Zn2  1  0.47832900  0.61913300  0.51903100  1
  H  H1  1  0.47633400  0.41136600  0.12014600  1
  H  H2  1  0.50586200  0.63171200  0.91470300  1
  H  H3  1  0.43550600  0.36933200  0.89944500  1
  H  H4  1  0.46962700  0.67859900  0.13313500  1
  H  H5  1  0.43973900  0.38077700  0.75831600  1
  H  H6  1  0.46993800  0.66825900  0.27413100  1
  H  H7  1  0.56362800  0.13388800  0.58929200  1
  H  H8  1  0.35453800  0.91053100  0.48592900  1
  H  H9  1  0.61589900  0.74717000  0.56647700  1
  H  H10  1  0.35489400  0.30437500  0.43812400  1
  H  H11  1  0.59801200  0.36399300  0.33212000  1
  H  H12  1  0.61777500  0.41961900  0.24101500  1
  H  H13  1  0.55469200  0.23432000  0.26222200  1
  H  H14  1  0.56977600  0.28881500  0.16952400  1
  H  H15  1  0.73454200  0.32019400  0.20089600  1
  H  H16  1  0.70678800  0.20862700  0.20448000  1
  H  H17  1  0.71934800  0.26630100  0.29406000  1
  H  H18  1  0.64248400  0.67198900  0.70368900  1
  H  H19  1  0.64536800  0.59667300  0.78290100  1
  H  H20  1  0.63412400  0.78717400  0.80123700  1
  H  H21  1  0.64369600  0.71064200  0.87895900  1
  H  H22  1  0.79349900  0.66892900  0.82639000  1
  H  H23  1  0.79525300  0.77952100  0.84798000  1
  H  H24  1  0.78528500  0.74563800  0.74813100  1
  H  H25  1  0.71572700  0.34241400  0.54610300  1
  H  H26  1  0.67016000  0.24679500  0.50506900  1
  H  H27  1  0.75541800  0.26976600  0.66830000  1
  H  H28  1  0.71204300  0.17121300  0.62958300  1
  H  H29  1  0.82445600  0.18599600  0.52035100  1
  H  H30  1  0.88075400  0.18717100  0.61434100  1
  H  H31  1  0.86895500  0.28420800  0.56016200  1
  H  H32  1  0.32956300  0.68234100  0.37203200  1
  H  H33  1  0.40959700  0.77228100  0.37296300  1
  H  H34  1  0.19820200  0.77725000  0.36988400  1
  H  H35  1  0.27861400  0.86706000  0.36632500  1
  H  H36  1  0.34530300  0.81467800  0.24360500  1
  H  H37  1  0.22333100  0.83082700  0.23435800  1
  H  H38  1  0.26345900  0.72575900  0.24657800  1
  H  H39  1  0.69406800  0.85129500  0.67481200  1
  H  H40  1  0.57724200  0.88624300  0.67918700  1
  H  H41  1  0.75035500  0.00288900  0.66473200  1
  H  H42  1  0.63271000  0.03282500  0.67768900  1
  H  H43  1  0.62598200  0.95486700  0.80498900  1
  H  H44  1  0.71596200  0.03688400  0.80276300  1
  H  H45  1  0.74514200  0.92869800  0.79242300  1
  H  H46  1  0.35651600  0.06652500  0.33548900  1
  H  H47  1  0.42760600  0.16144100  0.34493100  1
  H  H48  1  0.22372200  0.15299600  0.29674100  1
  H  H49  1  0.29791100  0.24671500  0.30301000  1
  H  H50  1  0.40084400  0.19123300  0.20214700  1
  H  H51  1  0.28416400  0.19772300  0.16687400  1
  H  H52  1  0.32683200  0.09721000  0.19597100  1
  C  C1  1  0.47780900  0.51762000  0.66984300  1
  C  C2  1  0.47382300  0.52967500  0.36418100  1
  C  C3  1  0.65543900  0.52765600  0.51511400  1
  C  C4  1  0.29547700  0.51981700  0.51904000  1
  C  C5  1  0.75419200  0.52820900  0.51526900  1
  C  C6  1  0.19672400  0.51925500  0.51891400  1
  C  C7  1  0.83704500  0.52706900  0.51581800  1
  C  C8  1  0.11385700  0.52025000  0.51841500  1
  C  C9  1  0.93405400  0.52469900  0.51672700  1
  C  C10  1  0.01683200  0.52247800  0.51755000  1
  C  C11  1  0.47705200  0.51268100  0.75566600  1
  C  C12  1  0.47418000  0.53375200  0.27824500  1
  C  C13  1  0.49761500  0.58221100  0.80145300  1
  C  C14  1  0.47779400  0.46215700  0.23304900  1
  C  C15  1  0.49119400  0.57558800  0.88173100  1
  C  C16  1  0.47456800  0.46876600  0.15261900  1
  C  C17  1  0.46910900  0.49881200  0.91745900  1
  C  C18  1  0.47205800  0.54681400  0.11624900  1
  C  C19  1  0.45232100  0.42949500  0.87201800  1
  C  C20  1  0.47114300  0.61751700  0.16110100  1
  C  C21  1  0.45536800  0.43629800  0.79193000  1
  C  C22  1  0.47150900  0.61124200  0.24121200  1
  C  C23  1  0.40937800  0.79037600  0.49792600  1
  C  C24  1  0.52961800  0.25590000  0.55248800  1
  C  C25  1  0.41428600  0.87681600  0.50317800  1
  C  C26  1  0.51833900  0.16929100  0.55301400  1
  C  C27  1  0.49401100  0.91726200  0.52989200  1
  C  C28  1  0.45014300  0.13060000  0.50820200  1
  C  C29  1  0.56622700  0.86973500  0.55272400  1
  C  C30  1  0.39207500  0.17993600  0.46610500  1
  C  C31  1  0.55856600  0.78347500  0.54823500  1
  C  C32  1  0.40221800  0.26612600  0.46977200  1
  C  C33  1  0.57643700  0.36819600  0.27023300  1
  C  C34  1  0.59341600  0.28590100  0.23091100  1
  C  C35  1  0.69527200  0.26929700  0.23277400  1
  C  C36  1  0.62043900  0.65865500  0.76467100  1
  C  C37  1  0.66179800  0.72574800  0.81746200  1
  C  C38  1  0.76576800  0.73018600  0.80932200  1
  C  C39  1  0.68102700  0.28104000  0.56028000  1
  C  C40  1  0.74383800  0.23356900  0.61425300  1
  C  C41  1  0.83549100  0.22207800  0.57454300  1
  C  C42  1  0.33969600  0.74834500  0.39042200  1
  C  C43  1  0.26783400  0.80022600  0.35071700  1
  C  C44  1  0.27558100  0.79226100  0.26306300  1
  C  C45  1  0.64783900  0.90155400  0.65711600  1
  C  C46  1  0.68265300  0.98413400  0.69098600  1
  C  C47  1  0.69305100  0.97539700  0.77856500  1
  C  C48  1  0.35619500  0.13426300  0.34894500  1
  C  C49  1  0.29564000  0.17859000  0.29093800  1
  C  C50  1  0.32922800  0.16520800  0.20862800  1
  N  N1  1  0.46562500  0.48878400  0.99952800  1
  N  N2  1  0.47300500  0.55665100  0.03414400  1
  N  N3  1  0.48085500  0.74459600  0.52146900  1
  N  N4  1  0.47009300  0.30299800  0.51235500  1
  N  N5  1  0.50424400  0.00565200  0.53392600  1
  N  N6  1  0.43866400  0.04223400  0.50428000  1
  O  O1  1  0.47462800  0.44686900  0.63161500  1
  O  O2  1  0.47681500  0.60042100  0.40245900  1
  O  O3  1  0.47962200  0.59150100  0.63472000  1
  O  O4  1  0.47107200  0.45613300  0.39948600  1
  O  O5  1  0.61017000  0.45490700  0.51366800  1
  O  O6  1  0.34070700  0.59260700  0.52017200  1
  O  O7  1  0.61512800  0.59943600  0.51734300  1
  O  O8  1  0.33580100  0.44799300  0.51701000  1
  O  O9  1  0.48255800  0.38399800  0.26657100  1
  O  O10  1  0.52423200  0.65818900  0.76861600  1
  O  O11  1  0.59698900  0.29354200  0.59769100  1
  O  O12  1  0.32975100  0.75181900  0.47130200  1
  O  O13  1  0.64727000  0.90849900  0.57591800  1
  O  O14  1  0.32138400  0.14360700  0.42406600  1
