# generated using pymatgen
data_CuH17C27NO4
_symmetry_space_group_name_H-M   'P 1'
_cell_length_a   17.67651000
_cell_length_b   16.23186600
_cell_length_c   10.93206700
_cell_angle_alpha   90.00000000
_cell_angle_beta   90.00057100
_cell_angle_gamma   90.00000000
_symmetry_Int_Tables_number   1
_chemical_formula_structural   CuH17C27NO4
_chemical_formula_sum   'Cu2 H34 C54 N2 O8'
_cell_volume   3136.65863558
_cell_formula_units_Z   2
loop_
 _symmetry_equiv_pos_site_id
 _symmetry_equiv_pos_as_xyz
  1  'x, y, z'
loop_
 _atom_site_type_symbol
 _atom_site_label
 _atom_site_symmetry_multiplicity
 _atom_site_fract_x
 _atom_site_fract_y
 _atom_site_fract_z
 _atom_site_occupancy
  Cu  Cu1  1  0.50710600  0.58151600  0.50117700  1
  Cu  Cu2  1  0.50809800  0.41709800  0.49796400  1
  H  H1  1  0.52188400  0.37170200  0.11002800  1
  H  H2  1  0.51373800  0.37095100  0.88931700  1
  H  H3  1  0.56267700  0.66029000  0.19316000  1
  H  H4  1  0.42750500  0.64609500  0.80561200  1
  H  H5  1  0.88396600  0.63016400  0.51611300  1
  H  H6  1  0.13090800  0.62950400  0.50599300  1
  H  H7  1  0.74603100  0.63106800  0.51994100  1
  H  H8  1  0.26876000  0.63082700  0.50092300  1
  H  H9  1  0.74584000  0.36726800  0.50399100  1
  H  H10  1  0.26913600  0.36739100  0.47472800  1
  H  H11  1  0.88376000  0.36811600  0.50079600  1
  H  H12  1  0.13115100  0.36786900  0.47990900  1
  H  H13  1  0.61851700  0.86467500  0.43170600  1
  H  H14  1  0.39179600  0.86299200  0.56158400  1
  H  H15  1  0.61771400  0.71408200  0.42947700  1
  H  H16  1  0.39515500  0.71308800  0.56854100  1
  H  H17  1  0.58525500  0.13482000  0.64615800  1
  H  H18  1  0.42708600  0.13535900  0.35254800  1
  H  H19  1  0.58477500  0.28607400  0.64434900  1
  H  H20  1  0.42791700  0.28650100  0.35468200  1
  H  H21  1  0.37844000  0.76521600  0.15193200  1
  H  H22  1  0.35123100  0.87094500  0.12194000  1
  H  H23  1  0.37229900  0.83779600  0.27480300  1
  H  H24  1  0.44483300  0.97537900  0.23485600  1
  H  H25  1  0.57704700  0.02119200  0.23041500  1
  H  H26  1  0.67679800  0.92636700  0.16181400  1
  H  H27  1  0.64340100  0.78911600  0.08583000  1
  H  H28  1  0.58845700  0.79404800  0.85523000  1
  H  H29  1  0.59259500  0.90374600  0.88544500  1
  H  H30  1  0.58095000  0.86617300  0.73255700  1
  H  H31  1  0.48053200  0.98288100  0.77153900  1
  H  H32  1  0.34223300  0.99431500  0.77183200  1
  H  H33  1  0.26440300  0.87712800  0.83820700  1
  H  H34  1  0.32490800  0.75146300  0.91412600  1
  C  C1  1  0.36211500  0.49931400  0.48882300  1
  C  C2  1  0.65281400  0.49918300  0.51079700  1
  C  C3  1  0.51633600  0.50084300  0.26374400  1
  C  C4  1  0.49827700  0.49911200  0.73609700  1
  C  C5  1  0.52964400  0.65384500  0.11103700  1
  C  C6  1  0.46057600  0.64682900  0.88834800  1
  C  C7  1  0.50747700  0.72580200  0.05518400  1
  C  C8  1  0.46964900  0.72197200  0.94485600  1
  C  C9  1  0.48988900  0.57482100  0.93902200  1
  C  C10  1  0.51273300  0.57712500  0.06057400  1
  C  C11  1  0.51836300  0.50334500  0.12719600  1
  C  C12  1  0.49585900  0.50104400  0.87256800  1
  C  C13  1  0.51627100  0.42986700  0.06283700  1
  C  C14  1  0.50966000  0.42917900  0.93676800  1
  C  C15  1  0.85336900  0.57252900  0.51390400  1
  C  C16  1  0.16157300  0.57210100  0.49855600  1
  C  C17  1  0.77536300  0.57271900  0.51619400  1
  C  C18  1  0.23953600  0.57248700  0.49565500  1
  C  C19  1  0.73580300  0.49917800  0.51250300  1
  C  C20  1  0.27911200  0.49913600  0.48733600  1
  C  C21  1  0.77523600  0.42559900  0.50745500  1
  C  C22  1  0.23970100  0.42556600  0.48101400  1
  C  C23  1  0.85321300  0.42573200  0.50532100  1
  C  C24  1  0.16168500  0.42550200  0.48394600  1
  C  C25  1  0.89227100  0.49909100  0.50779700  1
  C  C26  1  0.12262500  0.49872400  0.49311500  1
  C  C27  1  0.97337700  0.49891600  0.50278000  1
  C  C28  1  0.04149100  0.49870800  0.49824600  1
  C  C29  1  0.56857200  0.83150300  0.46058200  1
  C  C30  1  0.44235700  0.83073000  0.53370900  1
  C  C31  1  0.56808200  0.74655700  0.46079500  1
  C  C32  1  0.44430900  0.74590300  0.53631700  1
  C  C33  1  0.50532500  0.87398400  0.49759000  1
  C  C34  1  0.50530600  0.96240800  0.49904100  1
  C  C35  1  0.50554500  0.03664400  0.49961800  1
  C  C36  1  0.55015000  0.16771500  0.58153400  1
  C  C37  1  0.46186800  0.16798800  0.41783800  1
  C  C38  1  0.54982500  0.25267000  0.58026100  1
  C  C39  1  0.46263400  0.25293500  0.41908800  1
  C  C40  1  0.50589700  0.12502400  0.49965000  1
  C  C41  1  0.52462700  0.80479500  0.11451800  1
  C  C42  1  0.46879700  0.85637100  0.16175300  1
  C  C43  1  0.38822700  0.83033700  0.17732500  1
  C  C44  1  0.48819500  0.93440800  0.20077000  1
  C  C45  1  0.56247100  0.96005100  0.19914400  1
  C  C46  1  0.61831800  0.90686800  0.16118100  1
  C  C47  1  0.59943400  0.82942200  0.11972500  1
  C  C48  1  0.43744800  0.79588300  0.88747200  1
  C  C49  1  0.48155100  0.86035800  0.84261300  1
  C  C50  1  0.56563200  0.85504700  0.82935100  1
  C  C51  1  0.44668900  0.93184800  0.80367000  1
  C  C52  1  0.36899300  0.93829700  0.80321100  1
  C  C53  1  0.32540200  0.87259300  0.83984200  1
  C  C54  1  0.35955900  0.80171500  0.88146000  1
  N  N1  1  0.50716600  0.70478900  0.50187400  1
  N  N2  1  0.50734800  0.29392900  0.49843400  1
  O  O1  1  0.39737800  0.56986800  0.49845000  1
  O  O2  1  0.61710800  0.56982500  0.51109300  1
  O  O3  1  0.39797200  0.42883800  0.48388300  1
  O  O4  1  0.61742300  0.42851600  0.50588600  1
  O  O5  1  0.50861900  0.57014100  0.32314400  1
  O  O6  1  0.50108300  0.56924200  0.67781300  1
  O  O7  1  0.51722400  0.42952600  0.32162500  1
  O  O8  1  0.50305900  0.42831200  0.67722400  1
