# Generated by REPEAT Assigner based on pymatgen
data_DB0-m29_o90_o500_f0_pts.sym.4
_audit_creation_date              2022-05-24
_audit_creation_method            REPEAT_Assigner
_cell_length_a                    13.206067
_cell_length_b                    16.778659
_cell_length_c                    13.066330
_cell_angle_alpha                 105.352808
_cell_angle_beta                  111.621535
_cell_angle_gamma                 111.332619
_cell_volume                      2225.403812
_symmetry_space_group_name_H-M    P1
_symmetry_Int_Tables_number       1
loop_
    _symmetry_equiv_pos_site_id
    _symmetry_equiv_pos_as_xyz
    1  x,y,z
loop_
    _atom_site_type_symbol
    _atom_site_label
    _atom_site_fract_x
    _atom_site_fract_y
    _atom_site_fract_z
    _atom_type_partial_charge
    C   C1   0.260005  0.952406  0.905733  -0.132038
    C   C2   0.214090  0.973184  0.981905  -0.038433
    C   C3   0.109555  0.984244  0.940015  0.113623
    C   C4   0.053308  0.974127  0.820415  -0.098263
    H   H1   0.974728  0.985586  0.785488  0.125072
    C   C5   0.104029  0.957922  0.746830  -0.167183
    C   C6   0.209333  0.948648  0.790267  0.089688
    C   C7   0.063341  0.009834  0.023836  -0.113899
    C   C8   0.942057  0.985510  0.981719  -0.125415
    H   H2   0.130104  0.050166  0.122556  0.105449
    H   H3   0.874693  0.945211  0.883103  0.107301
    C   C9   0.796015  0.027279  0.026402  -0.062023
    C   C10  0.751409  0.049655  0.103357  -0.120799
    C   C11  0.799926  0.050935  0.217432  0.111831
    C   C12  0.901450  0.037016  0.258491  -0.173364
    C   C13  0.951141  0.019454  0.184335  -0.109607
    H   H4   0.026945  0.004803  0.217317  0.136082
    C   C14  0.897045  0.012145  0.066195  0.124919
    H   H5   0.344954  0.948679  0.943640  0.145178
    H   H6   0.063559  0.956608  0.657448  0.150642
    H   H7   0.668604  0.056210  0.066921  0.134338
    H   H8   0.940053  0.036333  0.346751  0.148152
    O   O1   0.632057  0.062830  0.235823  -0.568807
    C   C15  0.730471  0.052613  0.282894  0.516114
    O   O2   0.514791  0.849335  0.204346  -0.483012
    O   O3   0.751982  0.027895  0.372503  -0.471957
    O   O4   0.500404  0.929646  0.362571  -0.525870
    C   C16  0.509138  0.857820  0.304585  0.572130
    Fe  Fe1  0.508401  0.019072  0.288800  1.472037
    O   O5   0.335248  0.941338  0.134972  -0.643023
    O   O6   0.354676  0.088147  0.194763  -0.523151
    C   C17  0.292476  0.997787  0.111432  0.685302
    O   O7   0.559799  0.144591  0.419966  -0.621381
    O   O8   0.390270  0.044658  0.422081  -0.496378
    C   C18  0.486357  0.131292  0.467191  0.733881
    O   O9   0.449148  0.866567  0.589966  -0.600804
    O   O10  0.625550  0.962983  0.594593  -0.485021
    C   C19  0.524896  0.877867  0.545542  0.730751
    O   O11  0.684161  0.065661  0.876374  -0.667466
    O   O12  0.650612  0.914510  0.813589  -0.536133
    C   C20  0.719382  0.005116  0.897744  0.735029
    O   O13  0.248676  0.962726  0.627053  -0.479692
    O   O14  0.521677  0.085152  0.655569  -0.554226
    C   C21  0.495919  0.148738  0.704145  0.636629
    O   O15  0.388330  0.952826  0.782559  -0.578710
    C   C22  0.280264  0.949294  0.726024  0.547129
    O   O16  0.469720  0.144961  0.790815  -0.449572
    Fe  Fe2  0.509281  0.993198  0.725629  1.460922
    C   C23  0.498230  0.215346  0.553092  -0.066647
    C   C24  0.504845  0.286682  0.517581  0.046403
    H   H9   0.502392  0.277110  0.431483  0.100576
    C   C25  0.507651  0.366126  0.586255  -0.424767
    C   C26  0.509230  0.376107  0.694996  0.001372
    H   H10  0.513060  0.438877  0.750331  0.047058
    C   C27  0.505987  0.306949  0.734702  0.247396
    C   C28  0.498320  0.223839  0.662833  -0.111468
    N   N1   0.505615  0.514479  0.608679  -0.224489
    N   N2   0.502744  0.578775  0.568999  -0.249032
    C   C29  0.500169  0.568533  0.462254  0.765488
    N   N3   0.500837  0.492315  0.396159  -0.238212
    N   N4   0.503691  0.427930  0.435887  -0.249783
    C   C30  0.506342  0.438290  0.542787  0.793089
    C   C31  0.498828  0.633535  0.312113  0.131335
    H   H11  0.495835  0.572233  0.254274  0.040474
    C   C32  0.502476  0.704448  0.276334  -0.177327
    H   H12  0.500835  0.695666  0.190690  0.139636
    C   C33  0.508435  0.785143  0.348496  0.081882
    C   C34  0.509686  0.793038  0.457953  -0.115779
    C   C35  0.502577  0.720585  0.491142  0.098042
    H   H13  0.505212  0.729278  0.577148  0.084561
    C   C36  0.499230  0.641377  0.420165  -0.430506
    C   C37  0.513979  0.326852  0.856930  -0.476886
    H   H14  0.529311  0.399568  0.901823  0.143215
    H   H15  0.423717  0.274109  0.843408  0.155430
    H   H16  0.595736  0.325111  0.920421  0.132967
