# generated using pymatgen
data_ZnH24C30NO5
_symmetry_space_group_name_H-M   'P 1'
_cell_length_a   19.45559400
_cell_length_b   18.26736100
_cell_length_c   10.76457600
_cell_angle_alpha   90.00000000
_cell_angle_beta   90.01371600
_cell_angle_gamma   90.00000000
_symmetry_Int_Tables_number   1
_chemical_formula_structural   ZnH24C30NO5
_chemical_formula_sum   'Zn2 H48 C60 N2 O10'
_cell_volume   3825.75559514
_cell_formula_units_Z   2
loop_
 _symmetry_equiv_pos_site_id
 _symmetry_equiv_pos_as_xyz
  1  'x, y, z'
loop_
 _atom_site_type_symbol
 _atom_site_label
 _atom_site_symmetry_multiplicity
 _atom_site_fract_x
 _atom_site_fract_y
 _atom_site_fract_z
 _atom_site_occupancy
  Zn  Zn1  1  0.50168800  0.58307500  0.50012100  1
  Zn  Zn2  1  0.50196100  0.41640600  0.49996500  1
  H  H1  1  0.54834100  0.60756200  0.10260400  1
  H  H2  1  0.43762700  0.40356200  0.10443500  1
  H  H3  1  0.45521400  0.60750200  0.10303800  1
  H  H4  1  0.39152700  0.48932600  0.10436900  1
  H  H5  1  0.45468400  0.60680800  0.89665700  1
  H  H6  1  0.39154200  0.48837700  0.89506400  1
  H  H7  1  0.54782000  0.60758900  0.89623200  1
  H  H8  1  0.43815100  0.40292700  0.89676900  1
  H  H9  1  0.61227400  0.48947600  0.10491000  1
  H  H10  1  0.56622800  0.40368000  0.10392800  1
  H  H11  1  0.61227200  0.48980100  0.89559600  1
  H  H12  1  0.56668300  0.40372300  0.89621800  1
  H  H13  1  0.72101700  0.38284400  0.50348200  1
  H  H14  1  0.72130500  0.61717400  0.49770800  1
  H  H15  1  0.84524600  0.38276500  0.50566000  1
  H  H16  1  0.84557500  0.61689300  0.49636500  1
  H  H17  1  0.93979400  0.59020800  0.62711600  1
  H  H18  1  0.93956600  0.40910400  0.37522500  1
  H  H19  1  0.06415600  0.59002400  0.62710900  1
  H  H20  1  0.06391000  0.40884100  0.37548500  1
  H  H21  1  0.15811700  0.38236700  0.50756600  1
  H  H22  1  0.15823400  0.61637100  0.49487800  1
  H  H23  1  0.28246000  0.38212500  0.50498700  1
  H  H24  1  0.28247600  0.61642000  0.49575500  1
  H  H25  1  0.60886000  0.70134700  0.48065600  1
  H  H26  1  0.50001800  0.29804000  0.69485300  1
  H  H27  1  0.60895900  0.83465700  0.47877800  1
  H  H28  1  0.49869500  0.16478100  0.69498800  1
  H  H29  1  0.39088300  0.83233200  0.51980700  1
  H  H30  1  0.50495500  0.16734900  0.29875700  1
  H  H31  1  0.39359800  0.69924000  0.52141100  1
  H  H32  1  0.50519800  0.30030100  0.30368400  1
  H  H33  1  0.58047200  0.06606000  0.62992300  1
  H  H34  1  0.57780200  0.93293500  0.63444900  1
  H  H35  1  0.48393100  0.93076400  0.18478900  1
  H  H36  1  0.40933100  0.98888200  0.17844000  1
  H  H37  1  0.29214000  0.90846200  0.20971400  1
  H  H38  1  0.22861700  0.81520700  0.09274700  1
  H  H39  1  0.29013100  0.73164300  0.95233500  1
  H  H40  1  0.41552000  0.74154000  0.92927300  1
  H  H41  1  0.47955800  0.83399000  0.04622900  1
  H  H42  1  0.32705900  0.07022900  0.48393500  1
  H  H43  1  0.31911100  0.01171600  0.35014300  1
  H  H44  1  0.32974100  0.09024400  0.13603500  1
  H  H45  1  0.26347600  0.18451500  0.02669800  1
  H  H46  1  0.19192200  0.27105800  0.14455200  1
  H  H47  1  0.18682300  0.26310000  0.37235900  1
  H  H48  1  0.25298000  0.16944600  0.48263400  1
  C  C1  1  0.36720800  0.49928800  0.49993400  1
  C  C2  1  0.50189900  0.50008000  0.25676400  1
  C  C3  1  0.63643200  0.50005800  0.50027000  1
  C  C4  1  0.50181000  0.49957300  0.74321800  1
  C  C5  1  0.50174300  0.57827500  0.06999100  1
  C  C6  1  0.43826700  0.46087700  0.07049800  1
  C  C7  1  0.50150600  0.57806200  0.92950100  1
  C  C8  1  0.43838600  0.46044400  0.92973200  1
  C  C9  1  0.56560700  0.46109900  0.07049800  1
  C  C10  1  0.50188200  0.50007000  0.11792100  1
  C  C11  1  0.50186100  0.49974500  0.88206400  1
  C  C12  1  0.56571300  0.46112100  0.92972200  1
  C  C13  1  0.74771700  0.43469900  0.50191800  1
  C  C14  1  0.74788100  0.56526300  0.49942200  1
  C  C15  1  0.81859100  0.43461400  0.50202400  1
  C  C16  1  0.81876600  0.56513200  0.49980800  1
  C  C17  1  0.85471700  0.49981400  0.50101600  1
  C  C18  1  0.71187400  0.50003500  0.50052000  1
  C  C19  1  0.96646600  0.55072700  0.57000500  1
  C  C20  1  0.96633500  0.44847100  0.43243700  1
  C  C21  1  0.03734800  0.55061300  0.57003900  1
  C  C22  1  0.03721200  0.44832300  0.43256100  1
  C  C23  1  0.07331200  0.49940800  0.50132200  1
  C  C24  1  0.93035300  0.49967200  0.50116300  1
  C  C25  1  0.18492900  0.43408900  0.50303700  1
  C  C26  1  0.18497400  0.56458100  0.49895700  1
  C  C27  1  0.25581800  0.43400700  0.50270300  1
  C  C28  1  0.25584600  0.56455800  0.49834300  1
  C  C29  1  0.29176200  0.49926700  0.50025100  1
  C  C30  1  0.14893000  0.49935700  0.50116500  1
  C  C31  1  0.56068800  0.73012900  0.48950500  1
  C  C32  1  0.50098600  0.26930600  0.60728400  1
  C  C33  1  0.56084100  0.80566700  0.48879300  1
  C  C34  1  0.50056300  0.19376200  0.60750400  1
  C  C35  1  0.49971500  0.84351900  0.49733800  1
  C  C36  1  0.50064000  0.15593600  0.49663000  1
  C  C37  1  0.43951100  0.80435700  0.50953300  1
  C  C38  1  0.50282500  0.19519300  0.38727600  1
  C  C39  1  0.44118900  0.72891500  0.51122900  1
  C  C40  1  0.50353200  0.27061900  0.39025800  1
  C  C41  1  0.45570100  0.96170200  0.41698500  1
  C  C42  1  0.45367100  0.03786100  0.42112000  1
  C  C43  1  0.49997300  0.07553500  0.49522500  1
  C  C44  1  0.49898900  0.92388000  0.49655000  1
  C  C45  1  0.54442000  0.03726100  0.57118200  1
  C  C46  1  0.54342400  0.96194200  0.57279000  1
  C  C47  1  0.42837100  0.93436600  0.20676900  1
  C  C48  1  0.39000400  0.87725200  0.13627100  1
  C  C49  1  0.31957000  0.87173100  0.14868200  1
  C  C50  1  0.28376700  0.81939700  0.08284300  1
  C  C51  1  0.31822600  0.77257000  0.00414000  1
  C  C52  1  0.38852000  0.77806900  0.99132600  1
  C  C53  1  0.42445200  0.83023400  0.05733000  1
  C  C54  1  0.33625700  0.06618000  0.38254100  1
  C  C55  1  0.29597700  0.12365200  0.31644700  1
  C  C56  1  0.29860600  0.12818600  0.18851200  1
  C  C57  1  0.26131300  0.18111400  0.12687700  1
  C  C58  1  0.22120200  0.22960700  0.19289900  1
  C  C59  1  0.21837700  0.22515300  0.32060800  1
  C  C60  1  0.25569100  0.17231000  0.38245500  1
  N  N1  1  0.50126800  0.69267400  0.50047200  1
  N  N2  1  0.50222400  0.30680900  0.49939500  1
  O  O1  1  0.39936100  0.56244500  0.49980400  1
  O  O2  1  0.39949200  0.43619800  0.50002000  1
  O  O3  1  0.50185000  0.56319800  0.31489300  1
  O  O4  1  0.50192300  0.43693300  0.31487500  1
  O  O5  1  0.60415200  0.56318300  0.50021500  1
  O  O6  1  0.60430400  0.43687200  0.50015300  1
  O  O7  1  0.50168600  0.56271500  0.68509700  1
  O  O8  1  0.50190000  0.43636100  0.68515400  1
  O  O9  1  0.41935300  0.92357500  0.33211700  1
  O  O10  1  0.40512800  0.07615300  0.35962100  1
