# Generated by REPEAT Assigner based on pymatgen
data_DB0-m3_o42_o4_f0_fsc.sym.1_sqe
_audit_creation_date              2022-05-24
_audit_creation_method            REPEAT_Assigner
_cell_length_a                    8.545701
_cell_length_b                    9.315543
_cell_length_c                    10.947705
_cell_angle_alpha                 90.000000
_cell_angle_beta                  90.000000
_cell_angle_gamma                 90.000000
_cell_volume                      871.523218
_symmetry_space_group_name_H-M    P1
_symmetry_Int_Tables_number       1
loop_
    _symmetry_equiv_pos_site_id
    _symmetry_equiv_pos_as_xyz
    1  x,y,z
loop_
    _atom_site_type_symbol
    _atom_site_label
    _atom_site_fract_x
    _atom_site_fract_y
    _atom_site_fract_z
    _atom_type_partial_charge
    C   C1   0.861331  0.991762  0.260481  -0.013533
    C   C2   0.138669  0.991762  0.260481  -0.013537
    C   C3   0.859865  0.005699  0.135119  -0.264807
    C   C4   0.140135  0.005699  0.135119  -0.264804
    H   H1   0.747127  0.018332  0.093210  0.124851
    H   H2   0.252873  0.018332  0.093210  0.124851
    C   C5   0.000000  0.001548  0.068946  0.191765
    C   C6   0.000000  0.972590  0.319991  -0.149231
    C   C7   0.140141  0.995256  0.866081  -0.204106
    C   C8   0.859859  0.995256  0.866081  -0.204108
    H   H3   0.252876  0.982571  0.907984  0.102208
    H   H4   0.747124  0.982571  0.907984  0.102208
    C   C9   0.138674  0.009309  0.740729  0.034962
    C   C10  0.861326  0.009309  0.740729  0.034965
    C   C11  0.000000  0.028551  0.681242  -0.203056
    C   C12  0.000000  0.999382  0.932255  0.077267
    H   H5   0.000000  0.950082  0.415761  0.134696
    H   H6   0.000000  0.051136  0.585485  0.138602
    O   O1   0.666699  0.122471  0.370433  -0.702298
    O   O2   0.332505  0.875116  0.379148  -0.715617
    O   O3   0.333301  0.122471  0.370433  -0.702296
    O   O4   0.667495  0.875116  0.379148  -0.715619
    C   C13  0.719210  0.996645  0.334637  0.827846
    C   C14  0.280790  0.996645  0.334637  0.827843
    O   O5   0.666636  0.878456  0.630886  -0.688142
    O   O6   0.332570  0.126131  0.622167  -0.686146
    O   O7   0.333364  0.878456  0.630886  -0.688141
    O   O8   0.667430  0.126131  0.622167  -0.686148
    C   C15  0.719241  0.004431  0.666521  0.763442
    C   C16  0.280759  0.004431  0.666521  0.763440
    Zn  Zn1  0.500000  0.838541  0.504696  1.076908
    Zn  Zn2  0.500000  0.162552  0.496123  1.064861
    C   C17  0.500000  0.425618  0.599635  0.155156
    C   C18  0.500000  0.566382  0.604953  0.163743
    N   N1   0.500000  0.351170  0.495005  -0.030095
    N   N2   0.500000  0.649923  0.505911  -0.041337
    C   C19  0.500000  0.430114  0.391514  -0.087819
    C   C20  0.500000  0.580357  0.397190  -0.067076
    H   H7   0.500000  0.377072  0.303690  0.166538
    H   H8   0.500000  0.641459  0.313262  0.158670
    C   C21  0.500000  0.573654  0.740050  -0.110512
    C   C22  0.500000  0.404932  0.733850  -0.132378
    H   H9   0.610484  0.618683  0.776869  0.083027
    H   H10  0.389535  0.356588  0.767494  0.084967
    H   H11  0.389516  0.618683  0.776869  0.083027
    H   H12  0.610465  0.356588  0.767494  0.084966
