# generated using pymatgen
data_FeH8C18SO8
_symmetry_space_group_name_H-M   'P 1'
_cell_length_a   13.47049800
_cell_length_b   12.51988400
_cell_length_c   13.13730900
_cell_angle_alpha   80.63884900
_cell_angle_beta   84.84917700
_cell_angle_gamma   110.02532500
_symmetry_Int_Tables_number   1
_chemical_formula_structural   FeH8C18SO8
_chemical_formula_sum   'Fe2 H16 C36 S2 O16'
_cell_volume   2028.47303885
_cell_formula_units_Z   2
loop_
 _symmetry_equiv_pos_site_id
 _symmetry_equiv_pos_as_xyz
  1  'x, y, z'
loop_
 _atom_site_type_symbol
 _atom_site_label
 _atom_site_symmetry_multiplicity
 _atom_site_fract_x
 _atom_site_fract_y
 _atom_site_fract_z
 _atom_site_occupancy
  Fe  Fe1  1  0.50867300  0.01600900  0.21812200  1
  Fe  Fe2  1  0.52123900  0.03328300  0.75858800  1
  H  H1  1  0.17805400  0.95094200  0.21371100  1
  H  H2  1  0.00210500  0.92013500  0.17598400  1
  H  H3  1  0.12512300  0.01441700  0.84832500  1
  H  H4  1  0.96058400  0.93022900  0.83329900  1
  H  H5  1  0.79679300  0.94580000  0.79104800  1
  H  H6  1  0.89275500  0.00560000  0.13341600  1
  H  H7  1  0.42265300  0.85123500  0.53157300  1
  H  H8  1  0.55288700  0.64027200  0.70756400  1
  H  H9  1  0.55556000  0.17719800  0.44716500  1
  H  H10  1  0.43949300  0.40307800  0.26808900  1
  H  H11  1  0.15715700  0.43636100  0.39045600  1
  H  H12  1  0.22775000  0.50640700  0.48619200  1
  H  H13  1  0.24121300  0.37394300  0.45827200  1
  H  H14  1  0.49428900  0.33026600  0.83975800  1
  H  H15  1  0.42146100  0.40249400  0.76351700  1
  H  H16  1  0.51176600  0.47854800  0.84406700  1
  C  C1  1  0.16691900  0.96256700  0.13277700  1
  C  C2  1  0.06618900  0.94826200  0.11086500  1
  C  C3  1  0.04939600  0.97156000  0.00881100  1
  C  C4  1  0.13488600  0.99666300  0.92901400  1
  C  C5  1  0.23583500  0.00333500  0.95043900  1
  C  C6  1  0.25297400  0.99489300  0.05419200  1
  C  C7  1  0.91201400  0.95074200  0.89117600  1
  C  C8  1  0.81716700  0.95763600  0.86718800  1
  C  C9  1  0.74647600  0.97524500  0.93898900  1
  C  C10  1  0.77153100  0.98677500  0.03833100  1
  C  C11  1  0.87081700  0.98697400  0.05959200  1
  C  C12  1  0.94238400  0.96917100  0.98644800  1
  C  C13  1  0.69703300  0.99991400  0.12146500  1
  C  C14  1  0.47224200  0.79976200  0.35353000  1
  C  C15  1  0.35787100  0.01837700  0.08725800  1
  C  C16  1  0.49117300  0.21623900  0.27139900  1
  C  C17  1  0.49962800  0.82240800  0.70280200  1
  C  C18  1  0.64929900  0.98327300  0.90282600  1
  C  C19  1  0.51896100  0.23197700  0.62364600  1
  C  C20  1  0.31809300  0.01115600  0.86310300  1
  C  C21  1  0.45114400  0.72169000  0.45714400  1
  C  C22  1  0.44207400  0.77378900  0.54064800  1
  C  C23  1  0.47857500  0.74305600  0.63026100  1
  C  C24  1  0.51711400  0.65417300  0.63925700  1
  C  C25  1  0.50313500  0.58298200  0.56625400  1
  C  C26  1  0.46517200  0.61454200  0.47539900  1
  C  C27  1  0.52851800  0.48269500  0.58301200  1
  C  C28  1  0.51260900  0.41178100  0.50884700  1
  C  C29  1  0.47514800  0.44463900  0.41808600  1
  C  C30  1  0.44176900  0.53876800  0.40675300  1
  C  C31  1  0.53337000  0.30836900  0.52179400  1
  C  C32  1  0.54065800  0.25743700  0.43740300  1
  C  C33  1  0.50759900  0.29245500  0.34668200  1
  C  C34  1  0.46859000  0.38111600  0.33940100  1
  C  C35  1  0.23223500  0.45664300  0.42451700  1
  C  C36  1  0.49830100  0.41419500  0.79301700  1
  S  S1  1  0.34438500  0.54267900  0.32218000  1
  S  S2  1  0.60809900  0.46419800  0.68382800  1
  O  O1  1  0.61396300  0.02574700  0.09842400  1
  O  O2  1  0.50122400  0.77214400  0.26649600  1
  O  O3  1  0.71143100  0.98112100  0.21928400  1
  O  O4  1  0.48479400  0.90843600  0.35385300  1
  O  O5  1  0.36358700  0.95659300  0.17553100  1
  O  O6  1  0.43853400  0.11441500  0.04365100  1
  O  O7  1  0.56726500  0.17756100  0.24504900  1
  O  O8  1  0.39270100  0.15983200  0.25917000  1
  O  O9  1  0.44116600  0.88695200  0.71169700  1
  O  O10  1  0.59057400  0.84760900  0.73889400  1
  O  O11  1  0.65984500  0.05130700  0.81206200  1
  O  O12  1  0.55485000  0.90759200  0.94792300  1
  O  O13  1  0.28987600  0.99294800  0.77252300  1
  O  O14  1  0.57073800  0.16002200  0.63268600  1
  O  O15  1  0.41750400  0.02907000  0.87746800  1
  O  O16  1  0.43678300  0.21499300  0.69373700  1
