# Generated by REPEAT Assigner based on pymatgen
data_DB0-m3_o6_o20_f0_nbo.sym.154_sqe
_audit_creation_date              2022-05-24
_audit_creation_method            REPEAT_Assigner
_cell_length_a                    27.302798
_cell_length_b                    27.687239
_cell_length_c                    27.333088
_cell_angle_alpha                 109.754283
_cell_angle_beta                  110.613190
_cell_angle_gamma                 108.296575
_cell_volume                      15851.438206
_symmetry_space_group_name_H-M    P1
_symmetry_Int_Tables_number       1
loop_
    _symmetry_equiv_pos_site_id
    _symmetry_equiv_pos_as_xyz
    1  x,y,z
loop_
    _atom_site_type_symbol
    _atom_site_label
    _atom_site_fract_x
    _atom_site_fract_y
    _atom_site_fract_z
    _atom_type_partial_charge
    O   O1   0.064803  0.098574  0.538753  -0.649598
    O   O2   0.065792  0.025754  0.466706  -0.668637
    C   C1   0.084754  0.081244  0.502787  0.693140
    O   O3   0.068346  0.035652  0.601263  -0.667197
    O   O4   0.065820  0.961268  0.527501  -0.655235
    C   C2   0.087609  0.998403  0.584770  0.752728
    Zn  Zn1  0.003349  0.047264  0.550153  1.304066
    Zn  Zn2  0.002256  0.952182  0.452945  1.305528
    O   O5   0.939878  0.973693  0.536445  -0.668599
    O   O6   0.940851  0.900858  0.464388  -0.653110
    O   O7   0.939764  0.038148  0.475580  -0.666779
    O   O8   0.937248  0.963784  0.401843  -0.682958
    C   C3   0.920941  0.918212  0.500399  0.692228
    C   C4   0.917951  0.000998  0.418301  0.752564
    C   C5   0.134515  0.998052  0.631521  -0.096436
    C   C6   0.173628  0.997554  0.670427  -0.012949
    C   C7   0.219634  0.996837  0.716157  0.012091
    C   C8   0.258676  0.996207  0.755000  0.019117
    C   C9   0.304624  0.995531  0.800830  -0.023134
    C   C10  0.343627  0.995134  0.839946  -0.083400
    H   H1   0.174209  0.162400  0.409338  0.159170
    C   C11  0.254739  0.243800  0.453412  -0.152737
    H   H2   0.252349  0.239078  0.411605  0.149480
    C   C12  0.301569  0.292939  0.507870  0.245917
    C   C13  0.304862  0.299368  0.561678  -0.105504
    C   C14  0.260674  0.256001  0.559949  -0.157206
    H   H3   0.261945  0.259771  0.601092  0.163694
    C   C15  0.213977  0.207064  0.505350  0.310095
    C   C16  0.210947  0.200853  0.452089  -0.200873
    C   C17  0.345994  0.337050  0.507428  -0.259698
    C   C18  0.168332  0.162576  0.504099  -0.236830
    C   C19  0.130083  0.125350  0.503324  -0.011546
    C   C20  0.383115  0.374289  0.507081  0.014168
    H   H4   0.730901  0.907465  0.231751  0.156898
    C   C21  0.689924  0.949035  0.191429  -0.201162
    H   H5   0.651688  0.907665  0.153038  0.152904
    C   C22  0.693684  0.001491  0.195623  0.329407
    C   C23  0.743218  0.053828  0.245270  -0.208232
    H   H6   0.747105  0.095283  0.249437  0.157964
    C   C24  0.788045  0.053714  0.289796  -0.212227
    H   H7   0.826319  0.095081  0.328149  0.155293
    C   C25  0.784286  0.001258  0.285598  0.343099
    C   C26  0.734751  0.948921  0.235954  -0.212628
    C   C27  0.646683  0.001591  0.148673  -0.202335
    C   C28  0.831430  0.001143  0.332384  -0.221195
    C   C29  0.870804  0.001064  0.371469  -0.069446
    C   C30  0.607511  0.001583  0.109293  -0.097925
    H   H8   0.841581  0.742908  0.504420  0.157632
    C   C31  0.762148  0.704912  0.507251  -0.208120
    H   H9   0.767375  0.668010  0.507997  0.158184
    C   C32  0.713910  0.710086  0.508319  0.350541
    C   C33  0.707014  0.757004  0.507249  -0.208592
    H   H10  0.669073  0.760887  0.507994  0.156146
    C   C34  0.748527  0.798906  0.505184  -0.214664
    H   H11  0.743292  0.835799  0.504417  0.159763
    C   C35  0.796778  0.793735  0.504139  0.361779
    C   C36  0.803653  0.746806  0.505186  -0.212180
    C   C37  0.670580  0.666306  0.510044  -0.237628
    C   C38  0.840146  0.837438  0.502374  -0.261310
    C   C39  0.876857  0.874250  0.501224  -0.007803
    C   C40  0.634008  0.629239  0.511070  -0.047414
    O   O9   0.436926  0.897966  0.913011  -0.644136
    O   O10  0.511936  0.967281  0.913862  -0.666487
    C   C41  0.474619  0.912909  0.894869  0.673652
    O   O11  0.374160  0.960012  0.907918  -0.658428
    O   O12  0.447111  0.030851  0.908458  -0.669198
    C   C42  0.390299  0.995057  0.887201  0.740355
    Zn  Zn3  0.427803  0.953050  0.975631  1.295935
    Zn  Zn4  0.523261  0.043341  0.973314  1.303350
    O   O13  0.439394  0.029120  0.035323  -0.633701
    O   O14  0.514358  0.098496  0.036127  -0.656833
    O   O15  0.503914  0.965517  0.040467  -0.683690
    O   O16  0.576932  0.036450  0.041078  -0.673230
    C   C43  0.476669  0.083461  0.054277  0.663411
    C   C44  0.560767  0.001379  0.061783  0.791491
    O   O17  0.538895  0.439020  0.469316  -0.684236
    O   O18  0.461723  0.444492  0.404316  -0.626228
    C   C45  0.498472  0.423449  0.415175  0.699435
    O   O19  0.483982  0.435912  0.540708  -0.666230
    O   O20  0.408322  0.441370  0.473778  -0.653927
    C   C46  0.427129  0.419038  0.506988  0.683496
    Zn  Zn5  0.557945  0.496639  0.551508  1.305387
    Zn  Zn6  0.459405  0.507154  0.467093  1.289735
    O   O21  0.555618  0.559298  0.614350  -0.658906
    O   O22  0.478463  0.564723  0.549308  -0.664994
    O   O23  0.608999  0.562385  0.544801  -0.667444
    O   O24  0.533358  0.567858  0.477883  -0.674097
    C   C47  0.518825  0.580333  0.603442  0.712900
    C   C48  0.590181  0.584698  0.511553  0.741572
    H   H12  0.588782  0.845131  0.832407  0.157947
    C   C49  0.561715  0.757225  0.770457  -0.180558
    H   H13  0.604366  0.768597  0.772586  0.150357
    C   C50  0.514937  0.700315  0.732621  0.298588
    C   C51  0.459848  0.685298  0.728035  -0.177296
    H   H14  0.423169  0.640585  0.697061  0.152345
    C   C52  0.450959  0.727975  0.760803  -0.226605
    H   H15  0.407538  0.717071  0.756718  0.159685
    C   C53  0.497246  0.785129  0.797438  0.379764
    C   C54  0.552844  0.799928  0.803318  -0.222326
    C   C55  0.520537  0.658093  0.691459  -0.218148
    C   C56  0.487497  0.829684  0.829534  -0.272318
    C   C57  0.480461  0.867584  0.857987  0.001692
    C   C58  0.521758  0.622502  0.652994  -0.034196
    H   H16  0.479980  0.260502  0.141319  0.171185
    C   C59  0.483857  0.303226  0.224727  -0.010295
    C   C60  0.485776  0.298859  0.274325  0.344120
    C   C61  0.484613  0.250673  0.278914  -0.344582
    H   H17  0.486236  0.248666  0.318227  0.168594
    C   C62  0.481883  0.205744  0.234684  -0.006773
    C   C63  0.480359  0.210230  0.185236  0.359011
    C   C64  0.481165  0.258278  0.180412  -0.347260
    C   C65  0.489959  0.343549  0.322991  -0.206715
    C   C66  0.478812  0.166262  0.138251  -0.231785
    C   C67  0.477775  0.128843  0.099280  0.031806
    C   C68  0.493787  0.380352  0.364942  0.000956
    C   C69  0.484881  0.353556  0.216786  0.403252
    H   H18  0.484024  0.353670  0.176881  0.011446
    O   O25  0.486321  0.394926  0.253441  -0.400599
    C   C70  0.481132  0.155654  0.243081  0.391587
    H   H19  0.483282  0.156414  0.283711  0.010719
    O   O26  0.477848  0.113254  0.205802  -0.392024
    C   C71  0.354372  0.351474  0.620338  0.464674
    H   H20  0.389709  0.386153  0.623217  0.012094
    O   O27  0.356275  0.356306  0.667078  -0.455607
