data_DB0-m29_o96_o1490_f0_pts.sym.62_repeat
_audit_creation_date              2024-02-24
_audit_creation_method            'Materials Studio'
_symmetry_space_group_name_H-M    'P1'
_symmetry_Int_Tables_number       1
_symmetry_cell_setting            triclinic
loop_
_symmetry_equiv_pos_as_xyz
  x,y,z
_cell_length_a                    17.2072
_cell_length_b                    12.2785
_cell_length_c                    19.3010
_cell_angle_alpha                 88.7612
_cell_angle_beta                  90.6043
_cell_angle_gamma                 108.0991
loop_
_atom_site_label
_atom_site_type_symbol
_atom_site_fract_x
_atom_site_fract_y
_atom_site_fract_z
_atom_site_U_iso_or_equiv
_atom_site_adp_type
_atom_site_occupancy
C1     C     0.22398   0.04356   0.11048   0.00000  Uiso   1.00
C2     C     0.17988   0.07248   0.16095   0.00000  Uiso   1.00
C3     C     0.10467   0.06681   0.13302   0.00000  Uiso   1.00
N1     N     0.10145   0.03502   0.06627   0.00000  Uiso   1.00
C4     C     0.17443   0.02026   0.05227   0.00000  Uiso   1.00
C5     C     0.04309   0.08371   0.16859   0.00000  Uiso   1.00
C6     C     0.95800   0.06065   0.14399   0.00000  Uiso   1.00
C7     C     0.89210   0.04771   0.18697   0.00000  Uiso   1.00
C8     C     0.82383   0.02586   0.14665   0.00000  Uiso   1.00
C9     C     0.84918   0.02422   0.07868   0.00000  Uiso   1.00
N2     N     0.93163   0.04828   0.07770   0.00000  Uiso   1.00
C10    C     0.79493   0.00075   0.01714   0.00000  Uiso   1.00
C11    C     0.81612   0.96985   0.95565   0.00000  Uiso   1.00
C12    C     0.76739   0.94846   0.89679   0.00000  Uiso   1.00
C13    C     0.81268   0.92245   0.84613   0.00000  Uiso   1.00
C14    C     0.88726   0.92677   0.87454   0.00000  Uiso   1.00
N3     N     0.88950   0.95617   0.94169   0.00000  Uiso   1.00
C15    C     0.94870   0.90937   0.83904   0.00000  Uiso   1.00
C16    C     0.03338   0.92985   0.86372   0.00000  Uiso   1.00
C17    C     0.09904   0.94091   0.82080   0.00000  Uiso   1.00
C18    C     0.16752   0.96314   0.86101   0.00000  Uiso   1.00
C19    C     0.14196   0.96549   0.92913   0.00000  Uiso   1.00
N4     N     0.05966   0.94263   0.92993   0.00000  Uiso   1.00
C20    C     0.19498   0.98667   0.99143   0.00000  Uiso   1.00
H1     H     0.05441   0.10808   0.22199   0.00000  Uiso   1.00
H2     H     0.73368   0.00568   0.02321   0.00000  Uiso   1.00
H3     H     0.93749   0.88574   0.78556   0.00000  Uiso   1.00
H4     H     0.25500   0.97736   0.98700   0.00000  Uiso   1.00
H5     H     0.96907   0.06304   0.03445   0.00000  Uiso   1.00
H6     H     0.02219   0.92892   0.97311   0.00000  Uiso   1.00
C21    C     0.10173   0.93352   0.75010   0.00000  Uiso   1.00
C22    C     0.17615   0.94563   0.71987   0.00000  Uiso   1.00
C23    C     0.24720   0.96662   0.75954   0.00000  Uiso   1.00
C24    C     0.24370   0.97913   0.83126   0.00000  Uiso   1.00
C25    C     0.30173   0.03729   0.12311   0.00000  Uiso   1.00
C26    C     0.33166   0.05603   0.19023   0.00000  Uiso   1.00
C27    C     0.28498   0.08242   0.24177   0.00000  Uiso   1.00
C28    C     0.20913   0.09306   0.22738   0.00000  Uiso   1.00
C29    C     0.88875   0.05318   0.25770   0.00000  Uiso   1.00
C30    C     0.81369   0.03845   0.28756   0.00000  Uiso   1.00
C31    C     0.74304   0.01875   0.24732   0.00000  Uiso   1.00
C32    C     0.74762   0.01111   0.17547   0.00000  Uiso   1.00
C33    C     0.68958   0.95414   0.88348   0.00000  Uiso   1.00
C34    C     0.66141   0.93879   0.81556   0.00000  Uiso   1.00
C35    C     0.70993   0.91675   0.76398   0.00000  Uiso   1.00
C36    C     0.78538   0.90588   0.77900   0.00000  Uiso   1.00
H7     H     0.04767   0.91679   0.71806   0.00000  Uiso   1.00
H8     H     0.33681   0.01268   0.08375   0.00000  Uiso   1.00
H9     H     0.30783   0.09497   0.29428   0.00000  Uiso   1.00
H10    H     0.17411   0.11333   0.26844   0.00000  Uiso   1.00
H11    H     0.94257   0.06916   0.29000   0.00000  Uiso   1.00
H12    H     0.69355   0.99524   0.14339   0.00000  Uiso   1.00
H13    H     0.65305   0.97491   0.92321   0.00000  Uiso   1.00
H14    H     0.68871   0.90652   0.71099   0.00000  Uiso   1.00
H15    H     0.82152   0.88850   0.73781   0.00000  Uiso   1.00
H16    H     0.17750   0.93650   0.66441   0.00000  Uiso   1.00
H17    H     0.81156   0.04427   0.34322   0.00000  Uiso   1.00
O1     O     0.59734   0.00134   0.25008   0.00000  Uiso   1.00
C37    C     0.66595   0.00887   0.28330   0.00000  Uiso   1.00
O2     O     0.54119   0.78042   0.33329   0.00000  Uiso   1.00
O3     O     0.66627   0.01140   0.35123   0.00000  Uiso   1.00
O4     O     0.47955   0.88581   0.39430   0.00000  Uiso   1.00
C38    C     0.49767   0.79035   0.38678   0.00000  Uiso   1.00
Fe1    Fe    0.51456   0.00419   0.31991   0.00000  Uiso   1.00
O5     O     0.40830   0.98257   0.26971   0.00000  Uiso   1.00
O6     O     0.47779   0.09781   0.18157   0.00000  Uiso   1.00
C39    C     0.40882   0.03891   0.21117   0.00000  Uiso   1.00
O7     O     0.57011   0.15271   0.36685   0.00000  Uiso   1.00
O8     O     0.46097   0.20616   0.33090   0.00000  Uiso   1.00
C40    C     0.52523   0.22181   0.37101   0.00000  Uiso   1.00
C41    C     0.53205   0.21990   0.49596   0.00000  Uiso   1.00
C42    C     0.51687   0.25765   0.55934   0.00000  Uiso   1.00
C43    C     0.50501   0.36318   0.56420   0.00000  Uiso   1.00
C44    C     0.52744   0.28075   0.43656   0.00000  Uiso   1.00
C45    C     0.51305   0.38527   0.44071   0.00000  Uiso   1.00
C46    C     0.50534   0.43048   0.50474   0.00000  Uiso   1.00
C47    C     0.49427   0.53899   0.50702   0.00000  Uiso   1.00
C48    C     0.48877   0.59101   0.56954   0.00000  Uiso   1.00
C49    C     0.47148   0.69268   0.57031   0.00000  Uiso   1.00
N5     N     0.50537   0.44169   0.38204   0.00000  Uiso   1.00
C50    C     0.49338   0.54457   0.38287   0.00000  Uiso   1.00
C51    C     0.49082   0.59816   0.44501   0.00000  Uiso   1.00
C52    C     0.48322   0.70866   0.44662   0.00000  Uiso   1.00
C53    C     0.46807   0.75031   0.50938   0.00000  Uiso   1.00
H18    H     0.48341   0.58157   0.33385   0.00000  Uiso   1.00
H19    H     0.53997   0.13651   0.49158   0.00000  Uiso   1.00
H20    H     0.46202   0.83492   0.51289   0.00000  Uiso   1.00
H21    H     0.49139   0.38657   0.61484   0.00000  Uiso   1.00
H22    H     0.49781   0.55638   0.61946   0.00000  Uiso   1.00
O9     O     0.57976   0.99838   0.73350   0.00000  Uiso   1.00
O10    O     0.51520   0.89022   0.82605   0.00000  Uiso   1.00
C54    C     0.58249   0.94969   0.79427   0.00000  Uiso   1.00
O11    O     0.41977   0.80574   0.64546   0.00000  Uiso   1.00
O12    O     0.54473   0.78761   0.66776   0.00000  Uiso   1.00
C55    C     0.47458   0.75339   0.63507   0.00000  Uiso   1.00
O13    O     0.49247   0.20861   0.68137   0.00000  Uiso   1.00
O14    O     0.38888   0.96513   0.75590   0.00000  Uiso   1.00
C56    C     0.32331   0.97232   0.72305   0.00000  Uiso   1.00
O15    O     0.49803   0.07098   0.60604   0.00000  Uiso   1.00
C57    C     0.50467   0.17789   0.61873   0.00000  Uiso   1.00
O16    O     0.32389   0.97602   0.65506   0.00000  Uiso   1.00
Fe2    Fe    0.47086   0.96146   0.68550   0.00000  Uiso   1.00
O17    O     0.31224   0.00762   0.86998   0.00000  Uiso   1.00
C58    C     0.35812   0.12049   0.87676   0.00000  Uiso   1.00
C59    C     0.43093   0.13147   0.92219   0.00000  Uiso   1.00
C60    C     0.44653   0.03676   0.95218   0.00000  Uiso   1.00
C61    C     0.51439   0.05113   0.99395   0.00000  Uiso   1.00
C62    C     0.56692   0.15934   0.00591   0.00000  Uiso   1.00
C63    C     0.55161   0.25361   0.97613   0.00000  Uiso   1.00
C64    C     0.48380   0.23964   0.93444   0.00000  Uiso   1.00
H23    H     0.31998   0.16824   0.89986   0.00000  Uiso   1.00
H24    H     0.37914   0.15868   0.82505   0.00000  Uiso   1.00
H25    H     0.40668   0.95071   0.94395   0.00000  Uiso   1.00
H26    H     0.52642   0.97719   0.01738   0.00000  Uiso   1.00
H27    H     0.62007   0.17022   0.03863   0.00000  Uiso   1.00
H28    H     0.59275   0.33857   0.98548   0.00000  Uiso   1.00
H29    H     0.47203   0.31394   0.91125   0.00000  Uiso   1.00
