# generated using pymatgen
data_CuH7(C3O)5
_symmetry_space_group_name_H-M   'P 1'
_cell_length_a   16.54388500
_cell_length_b   16.75718800
_cell_length_c   16.81617800
_cell_angle_alpha   67.87066400
_cell_angle_beta   68.00560100
_cell_angle_gamma   67.92411000
_symmetry_Int_Tables_number   1
_chemical_formula_structural   CuH7(C3O)5
_chemical_formula_sum   'Cu6 H42 C90 O30'
_cell_volume   3851.75375534
_cell_formula_units_Z   6
loop_
 _symmetry_equiv_pos_site_id
 _symmetry_equiv_pos_as_xyz
  1  'x, y, z'
loop_
 _atom_site_type_symbol
 _atom_site_label
 _atom_site_symmetry_multiplicity
 _atom_site_fract_x
 _atom_site_fract_y
 _atom_site_fract_z
 _atom_site_occupancy
  Cu  Cu1  1  0.98013000  0.00972200  0.42697200  1
  Cu  Cu2  1  0.99232400  0.01864100  0.57237300  1
  Cu  Cu3  1  0.00604600  0.42860000  0.98235500  1
  Cu  Cu4  1  0.01751400  0.57503900  0.99088500  1
  Cu  Cu5  1  0.42394100  0.98489100  0.00875700  1
  Cu  Cu6  1  0.57409700  0.99269300  0.01670100  1
  H  H1  1  0.40912200  0.09516200  0.61535300  1
  H  H2  1  0.56607100  0.90294800  0.41205500  1
  H  H3  1  0.91648200  0.67147100  0.46630900  1
  H  H4  1  0.08554500  0.35392300  0.50673300  1
  H  H5  1  0.66961100  0.47458900  0.91710700  1
  H  H6  1  0.35052500  0.50210500  0.08701400  1
  H  H7  1  0.32781800  0.08491300  0.52750900  1
  H  H8  1  0.64735900  0.91486000  0.49855000  1
  H  H9  1  0.58824300  0.38775900  0.90503000  1
  H  H10  1  0.43197900  0.58746300  0.10094700  1
  H  H11  1  0.90771100  0.58784600  0.38096400  1
  H  H12  1  0.09590200  0.43744600  0.59075800  1
  H  H13  1  0.48221600  0.00567200  0.73653500  1
  H  H14  1  0.50174800  0.98545500  0.29172000  1
  H  H15  1  0.00668400  0.73541600  0.48548000  1
  H  H16  1  0.98143000  0.29539300  0.49820700  1
  H  H17  1  0.73083200  0.48672500  0.01262800  1
  H  H18  1  0.29598000  0.50106100  0.97634500  1
  H  H19  1  0.26721000  0.98978900  0.51344300  1
  H  H20  1  0.70145700  0.02483900  0.50151200  1
  H  H21  1  0.51593900  0.26555000  0.99472500  1
  H  H22  1  0.49543500  0.70857300  0.01930200  1
  H  H23  1  0.99662700  0.51465700  0.26401800  1
  H  H24  1  0.01292000  0.50261300  0.70735800  1
  H  H25  1  0.83246000  0.91959000  0.78195400  1
  H  H26  1  0.87694000  0.00173300  0.86167300  1
  H  H27  1  0.76728500  0.16545600  0.84022500  1
  H  H28  1  0.24702000  0.80747400  0.34649100  1
  H  H29  1  0.15623200  0.82743100  0.23541600  1
  H  H30  1  0.14515600  0.99129900  0.12827300  1
  H  H31  1  0.18958900  0.75604100  0.65422800  1
  H  H32  1  0.16935300  0.84277300  0.76768400  1
  H  H33  1  0.00422600  0.85099100  0.87528000  1
  H  H34  1  0.08163000  0.16342000  0.22390400  1
  H  H35  1  0.99893600  0.12460800  0.13955600  1
  H  H36  1  0.83683900  0.23988900  0.15332000  1
  H  H37  1  0.74969900  0.65413600  0.19628200  1
  H  H38  1  0.84209700  0.76420800  0.17597200  1
  H  H39  1  0.85466100  0.87060700  0.01216400  1
  H  H40  1  0.16910300  0.21778800  0.06775900  1
  H  H41  1  0.13196500  0.13899200  0.97906300  1
  H  H42  1  0.24522800  0.16530000  0.81794600  1
  C  C1  1  0.58568500  0.01606700  0.61318400  1
  C  C2  1  0.39104800  0.98534400  0.40959100  1
  C  C3  1  0.01253900  0.61206100  0.58909700  1
  C  C4  1  0.98756000  0.41173500  0.38729600  1
  C  C5  1  0.60653200  0.59060300  0.01850700  1
  C  C6  1  0.41237800  0.38934000  0.98382200  1
  C  C7  1  0.00897000  0.84643000  0.56409400  1
  C  C8  1  0.96964300  0.18067500  0.43184000  1
  C  C9  1  0.84189800  0.56569400  0.01463600  1
  C  C10  1  0.18077400  0.43477500  0.96439500  1
  C  C11  1  0.56207100  0.01187600  0.84568400  1
  C  C12  1  0.43331300  0.97061200  0.17893300  1
  C  C13  1  0.43686800  0.15680200  0.98663700  1
  C  C14  1  0.56400300  0.82161000  0.03342500  1
  C  C15  1  0.99067100  0.43702700  0.15368800  1
  C  C16  1  0.02751500  0.56941000  0.82064900  1
  C  C17  1  0.15588800  0.98744200  0.43509500  1
  C  C18  1  0.81771900  0.03469800  0.56766300  1
  C  C19  1  0.53444400  0.00620400  0.56339000  1
  C  C20  1  0.44063600  0.99317200  0.46254000  1
  C  C21  1  0.00665700  0.56131700  0.53603000  1
  C  C22  1  0.99546000  0.46406000  0.43732900  1
  C  C23  1  0.55706900  0.53803200  0.00998700  1
  C  C24  1  0.46328300  0.43866800  0.99473300  1
  C  C25  1  0.57728100  0.95324500  0.50495300  1
  C  C26  1  0.39760900  0.04579400  0.52149800  1
  C  C27  1  0.05290500  0.47137300  0.54613300  1
  C  C28  1  0.95016000  0.55424000  0.42614900  1
  C  C29  1  0.46691500  0.54499800  0.05649500  1
  C  C30  1  0.55366300  0.43063800  0.94912100  1
  C  C31  1  0.53094400  0.94664900  0.45528300  1
  C  C32  1  0.44389900  0.05185900  0.57168700  1
  C  C33  1  0.42050700  0.49605100  0.04875300  1
  C  C34  1  0.59997900  0.48016000  0.95626000  1
  C  C35  1  0.04716400  0.42347200  0.49778100  1
  C  C36  1  0.95537600  0.60211600  0.47500900  1
  C  C37  1  0.54882100  0.01581300  0.70208900  1
  C  C38  1  0.43294500  0.98064700  0.32227100  1
  C  C39  1  0.01216200  0.70162300  0.55276800  1
  C  C40  1  0.98189300  0.32435000  0.42884800  1
  C  C41  1  0.69652300  0.55391400  0.01883000  1
  C  C42  1  0.32508600  0.43163300  0.97621500  1
  C  C43  1  0.30125800  0.98433300  0.44626300  1
  C  C44  1  0.67295100  0.02360500  0.57102500  1
  C  C45  1  0.44971500  0.30036600  0.98355400  1
  C  C46  1  0.56436000  0.67793800  0.02388300  1
  C  C47  1  0.98741200  0.44841800  0.29822300  1
  C  C48  1  0.01700700  0.57084000  0.67677000  1
  C  C49  1  0.59890700  0.02256500  0.74856100  1
  C  C50  1  0.38761100  0.97046300  0.27337900  1
  C  C51  1  0.01875000  0.74873600  0.60167900  1
  C  C52  1  0.97213300  0.27486300  0.38445500  1
  C  C53  1  0.74359200  0.60261400  0.02612800  1
  C  C54  1  0.27592700  0.38775500  0.96474800  1
  C  C55  1  0.25408300  0.97703800  0.39773100  1
  C  C56  1  0.72296600  0.03328000  0.61513300  1
  C  C57  1  0.40049500  0.25426800  0.97497900  1
  C  C58  1  0.60966700  0.72684300  0.03409800  1
  C  C59  1  0.98097400  0.39923300  0.25117400  1
  C  C60  1  0.02653400  0.61565300  0.72611000  1
  C  C61  1  0.68508900  0.03457200  0.70418300  1
  C  C62  1  0.29821100  0.96544900  0.31295800  1
  C  C63  1  0.03061000  0.70443200  0.68678900  1
  C  C64  1  0.96955300  0.31355400  0.29541900  1
  C  C65  1  0.69923300  0.68733200  0.03854200  1
  C  C66  1  0.31509900  0.29902900  0.96113800  1
  C  C67  1  0.73351500  0.05098500  0.75141300  1
  C  C68  1  0.80287700  0.98795300  0.78584500  1
  C  C69  1  0.82518700  0.02968800  0.82666000  1
  C  C70  1  0.76754900  0.11480100  0.81496500  1
  C  C71  1  0.24990000  0.94591500  0.26796600  1
  C  C72  1  0.22987900  0.86594900  0.29297400  1
  C  C73  1  0.18354000  0.87623300  0.23650600  1
  C  C74  1  0.17821900  0.96179800  0.18127200  1
  C  C75  1  0.04996800  0.75145900  0.73268200  1
  C  C76  1  0.13058400  0.77172500  0.70817500  1
  C  C77  1  0.12017000  0.81596500  0.76587300  1
  C  C78  1  0.03393100  0.81980700  0.82134000  1
  C  C79  1  0.95190300  0.26674200  0.24798600  1
  C  C80  1  0.01381500  0.19600600  0.21636700  1
  C  C81  1  0.97171800  0.17644000  0.17340400  1
  C  C82  1  0.88749300  0.23696300  0.18111600  1
  C  C83  1  0.74759900  0.73237600  0.05802700  1
  C  C84  1  0.76739900  0.70739900  0.13783300  1
  C  C85  1  0.81458300  0.76333600  0.12735600  1
  C  C86  1  0.82064200  0.81820800  0.04181600  1
  C  C87  1  0.26966900  0.25242900  0.93980500  1
  C  C88  1  0.20067700  0.21572400  0.99935900  1
  C  C89  1  0.18224000  0.17543000  0.95419000  1
  C  C90  1  0.24171100  0.18963500  0.87057600  1
  O  O1  1  0.10432600  0.01863200  0.37996700  1
  O  O2  1  0.86080100  0.06306100  0.59920200  1
  O  O3  1  0.01961100  0.38192100  0.10312500  1
  O  O4  1  0.05762800  0.60186300  0.86127600  1
  O  O5  1  0.37949500  0.10733500  0.01795800  1
  O  O6  1  0.59875600  0.86288300  0.06032500  1
  O  O7  1  0.61897300  0.98126300  0.89550300  1
  O  O8  1  0.39858000  0.94311300  0.13817900  1
  O  O9  1  0.89285100  0.62150900  0.98321000  1
  O  O10  1  0.13744500  0.40233400  0.93734100  1
  O  O11  1  0.97979600  0.89708700  0.61912900  1
  O  O12  1  0.93862300  0.13984000  0.40047800  1
  O  O13  1  0.02424100  0.88072800  0.47664900  1
  O  O14  1  0.00347600  0.13881100  0.50159200  1
  O  O15  1  0.87624300  0.47810900  0.02931300  1
  O  O16  1  0.14037200  0.50448500  0.99772500  1
  O  O17  1  0.47332200  0.02846100  0.88018200  1
  O  O18  1  0.50444200  0.00335000  0.13683000  1
  O  O19  1  0.52548900  0.12164300  0.97122100  1
  O  O20  1  0.49314800  0.86354000  0.00028800  1
  O  O21  1  0.97494200  0.52485700  0.11949300  1
  O  O22  1  0.99382300  0.49940700  0.86283200  1
  O  O23  1  0.12213100  0.97216200  0.52244000  1
  O  O24  1  0.85789600  0.00164900  0.49795700  1
  O  O25  1  0.71104400  0.12812100  0.76958600  1
  O  O26  1  0.21823800  0.00492700  0.20029000  1
  O  O27  1  0.99050200  0.78082300  0.80133300  1
  O  O28  1  0.87513400  0.29268400  0.22600100  1
  O  O29  1  0.78026800  0.79947500  0.99888000  1
  O  O30  1  0.29572200  0.23599700  0.86151700  1
