# Generated by REPEAT Assigner based on pymatgen
data_DB0-m3_o12_o13_f0_pcu.sym.19_sqe
_audit_creation_date              2022-05-24
_audit_creation_method            REPEAT_Assigner
_cell_length_a                    10.149785
_cell_length_b                    11.340467
_cell_length_c                    13.141348
_cell_angle_alpha                 91.099311
_cell_angle_beta                  93.950330
_cell_angle_gamma                 92.461739
_cell_volume                      1507.254052
_symmetry_space_group_name_H-M    P1
_symmetry_Int_Tables_number       1
loop_
    _symmetry_equiv_pos_site_id
    _symmetry_equiv_pos_as_xyz
    1  x,y,z
loop_
    _atom_site_type_symbol
    _atom_site_label
    _atom_site_fract_x
    _atom_site_fract_y
    _atom_site_fract_z
    _atom_type_partial_charge
    O   O1   0.573827  0.311732  0.508095  -0.637569
    O   O2   0.426173  0.688268  0.491905  -0.637759
    O   O3   0.350754  0.340335  0.482730  -0.650648
    O   O4   0.649246  0.659665  0.517270  -0.650508
    C   C1   0.450872  0.271155  0.494043  0.668603
    C   C2   0.549128  0.728844  0.505957  0.668695
    O   O5   0.595175  0.488188  0.662786  -0.635793
    O   O6   0.404825  0.511812  0.337214  -0.635644
    O   O7   0.372273  0.516930  0.637694  -0.659746
    O   O8   0.627727  0.483070  0.362306  -0.659973
    C   C3   0.479041  0.503277  0.697880  0.819452
    C   C4   0.520959  0.496723  0.302120  0.819452
    Zn  Zn1  0.647056  0.480892  0.516764  1.042940
    Zn  Zn2  0.352944  0.519108  0.483237  1.042888
    C   C5   0.532897  0.495138  0.190951  -0.250584
    C   C6   0.467103  0.504862  0.809050  -0.250725
    C   C7   0.330714  0.522997  0.949741  0.299383
    C   C8   0.669286  0.477003  0.050259  0.299336
    C   C9   0.345267  0.521245  0.846410  -0.200883
    C   C10  0.654733  0.478755  0.153590  -0.200795
    C   C11  0.575539  0.490079  0.877219  0.332085
    C   C12  0.424461  0.509921  0.122781  0.331778
    C   C13  0.561370  0.491753  0.981713  -0.112904
    C   C14  0.438630  0.508247  0.018287  -0.112777
    H   H1   0.741069  0.466981  0.204560  0.151957
    H   H2   0.258931  0.533019  0.795440  0.152031
    C   C15  0.421400  0.142899  0.490619  0.067797
    C   C16  0.578600  0.857101  0.509382  0.067572
    C   C17  0.516525  0.064331  0.501867  0.138302
    C   C18  0.483475  0.935669  0.498133  0.138655
    N   N1   0.159594  0.545293  0.460286  0.037032
    N   N2   0.840406  0.454707  0.539714  0.036955
    C   C19  0.071735  0.489237  0.509012  0.247019
    C   C20  0.928265  0.510763  0.490989  0.247062
    F   F1   0.304109  0.526188  0.158144  -0.165796
    F   F2   0.695891  0.473812  0.841857  -0.165913
    F   F3   0.208651  0.539419  0.981881  -0.176456
    F   F4   0.791349  0.460581  0.018119  -0.176405
    F   F5   0.355000  0.897193  0.483033  -0.116092
    F   F6   0.645000  0.102807  0.516967  -0.116000
    F   F7   0.707445  0.894316  0.524421  -0.136772
    F   F8   0.292555  0.105684  0.475579  -0.136811
    F   F9   0.886458  0.590991  0.421937  -0.041640
    F   F10  0.113543  0.409012  0.578065  -0.041678
    F   F11  0.882378  0.375631  0.607178  -0.019545
    F   F12  0.117621  0.624366  0.392820  -0.019582
