# generated using pymatgen
data_Cu3C42(Br4O3)4
_symmetry_space_group_name_H-M   'P 1'
_cell_length_a   31.99237400
_cell_length_b   31.99237400
_cell_length_c   29.85948900
_cell_angle_alpha   90.00000000
_cell_angle_beta   90.00000000
_cell_angle_gamma   90.00000000
_symmetry_Int_Tables_number   1
_chemical_formula_structural   Cu3C42(Br4O3)4
_chemical_formula_sum   'Cu12 C168 Br64 O48'
_cell_volume   30561.54513087
_cell_formula_units_Z   4
loop_
 _symmetry_equiv_pos_site_id
 _symmetry_equiv_pos_as_xyz
  1  'x, y, z'
loop_
 _atom_site_type_symbol
 _atom_site_label
 _atom_site_symmetry_multiplicity
 _atom_site_fract_x
 _atom_site_fract_y
 _atom_site_fract_z
 _atom_site_occupancy
  Cu  Cu1  1  0.50026200  0.95878200  0.00001600  1
  Cu  Cu2  1  0.95878300  0.50026100  0.99998400  1
  Cu  Cu3  1  0.50024800  0.04070900  0.99998400  1
  Cu  Cu4  1  0.04071000  0.50024700  0.00001600  1
  Cu  Cu5  1  0.00026100  0.45878300  0.50001600  1
  Cu  Cu6  1  0.45878300  0.00026100  0.49998400  1
  Cu  Cu7  1  0.00024700  0.54071000  0.49998400  1
  Cu  Cu8  1  0.54071000  0.00024700  0.50001600  1
  Cu  Cu9  1  0.00029300  0.00022200  0.04461300  1
  Cu  Cu10  1  0.00022300  0.00029300  0.95538700  1
  Cu  Cu11  1  0.50029200  0.50022200  0.54461300  1
  Cu  Cu12  1  0.50022200  0.50029200  0.45538700  1
  C  C1  1  0.42105900  0.99973000  0.99996900  1
  C  C2  1  0.99975800  0.57945100  0.99996900  1
  C  C3  1  0.57945100  0.99975700  0.00003100  1
  C  C4  1  0.99973100  0.42105900  0.00003100  1
  C  C5  1  0.92106100  0.49973100  0.49996900  1
  C  C6  1  0.49975800  0.07945200  0.49996900  1
  C  C7  1  0.07945200  0.49975700  0.50003100  1
  C  C8  1  0.49973100  0.92106000  0.50003100  1
  C  C9  1  0.50020700  0.99978300  0.08499300  1
  C  C10  1  0.99971400  0.50026700  0.08499400  1
  C  C11  1  0.50026700  0.99971400  0.91500600  1
  C  C12  1  0.99978400  0.50020600  0.91500700  1
  C  C13  1  0.00020700  0.49978400  0.58499300  1
  C  C14  1  0.49971400  0.00026700  0.58499400  1
  C  C15  1  0.00026700  0.49971400  0.41500600  1
  C  C16  1  0.49978400  0.00020600  0.41500700  1
  C  C17  1  0.47887300  0.03085900  0.34337500  1
  C  C18  1  0.03093400  0.52074800  0.34342800  1
  C  C19  1  0.52085300  0.96937100  0.34352200  1
  C  C20  1  0.96944700  0.47876700  0.34346800  1
  C  C21  1  0.47876700  0.96944600  0.65653200  1
  C  C22  1  0.03085900  0.47887300  0.65662500  1
  C  C23  1  0.52074800  0.03093400  0.65657200  1
  C  C24  1  0.96937100  0.52085300  0.65647800  1
  C  C25  1  0.97887300  0.53085800  0.84337500  1
  C  C26  1  0.53093400  0.02074700  0.84342800  1
  C  C27  1  0.02085300  0.46937100  0.84352200  1
  C  C28  1  0.46944700  0.97876700  0.84346800  1
  C  C29  1  0.97876700  0.46944600  0.15653200  1
  C  C30  1  0.53085900  0.97887300  0.15662500  1
  C  C31  1  0.02074800  0.53093400  0.15657200  1
  C  C32  1  0.46937100  0.02085300  0.15647800  1
  C  C33  1  0.49982800  0.00013700  0.36601600  1
  C  C34  1  0.00023700  0.49970700  0.36601600  1
  C  C35  1  0.49970700  0.00023700  0.63398400  1
  C  C36  1  0.00013800  0.49982700  0.63398400  1
  C  C37  1  0.99982700  0.50013800  0.86601600  1
  C  C38  1  0.50023700  0.99970700  0.86601600  1
  C  C39  1  0.99970700  0.50023700  0.13398400  1
  C  C40  1  0.50013800  0.99982700  0.13398400  1
  C  C41  1  0.52508700  0.97193800  0.29698900  1
  C  C42  1  0.97196600  0.47470900  0.29691500  1
  C  C43  1  0.47478400  0.02819200  0.29683000  1
  C  C44  1  0.02822100  0.52501200  0.29690400  1
  C  C45  1  0.52501200  0.02822000  0.70309700  1
  C  C46  1  0.97193800  0.52508700  0.70301100  1
  C  C47  1  0.47470900  0.97196600  0.70308500  1
  C  C48  1  0.02819200  0.47478400  0.70317000  1
  C  C49  1  0.02508700  0.47193700  0.79698900  1
  C  C50  1  0.47196600  0.97470900  0.79691500  1
  C  C51  1  0.97478400  0.52819200  0.79683000  1
  C  C52  1  0.52822100  0.02501100  0.79690400  1
  C  C53  1  0.02501200  0.52822000  0.20309600  1
  C  C54  1  0.47193800  0.02508700  0.20301100  1
  C  C55  1  0.97470900  0.47196600  0.20308600  1
  C  C56  1  0.52819200  0.97478400  0.20317100  1
  C  C57  1  0.49996800  0.00003300  0.27344300  1
  C  C58  1  0.00003600  0.49991900  0.27344300  1
  C  C59  1  0.49991900  0.00003600  0.72655700  1
  C  C60  1  0.00003300  0.49996800  0.72655700  1
  C  C61  1  0.99996800  0.50003300  0.77344300  1
  C  C62  1  0.50003600  0.99991900  0.77344300  1
  C  C63  1  0.99991900  0.50003600  0.22655700  1
  C  C64  1  0.50003400  0.99996800  0.22655700  1
  C  C65  1  0.55268100  0.94672500  0.27304500  1
  C  C66  1  0.94671600  0.44721700  0.27288300  1
  C  C67  1  0.44728200  0.05336500  0.27271800  1
  C  C68  1  0.05335600  0.55261800  0.27288000  1
  C  C69  1  0.55261800  0.05335600  0.72712000  1
  C  C70  1  0.94672600  0.55268100  0.72695500  1
  C  C71  1  0.44721800  0.94671600  0.72711700  1
  C  C72  1  0.05336600  0.44728100  0.72728200  1
  C  C73  1  0.05268100  0.44672500  0.77304500  1
  C  C74  1  0.44671600  0.94721700  0.77288300  1
  C  C75  1  0.94728100  0.55336500  0.77271800  1
  C  C76  1  0.55335600  0.05261700  0.77288000  1
  C  C77  1  0.05261800  0.55335600  0.22712000  1
  C  C78  1  0.44672600  0.05268100  0.22695500  1
  C  C79  1  0.94721700  0.44671600  0.22711700  1
  C  C80  1  0.55336600  0.94728100  0.22728300  1
  C  C81  1  0.22923800  0.02502900  0.97034300  1
  C  C82  1  0.02509900  0.77128500  0.97036300  1
  C  C83  1  0.77138000  0.97458900  0.97073600  1
  C  C84  1  0.97454000  0.22914400  0.97073500  1
  C  C85  1  0.22914500  0.97453900  0.02926600  1
  C  C86  1  0.02502900  0.22923700  0.02965700  1
  C  C87  1  0.77128600  0.02509900  0.02963700  1
  C  C88  1  0.97458900  0.77137900  0.02926400  1
  C  C89  1  0.72923700  0.52502900  0.47034300  1
  C  C90  1  0.52509900  0.27128500  0.47036300  1
  C  C91  1  0.27137900  0.47458900  0.47073600  1
  C  C92  1  0.47453900  0.72914400  0.47073400  1
  C  C93  1  0.72914400  0.47453900  0.52926600  1
  C  C94  1  0.52502900  0.72923700  0.52965700  1
  C  C95  1  0.27128500  0.52509900  0.52963700  1
  C  C96  1  0.47459000  0.27137900  0.52926400  1
  C  C97  1  0.20764100  0.99981700  0.99979800  1
  C  C98  1  0.99987700  0.79288400  0.99980600  1
  C  C99  1  0.79288400  0.99987700  0.00019400  1
  C  C100  1  0.99981700  0.20764100  0.00020300  1
  C  C101  1  0.70764200  0.49981700  0.49979800  1
  C  C102  1  0.49987700  0.29288500  0.49980600  1
  C  C103  1  0.29288500  0.49987700  0.50019400  1
  C  C104  1  0.49981700  0.70764200  0.50020200  1
  C  C105  1  0.27223100  0.97451800  0.02931400  1
  C  C106  1  0.97456700  0.72829100  0.02931200  1
  C  C107  1  0.72820100  0.02501300  0.02964100  1
  C  C108  1  0.02494500  0.27232000  0.02966000  1
  C  C109  1  0.27232100  0.02494500  0.97034000  1
  C  C110  1  0.97451800  0.27223100  0.97068600  1
  C  C111  1  0.72829200  0.97456700  0.97068800  1
  C  C112  1  0.02501300  0.72820000  0.97035900  1
  C  C113  1  0.77223100  0.47451800  0.52931400  1
  C  C114  1  0.47456700  0.22829100  0.52931200  1
  C  C115  1  0.22820000  0.52501300  0.52964100  1
  C  C116  1  0.52494500  0.77232000  0.52966000  1
  C  C117  1  0.77232000  0.52494500  0.47034000  1
  C  C118  1  0.47451800  0.77223100  0.47068600  1
  C  C119  1  0.22829100  0.47456700  0.47068800  1
  C  C120  1  0.52501400  0.22820000  0.47035900  1
  C  C121  1  0.29381100  0.99971400  0.99984600  1
  C  C122  1  0.99977200  0.70670800  0.99985400  1
  C  C123  1  0.70670800  0.99977100  0.00014600  1
  C  C124  1  0.99971500  0.29381100  0.00015400  1
  C  C125  1  0.79381200  0.49971500  0.49984600  1
  C  C126  1  0.49977200  0.20670900  0.49985400  1
  C  C127  1  0.20670900  0.49977200  0.50014600  1
  C  C128  1  0.49971500  0.79381200  0.50015400  1
  C  C129  1  0.16280400  0.99997500  0.99984700  1
  C  C130  1  0.00002900  0.83772400  0.99985100  1
  C  C131  1  0.83772500  0.00002800  0.00014900  1
  C  C132  1  0.99997500  0.16280400  0.00015300  1
  C  C133  1  0.66280400  0.49997500  0.49984700  1
  C  C134  1  0.50002900  0.33772400  0.49985100  1
  C  C135  1  0.33772400  0.50002800  0.50014900  1
  C  C136  1  0.49997500  0.66280400  0.50015300  1
  C  C137  1  0.33863200  0.99970900  0.99990200  1
  C  C138  1  0.99975900  0.66188400  0.99990600  1
  C  C139  1  0.66188500  0.99975900  0.00009400  1
  C  C140  1  0.99970900  0.33863100  0.00009800  1
  C  C141  1  0.83863100  0.49970900  0.49990200  1
  C  C142  1  0.49975900  0.16188400  0.49990600  1
  C  C143  1  0.16188400  0.49975900  0.50009400  1
  C  C144  1  0.49970900  0.83863100  0.50009800  1
  C  C145  1  0.37627600  0.99971900  0.99993900  1
  C  C146  1  0.99976000  0.62423800  0.99994100  1
  C  C147  1  0.62423900  0.99976000  0.00005900  1
  C  C148  1  0.99971900  0.37627500  0.00006100  1
  C  C149  1  0.87627500  0.49971900  0.49993900  1
  C  C150  1  0.49976000  0.12423800  0.49994100  1
  C  C151  1  0.12423800  0.49976000  0.50005900  1
  C  C152  1  0.49971900  0.87627500  0.50006100  1
  C  C153  1  0.12514800  0.00019700  0.99988700  1
  C  C154  1  0.00024000  0.87538300  0.99988700  1
  C  C155  1  0.87538300  0.00023900  0.00011300  1
  C  C156  1  0.00019700  0.12514800  0.00011400  1
  C  C157  1  0.62514700  0.50019700  0.49988700  1
  C  C158  1  0.50024000  0.37538200  0.49988700  1
  C  C159  1  0.37538200  0.50023900  0.50011300  1
  C  C160  1  0.50019700  0.62514700  0.50011400  1
  C  C161  1  0.00059100  0.08034000  0.00007200  1
  C  C162  1  0.08034000  0.00059000  0.99992800  1
  C  C163  1  0.00061100  0.92019400  0.99992800  1
  C  C164  1  0.92019400  0.00061100  0.00007200  1
  C  C165  1  0.50059100  0.58034000  0.50007200  1
  C  C166  1  0.58034100  0.50059100  0.49992800  1
  C  C167  1  0.50061100  0.42019400  0.49992800  1
  C  C168  1  0.42019500  0.50061100  0.50007200  1
  Br  Br1  1  0.46385600  0.07798400  0.37959100  1
  Br  Br2  1  0.07807500  0.53566900  0.37966700  1
  Br  Br3  1  0.53573300  0.92229500  0.37987400  1
  Br  Br4  1  0.92238900  0.46378700  0.37980000  1
  Br  Br5  1  0.46378700  0.92238900  0.62020000  1
  Br  Br6  1  0.07798400  0.46385600  0.62040900  1
  Br  Br7  1  0.53566900  0.07807500  0.62033300  1
  Br  Br8  1  0.92229500  0.53573300  0.62012600  1
  Br  Br9  1  0.96385600  0.57798400  0.87959100  1
  Br  Br10  1  0.57807500  0.03566900  0.87966700  1
  Br  Br11  1  0.03573300  0.42229500  0.87987400  1
  Br  Br12  1  0.42238900  0.96378600  0.87980000  1
  Br  Br13  1  0.96378700  0.42238900  0.12020000  1
  Br  Br14  1  0.57798400  0.96385600  0.12040900  1
  Br  Br15  1  0.03566900  0.57807500  0.12033300  1
  Br  Br16  1  0.42229500  0.03573300  0.12012600  1
  Br  Br17  1  0.59715800  0.91385700  0.29763300  1
  Br  Br18  1  0.91386100  0.40265600  0.29731600  1
  Br  Br19  1  0.40278900  0.08637800  0.29704600  1
  Br  Br20  1  0.08638500  0.59702600  0.29736100  1
  Br  Br21  1  0.59702600  0.08638400  0.70263900  1
  Br  Br22  1  0.91385700  0.59715800  0.70236700  1
  Br  Br23  1  0.40265600  0.91386100  0.70268400  1
  Br  Br24  1  0.08637800  0.40278800  0.70295400  1
  Br  Br25  1  0.09715800  0.41385700  0.79763300  1
  Br  Br26  1  0.41386200  0.90265600  0.79731600  1
  Br  Br27  1  0.90278800  0.58637800  0.79704600  1
  Br  Br28  1  0.58638500  0.09702500  0.79736200  1
  Br  Br29  1  0.09702600  0.58638500  0.20263900  1
  Br  Br30  1  0.41385700  0.09715800  0.20236700  1
  Br  Br31  1  0.90265600  0.41386100  0.20268400  1
  Br  Br32  1  0.58637900  0.90278800  0.20295400  1
  Br  Br33  1  0.30212800  0.05974900  0.92955100  1
  Br  Br34  1  0.05983000  0.69839300  0.92958200  1
  Br  Br35  1  0.69860800  0.93971000  0.92984700  1
  Br  Br36  1  0.93967900  0.30191700  0.92983000  1
  Br  Br37  1  0.30191800  0.93967900  0.07017100  1
  Br  Br38  1  0.05975000  0.30212700  0.07044900  1
  Br  Br39  1  0.69839400  0.05983000  0.07041800  1
  Br  Br40  1  0.93971000  0.69860700  0.07015300  1
  Br  Br41  1  0.80212800  0.55975000  0.42955100  1
  Br  Br42  1  0.55983000  0.19839300  0.42958200  1
  Br  Br43  1  0.19860700  0.43971000  0.42984700  1
  Br  Br44  1  0.43967900  0.80191700  0.42982900  1
  Br  Br45  1  0.80191700  0.43967900  0.57017100  1
  Br  Br46  1  0.55975000  0.80212700  0.57044900  1
  Br  Br47  1  0.19839400  0.55983000  0.57041800  1
  Br  Br48  1  0.43971100  0.19860700  0.57015300  1
  Br  Br49  1  0.19960500  0.06006900  0.92964400  1
  Br  Br50  1  0.06015300  0.80091500  0.92967500  1
  Br  Br51  1  0.80114200  0.93966800  0.93002900  1
  Br  Br52  1  0.93963400  0.19938200  0.93001200  1
  Br  Br53  1  0.19938200  0.93963400  0.06998800  1
  Br  Br54  1  0.06007000  0.19960500  0.07035600  1
  Br  Br55  1  0.80091600  0.06015200  0.07032500  1
  Br  Br56  1  0.93966800  0.80114100  0.06997100  1
  Br  Br57  1  0.69960500  0.56006900  0.42964400  1
  Br  Br58  1  0.56015300  0.30091600  0.42967500  1
  Br  Br59  1  0.30114200  0.43966800  0.43002900  1
  Br  Br60  1  0.43963400  0.69938200  0.43001200  1
  Br  Br61  1  0.69938200  0.43963400  0.56998800  1
  Br  Br62  1  0.56006900  0.69960500  0.57035600  1
  Br  Br63  1  0.30091600  0.56015200  0.57032500  1
  Br  Br64  1  0.43966800  0.30114100  0.56997100  1
  O  O1  1  0.44053900  0.96507500  0.98824700  1
  O  O2  1  0.96510400  0.55998200  0.98821900  1
  O  O3  1  0.55998000  0.03440800  0.98826700  1
  O  O4  1  0.03439600  0.44051800  0.98829500  1
  O  O5  1  0.44051800  0.03439600  0.01170500  1
  O  O6  1  0.96507500  0.44053800  0.01175300  1
  O  O7  1  0.55998300  0.96510300  0.01178100  1
  O  O8  1  0.03440800  0.55997900  0.01173300  1
  O  O9  1  0.94053800  0.46507500  0.48824700  1
  O  O10  1  0.46510400  0.05998200  0.48821900  1
  O  O11  1  0.05997900  0.53440800  0.48826700  1
  O  O12  1  0.53439600  0.94051700  0.48829500  1
  O  O13  1  0.94051800  0.53439600  0.51170500  1
  O  O14  1  0.46507500  0.94053800  0.51175300  1
  O  O15  1  0.05998200  0.46510300  0.51178100  1
  O  O16  1  0.53440800  0.05997900  0.51173300  1
  O  O17  1  0.48929300  0.96510200  0.06402600  1
  O  O18  1  0.96505900  0.51122300  0.06400000  1
  O  O19  1  0.51116700  0.03443800  0.06400700  1
  O  O20  1  0.03438800  0.48932500  0.06403400  1
  O  O21  1  0.48932600  0.03438800  0.93596600  1
  O  O22  1  0.96510200  0.48929300  0.93597400  1
  O  O23  1  0.51122300  0.96505800  0.93600000  1
  O  O24  1  0.03443900  0.51116700  0.93599300  1
  O  O25  1  0.98929300  0.46510200  0.56402600  1
  O  O26  1  0.46505900  0.01122300  0.56400000  1
  O  O27  1  0.01116700  0.53443900  0.56400700  1
  O  O28  1  0.53438800  0.98932600  0.56403300  1
  O  O29  1  0.98932600  0.53438800  0.43596700  1
  O  O30  1  0.46510200  0.98929300  0.43597400  1
  O  O31  1  0.01122300  0.46505900  0.43600000  1
  O  O32  1  0.53443900  0.01116700  0.43599300  1
  O  O33  1  0.99873800  0.06089500  0.03864000  1
  O  O34  1  0.06095600  0.99866100  0.03852800  1
  O  O35  1  0.99872300  0.93954900  0.03861800  1
  O  O36  1  0.93961100  0.99867600  0.03872500  1
  O  O37  1  0.99867700  0.93961000  0.96127500  1
  O  O38  1  0.06089500  0.99873700  0.96136000  1
  O  O39  1  0.99866200  0.06095500  0.96147200  1
  O  O40  1  0.93955000  0.99872300  0.96138200  1
  O  O41  1  0.49873800  0.56089500  0.53864000  1
  O  O42  1  0.56095500  0.49866100  0.53852800  1
  O  O43  1  0.49872300  0.43954900  0.53861800  1
  O  O44  1  0.43961000  0.49867700  0.53872500  1
  O  O45  1  0.49867700  0.43961000  0.46127500  1
  O  O46  1  0.56089500  0.49873700  0.46136000  1
  O  O47  1  0.49866100  0.56095500  0.46147200  1
  O  O48  1  0.43954900  0.49872300  0.46138200  1
