# generated using pymatgen
data_CuH6C22N7O4
_symmetry_space_group_name_H-M   'P 1'
_cell_length_a   19.29541700
_cell_length_b   13.09852600
_cell_length_c   11.59737200
_cell_angle_alpha   99.74655600
_cell_angle_beta   94.20681800
_cell_angle_gamma   89.99874100
_symmetry_Int_Tables_number   1
_chemical_formula_structural   CuH6C22N7O4
_chemical_formula_sum   'Cu2 H12 C44 N14 O8'
_cell_volume   2880.81773375
_cell_formula_units_Z   2
loop_
 _symmetry_equiv_pos_site_id
 _symmetry_equiv_pos_as_xyz
  1  'x, y, z'
loop_
 _atom_site_type_symbol
 _atom_site_label
 _atom_site_symmetry_multiplicity
 _atom_site_fract_x
 _atom_site_fract_y
 _atom_site_fract_z
 _atom_site_occupancy
  Cu  Cu1  1  0.50406500  0.50978700  0.61714900  1
  Cu  Cu2  1  0.49571800  0.49067700  0.38301300  1
  H  H1  1  0.28740500  0.51779000  0.68143100  1
  H  H2  1  0.71359000  0.48387800  0.31743900  1
  H  H3  1  0.16234800  0.51740100  0.67777100  1
  H  H4  1  0.83876900  0.48591800  0.32167600  1
  H  H5  1  0.27484700  0.48567700  0.30768300  1
  H  H6  1  0.72562900  0.51580400  0.69174500  1
  H  H7  1  0.53708700  0.83641900  0.70966300  1
  H  H8  1  0.46140100  0.16254000  0.29040800  1
  H  H9  1  0.45370000  0.97976900  0.26635000  1
  H  H10  1  0.54727100  0.01896000  0.73268400  1
  H  H11  1  0.40220700  0.34439200  0.97015200  1
  H  H12  1  0.60178100  0.64938800  0.02939800  1
  C  C1  1  0.49975200  0.30100300  0.48292900  1
  C  C2  1  0.49985700  0.69904500  0.51700400  1
  C  C3  1  0.36645000  0.50064300  0.49618100  1
  C  C4  1  0.63350500  0.49927400  0.50327100  1
  C  C5  1  0.25774500  0.50951000  0.59766400  1
  C  C6  1  0.74277700  0.49094700  0.40142000  1
  C  C7  1  0.18623900  0.50874300  0.59535700  1
  C  C8  1  0.81447200  0.49262400  0.40404200  1
  C  C9  1  0.14585900  0.50008900  0.49031400  1
  C  C10  1  0.85475500  0.50073800  0.50929100  1
  C  C11  1  0.17887200  0.49180300  0.38629300  1
  C  C12  1  0.82161200  0.50852700  0.61301100  1
  C  C13  1  0.25048200  0.49237400  0.38940700  1
  C  C14  1  0.74992800  0.50805700  0.60976700  1
  C  C15  1  0.29034100  0.50083000  0.49436400  1
  C  C16  1  0.70988900  0.49899800  0.50471600  1
  C  C17  1  0.93116500  0.50221500  0.50659100  1
  C  C18  1  0.06961200  0.49968300  0.49392900  1
  C  C19  1  0.50129800  0.81310100  0.52737000  1
  C  C20  1  0.49834500  0.18646700  0.47230300  1
  C  C21  1  0.47098100  0.02094500  0.35249200  1
  C  C22  1  0.52963600  0.97793200  0.64674900  1
  C  C23  1  0.47587700  0.12716800  0.36575800  1
  C  C24  1  0.52360600  0.87197500  0.63402500  1
  C  C25  1  0.51888600  0.13573500  0.56545800  1
  C  C26  1  0.48154300  0.86331500  0.43364400  1
  C  C27  1  0.51258500  0.02829600  0.55276500  1
  C  C28  1  0.48816000  0.97056400  0.44632600  1
  C  C29  1  0.43751800  0.40244600  0.01900800  1
  C  C30  1  0.56322300  0.59600900  0.98081000  1
  C  C31  1  0.44260800  0.41022300  0.13918900  1
  C  C32  1  0.55678400  0.59028500  0.86117400  1
  C  C33  1  0.52978400  0.53682500  0.15543800  1
  C  C34  1  0.46999900  0.46315100  0.84483700  1
  C  C35  1  0.52290700  0.53378200  0.03465200  1
  C  C36  1  0.47664400  0.46659200  0.96565500  1
  C  C37  1  0.14116400  0.47874100  0.27319200  1
  C  C38  1  0.85913000  0.52217500  0.72624000  1
  C  C39  1  0.44996100  0.80620300  0.32554800  1
  C  C40  1  0.55034800  0.19279000  0.67339000  1
  C  C41  1  0.41955900  0.39285700  0.77643300  1
  C  C42  1  0.58038800  0.60647100  0.22458300  1
  C  C43  1  0.60287900  0.65478900  0.81268300  1
  C  C44  1  0.39696900  0.34495800  0.18726300  1
  N  N1  1  0.02787500  0.52990500  0.40824700  1
  N  N2  1  0.97297300  0.47228000  0.59255600  1
  N  N3  1  0.95970400  0.53068200  0.41422800  1
  N  N4  1  0.04116100  0.47155000  0.58654500  1
  N  N5  1  0.50998500  0.52465300  0.79264700  1
  N  N6  1  0.48947400  0.47528900  0.20741400  1
  N  N7  1  0.11116700  0.46822600  0.18171600  1
  N  N8  1  0.88919000  0.53314800  0.81764700  1
  N  N9  1  0.42437300  0.76030600  0.23890400  1
  N  N10  1  0.57591300  0.23867600  0.76005000  1
  N  N11  1  0.37874200  0.33550300  0.72253000  1
  N  N12  1  0.62147800  0.66272300  0.27913600  1
  N  N13  1  0.64079600  0.70682500  0.77532500  1
  N  N14  1  0.35964800  0.29170900  0.22472100  1
  O  O1  1  0.50557100  0.35859800  0.58707600  1
  O  O2  1  0.49519500  0.64140000  0.41288500  1
  O  O3  1  0.49275900  0.34167900  0.38666500  1
  O  O4  1  0.50583200  0.65841600  0.61327000  1
  O  O5  1  0.40267300  0.50559000  0.59693300  1
  O  O6  1  0.59713100  0.48739700  0.40193300  1
  O  O7  1  0.39550100  0.48987900  0.39684000  1
  O  O8  1  0.60435100  0.50623000  0.60265800  1
