# generated using pymatgen
data_Cu2H19C37N3O8
_symmetry_space_group_name_H-M   'P 1'
_cell_length_a   11.54609200
_cell_length_b   12.96115400
_cell_length_c   13.56771700
_cell_angle_alpha   91.38695100
_cell_angle_beta   78.76286600
_cell_angle_gamma   99.48863600
_symmetry_Int_Tables_number   1
_chemical_formula_structural   Cu2H19C37N3O8
_chemical_formula_sum   'Cu2 H19 C37 N3 O8'
_cell_volume   1964.18020820
_cell_formula_units_Z   1
loop_
 _symmetry_equiv_pos_site_id
 _symmetry_equiv_pos_as_xyz
  1  'x, y, z'
loop_
 _atom_site_type_symbol
 _atom_site_label
 _atom_site_symmetry_multiplicity
 _atom_site_fract_x
 _atom_site_fract_y
 _atom_site_fract_z
 _atom_site_occupancy
  Cu  Cu1  1  0.38145900  0.48688100  0.49531300  1
  Cu  Cu2  1  0.61387100  0.50474500  0.50197600  1
  H  H1  1  0.71630800  0.37629100  0.20273400  1
  H  H2  1  0.67558400  0.32409500  0.87105900  1
  H  H3  1  0.74034300  0.32919500  0.02588800  1
  H  H4  1  0.43494200  0.53772100  0.17570800  1
  H  H5  1  0.36056600  0.61248700  0.07821000  1
  H  H6  1  0.26880600  0.68601100  0.96260200  1
  H  H7  1  0.55819300  0.37952800  0.76229400  1
  H  H8  1  0.65265800  0.17986700  0.49567400  1
  H  H9  1  0.27242400  0.15553000  0.53269300  1
  H  H10  1  0.74176700  0.02523300  0.47524000  1
  H  H11  1  0.25392300  0.96635300  0.52166900  1
  H  H12  1  0.72318700  0.83601300  0.46432200  1
  H  H13  1  0.34300400  0.81191300  0.50096200  1
  H  H14  1  0.17953400  0.60499300  0.57842000  1
  H  H15  1  0.21561100  0.34223300  0.39445900  1
  H  H16  1  0.98937800  0.66642900  0.61967600  1
  H  H17  1  0.00625200  0.32496600  0.37703600  1
  H  H18  1  0.77974400  0.64896700  0.60311600  1
  H  H19  1  0.81556700  0.38725800  0.41691700  1
  C  C1  1  0.51957100  0.69563100  0.48180200  1
  C  C2  1  0.44725700  0.51297600  0.69143900  1
  C  C3  1  0.47578900  0.29591800  0.51541600  1
  C  C4  1  0.54786800  0.47834900  0.30660900  1
  C  C5  1  0.67442400  0.37751600  0.05695800  1
  C  C6  1  0.57320300  0.46087000  0.19803900  1
  C  C7  1  0.34682400  0.60415300  0.83641500  1
  C  C8  1  0.32503800  0.62814600  0.93633800  1
  C  C9  1  0.37925900  0.58478500  0.00250400  1
  C  C10  1  0.45720700  0.51427200  0.96999800  1
  C  C11  1  0.47563200  0.48593800  0.86869100  1
  C  C12  1  0.51997800  0.47401600  0.03548400  1
  C  C13  1  0.60331500  0.41066100  0.99724300  1
  C  C14  1  0.61484900  0.37788300  0.89936400  1
  C  C15  1  0.54894300  0.41205900  0.83666500  1
  C  C16  1  0.50282300  0.49513200  0.13826300  1
  C  C17  1  0.66159400  0.40463100  0.15656800  1
  C  C18  1  0.42040700  0.53143100  0.80102500  1
  C  C19  1  0.46405600  0.18138500  0.51555900  1
  C  C20  1  0.53154700  0.81020100  0.48146600  1
  C  C21  1  0.65401200  0.97859900  0.48067900  1
  C  C22  1  0.64317300  0.87121700  0.47423200  1
  C  C23  1  0.43109100  0.85810200  0.49446400  1
  C  C24  1  0.44218300  0.96566600  0.50172400  1
  C  C25  1  0.55353100  0.02598600  0.49512300  1
  C  C26  1  0.56459200  0.13356300  0.50240200  1
  C  C27  1  0.35247000  0.12035100  0.52267500  1
  C  C28  1  0.34168000  0.01300200  0.51616900  1
  C  C29  1  0.95260400  0.60461200  0.57421700  1
  C  C30  1  0.83462900  0.59483400  0.56450800  1
  C  C31  1  0.85458800  0.44912100  0.46108500  1
  C  C32  1  0.97286600  0.45657300  0.47006100  1
  C  C33  1  0.02230000  0.53476900  0.52660200  1
  C  C34  1  0.14059400  0.54254200  0.53532700  1
  C  C35  1  0.16068700  0.39643800  0.43287200  1
  C  C36  1  0.04279800  0.38676900  0.42263100  1
  C  C37  1  0.30198700  0.66540600  0.77008800  1
  N  N1  1  0.20753100  0.47265700  0.49001000  1
  N  N2  1  0.78776400  0.51884100  0.50723500  1
  N  N3  1  0.26609700  0.71632800  0.71781900  1
  O  O1  1  0.41305700  0.63951500  0.48714500  1
  O  O2  1  0.61514500  0.65381900  0.48293300  1
  O  O3  1  0.35980300  0.50275900  0.64103200  1
  O  O4  1  0.55893800  0.51421400  0.64693800  1
  O  O5  1  0.38085300  0.33749000  0.51151200  1
  O  O6  1  0.58157600  0.35227700  0.51305100  1
  O  O7  1  0.43674000  0.48069000  0.35016900  1
  O  O8  1  0.63522500  0.48560200  0.35664300  1
