# Generated by REPEAT Assigner based on pymatgen
data_DB0-m3_o7_o16_f0_pcu.sym.75
_audit_creation_date              2022-05-24
_audit_creation_method            REPEAT_Assigner
_cell_length_a                    13.593452
_cell_length_b                    16.596496
_cell_length_c                    17.748555
_cell_angle_alpha                 90.000322
_cell_angle_beta                  89.988557
_cell_angle_gamma                 73.894938
_cell_volume                      3846.995454
_symmetry_space_group_name_H-M    P1
_symmetry_Int_Tables_number       1
loop_
    _symmetry_equiv_pos_site_id
    _symmetry_equiv_pos_as_xyz
    1  x,y,z
loop_
    _atom_site_type_symbol
    _atom_site_label
    _atom_site_fract_x
    _atom_site_fract_y
    _atom_site_fract_z
    _atom_type_partial_charge
    O   O1   0.461143  0.444577  0.637390  -0.669899
    O   O2   0.454676  0.584752  0.637873  -0.690209
    C   C1   0.454300  0.515265  0.672868  0.740791
    O   O3   0.625881  0.409674  0.534854  -0.728229
    O   O4   0.619546  0.549847  0.536090  -0.676341
    C   C2   0.670847  0.470271  0.537250  0.883705
    Zn  Zn1  0.474308  0.419759  0.525486  1.068869
    Zn  Zn2  0.467210  0.604401  0.526072  1.010338
    O   O5   0.486750  0.439343  0.413660  -0.658928
    O   O6   0.480704  0.579591  0.414169  -0.648728
    O   O7   0.321835  0.474363  0.515799  -0.638173
    O   O8   0.315761  0.614423  0.516648  -0.587676
    C   C3   0.487292  0.508878  0.378704  0.691704
    C   C4   0.271037  0.553983  0.511657  0.713821
    C   C5   0.010556  0.649352  0.429114  -0.380112
    H   H1   0.824256  0.655658  0.393934  0.135134
    H   H2   0.972491  0.698396  0.390427  0.152283
    C   C6   0.160642  0.574563  0.495250  -0.187056
    C   C7   0.828081  0.380192  0.590754  -0.028267
    C   C8   0.930241  0.361868  0.607725  -0.150797
    C   C9   0.988485  0.411703  0.581519  -0.153423
    C   C10  0.946080  0.480092  0.534820  0.053239
    C   C11  0.843055  0.495885  0.514833  0.252121
    C   C12  0.003720  0.532352  0.506649  -0.015878
    C   C13  0.957523  0.596694  0.457915  0.247976
    C   C14  0.858522  0.607646  0.434647  -0.227604
    C   C15  0.802400  0.557129  0.461566  -0.270164
    C   C16  0.106287  0.522576  0.524997  -0.132225
    C   C17  0.111919  0.638906  0.446332  0.187328
    C   C18  0.782936  0.448085  0.545972  -0.291114
    H   H3   0.147731  0.474896  0.562996  0.102875
    H   H4   0.782941  0.342443  0.615045  0.096206
    H   H5   0.067426  0.393176  0.598408  0.125120
    H   H6   0.964794  0.308946  0.643587  0.105349
    H   H7   0.727493  0.565789  0.437470  0.142653
    C   C19  0.487790  0.437099  0.179074  -0.211122
    H   H8   0.488115  0.380624  0.148617  0.135630
    C   C20  0.491803  0.436118  0.256695  -0.099552
    H   H9   0.494975  0.378307  0.285863  0.117831
    C   C21  0.489759  0.508557  0.296062  -0.046496
    C   C22  0.485233  0.581527  0.256770  -0.098091
    H   H10  0.483202  0.639056  0.286043  0.110916
    C   C23  0.481223  0.582179  0.179118  -0.217111
    H   H11  0.476397  0.639563  0.148685  0.137125
    C   C24  0.481703  0.510193  0.140300  0.309271
    C   C25  0.474094  0.511622  0.059643  -0.188857
    C   C26  0.467344  0.512791  0.991934  -0.164971
    C   C27  0.461328  0.441902  0.872484  -0.237619
    H   H12  0.467009  0.384386  0.902937  0.137265
    C   C28  0.457352  0.442477  0.794834  -0.046333
    H   H13  0.460299  0.384755  0.765585  0.094561
    C   C29  0.451776  0.515619  0.755512  -0.102998
    C   C30  0.448580  0.588309  0.794852  -0.029025
    H   H14  0.444457  0.646279  0.765653  0.088177
    C   C31  0.452561  0.587408  0.872477  -0.243716
    H   H15  0.451335  0.644092  0.902914  0.138843
    C   C32  0.459745  0.514142  0.911277  0.311776
    C   C33  0.533487  0.161944  0.575387  -0.174912
    H   H16  0.580285  0.118432  0.615106  0.134532
    C   C34  0.535202  0.244499  0.574721  -0.079916
    H   H17  0.583066  0.265845  0.614222  0.178860
    N   N1   0.476886  0.298664  0.525362  -0.057762
    C   C35  0.416028  0.273728  0.475953  -0.051303
    H   H18  0.370903  0.320243  0.438095  0.107908
    C   C36  0.411869  0.190967  0.474886  0.037777
    C   C37  0.471630  0.135014  0.525612  0.200163
    C   C38  0.470167  0.048754  0.526732  -0.116240
    C   C39  0.468876  0.976397  0.526679  -0.114146
    C   C40  0.401650  0.863871  0.572115  -0.219759
    H   H19  0.350671  0.908237  0.609031  0.141008
    C   C41  0.400879  0.780945  0.571899  0.062432
    H   H20  0.349187  0.760485  0.608716  0.129458
    N   N2   0.464528  0.725459  0.526214  -0.066951
    C   C42  0.529592  0.749810  0.480118  -0.084437
    H   H21  0.579718  0.704107  0.443851  0.179556
    C   C43  0.532439  0.832322  0.478575  -0.016277
    C   C44  0.467786  0.890037  0.525467  0.208024
    C   C45  0.165509  0.693187  0.404920  -0.193306
    C   C46  0.154642  0.774421  0.447777  0.363660
    C   C47  0.214126  0.826817  0.408046  -0.281272
    H   H22  0.296390  0.791784  0.405511  0.047498
    H   H23  0.184123  0.841685  0.350086  0.045900
    H   H24  0.205503  0.886009  0.439665  0.036812
    H   H25  0.072650  0.810209  0.450293  -0.070709
    H   H26  0.183978  0.760860  0.505980  -0.099325
    H   H27  0.246819  0.660343  0.393726  0.078611
    H   H28  0.129155  0.708861  0.348905  0.041435
    C   C48  0.345182  0.159177  0.421294  -0.227414
    C   C49  0.281501  0.225421  0.368325  0.226155
    C   C50  0.217693  0.186187  0.317672  -0.325078
    H   H29  0.268523  0.135129  0.283896  0.068000
    H   H30  0.165527  0.160507  0.352305  0.076964
    H   H31  0.171570  0.234701  0.279117  0.076161
    H   H32  0.228873  0.276318  0.401222  -0.000875
    H   H33  0.332402  0.250987  0.332279  -0.007359
    H   H34  0.394644  0.108377  0.386493  0.125250
    H   H35  0.291988  0.133112  0.454495  0.089297
    C   C51  0.605739  0.856959  0.426645  -0.147440
    C   C52  0.551055  0.895093  0.355075  0.313097
    C   C53  0.626087  0.918407  0.301977  -0.263177
    H   H36  0.659225  0.964966  0.329384  0.054060
    H   H37  0.688271  0.861619  0.287163  0.052590
    H   H38  0.585433  0.946070  0.249906  0.060877
    H   H39  0.518059  0.848751  0.327145  -0.041680
    H   H40  0.488604  0.952062  0.368590  -0.087067
    H   H41  0.641680  0.901419  0.454581  0.067321
    H   H42  0.667793  0.800354  0.411279  0.052804
