# generated using pymatgen
data_CuH20C29NO4
_symmetry_space_group_name_H-M   'P 1'
_cell_length_a   10.89296400
_cell_length_b   19.35671100
_cell_length_c   17.94246600
_cell_angle_alpha   89.98398900
_cell_angle_beta   89.98375100
_cell_angle_gamma   90.00446200
_symmetry_Int_Tables_number   1
_chemical_formula_structural   CuH20C29NO4
_chemical_formula_sum   'Cu2 H40 C58 N2 O8'
_cell_volume   3783.20374168
_cell_formula_units_Z   2
loop_
 _symmetry_equiv_pos_site_id
 _symmetry_equiv_pos_as_xyz
  1  'x, y, z'
loop_
 _atom_site_type_symbol
 _atom_site_label
 _atom_site_symmetry_multiplicity
 _atom_site_fract_x
 _atom_site_fract_y
 _atom_site_fract_z
 _atom_site_occupancy
  Cu  Cu1  1  0.49649600  0.49792000  0.57447000  1
  Cu  Cu2  1  0.50350500  0.50208000  0.42553000  1
  H  H1  1  0.23835200  0.63938800  0.19075700  1
  H  H2  1  0.76164900  0.36061200  0.80924400  1
  H  H3  1  0.27510600  0.69317600  0.31286100  1
  H  H4  1  0.72489500  0.30682500  0.68714000  1
  H  H5  1  0.19227100  0.63992200  0.42639900  1
  H  H6  1  0.80773000  0.36007800  0.57360100  1
  H  H7  1  0.03503100  0.47853200  0.29551000  1
  H  H8  1  0.96497000  0.52146900  0.70449000  1
  H  H9  1  0.11754700  0.53235300  0.18222600  1
  H  H10  1  0.88245400  0.46764700  0.81777400  1
  H  H11  1  0.87854800  0.53805400  0.39304300  1
  H  H12  1  0.12145300  0.46194600  0.60695700  1
  H  H13  1  0.49273100  0.71748300  0.38640400  1
  H  H14  1  0.50727000  0.28251800  0.61359700  1
  H  H15  1  0.49137600  0.84176400  0.38532000  1
  H  H16  1  0.50862500  0.15823600  0.61468000  1
  H  H17  1  0.51132700  0.84399400  0.62340100  1
  H  H18  1  0.48867400  0.15600700  0.37659900  1
  H  H19  1  0.50973300  0.71850400  0.62475800  1
  H  H20  1  0.49026800  0.28149600  0.37524300  1
  H  H21  1  0.38050600  0.93919200  0.59597500  1
  H  H22  1  0.61949500  0.06080800  0.40402500  1
  H  H23  1  0.37723000  0.06411800  0.59162200  1
  H  H24  1  0.62277100  0.93588200  0.40837800  1
  H  H25  1  0.36905100  0.41553000  0.83491900  1
  H  H26  1  0.63095000  0.58447000  0.16508100  1
  H  H27  1  0.63399300  0.57708300  0.82475000  1
  H  H28  1  0.36600800  0.42291700  0.17525000  1
  H  H29  1  0.62634200  0.57173700  0.68979600  1
  H  H30  1  0.37365800  0.42826300  0.31020400  1
  H  H31  1  0.69495700  0.51259900  0.93218000  1
  H  H32  1  0.30504400  0.48740100  0.06781900  1
  H  H33  1  0.69501200  0.51314300  0.06703600  1
  H  H34  1  0.30498900  0.48685700  0.93296400  1
  H  H35  1  0.32387600  0.40139800  0.63429100  1
  H  H36  1  0.36437900  0.34567200  0.71005400  1
  H  H37  1  0.24120100  0.40694100  0.71948600  1
  H  H38  1  0.67612700  0.59860300  0.36570900  1
  H  H39  1  0.75880100  0.59306000  0.28051500  1
  H  H40  1  0.63562300  0.65432900  0.28994700  1
  C  C1  1  0.49850700  0.36719600  0.49494200  1
  C  C2  1  0.50149400  0.63280400  0.50505800  1
  C  C3  1  0.26360600  0.50248600  0.49570600  1
  C  C4  1  0.73639500  0.49751400  0.50429500  1
  C  C5  1  0.22313400  0.64572800  0.30920600  1
  C  C6  1  0.77686700  0.35427300  0.69079400  1
  C  C7  1  0.17706900  0.61555400  0.37298600  1
  C  C8  1  0.82293200  0.38444600  0.62701500  1
  C  C9  1  0.11084400  0.55476900  0.36852600  1
  C  C10  1  0.88915700  0.44523100  0.63147400  1
  C  C11  1  0.08824100  0.52552100  0.29967200  1
  C  C12  1  0.91176000  0.47447900  0.70032800  1
  C  C13  1  0.13459200  0.55568400  0.23596800  1
  C  C14  1  0.86540900  0.44431600  0.76403300  1
  C  C15  1  0.20230000  0.61567500  0.24073400  1
  C  C16  1  0.79770100  0.38432500  0.75926600  1
  C  C17  1  0.93116500  0.51982600  0.44002100  1
  C  C18  1  0.06883600  0.48017400  0.55997900  1
  C  C19  1  0.87192000  0.49697200  0.50376000  1
  C  C20  1  0.12808100  0.50302800  0.49624000  1
  C  C21  1  0.94245800  0.47609800  0.56421600  1
  C  C22  1  0.05754300  0.52390200  0.43578400  1
  C  C23  1  0.49728700  0.74436100  0.43905600  1
  C  C24  1  0.50271400  0.25563900  0.56094400  1
  C  C25  1  0.49762200  0.81544700  0.43829700  1
  C  C26  1  0.50237900  0.18455300  0.56170300  1
  C  C27  1  0.50210100  0.85220600  0.50418800  1
  C  C28  1  0.49790000  0.14779500  0.49581300  1
  C  C29  1  0.50582000  0.81654000  0.57107600  1
  C  C30  1  0.49418100  0.18346000  0.42892400  1
  C  C31  1  0.50588700  0.74514900  0.57187500  1
  C  C32  1  0.49411400  0.25485100  0.42812500  1
  C  C33  1  0.50169700  0.70863600  0.50574200  1
  C  C34  1  0.49830400  0.29136400  0.49425800  1
  C  C35  1  0.43486000  0.96535100  0.55422500  1
  C  C36  1  0.56514100  0.03464900  0.44577600  1
  C  C37  1  0.43290900  0.03654600  0.55163000  1
  C  C38  1  0.56709200  0.96345400  0.44837000  1
  C  C39  1  0.49808900  0.07179800  0.49742600  1
  C  C40  1  0.50191200  0.92820300  0.50257500  1
  C  C41  1  0.42046500  0.44991300  0.72723000  1
  C  C42  1  0.57953600  0.55008700  0.27277000  1
  C  C43  1  0.42487400  0.45163800  0.80390300  1
  C  C44  1  0.57512700  0.54836200  0.19609700  1
  C  C45  1  0.49987600  0.49741000  0.84053700  1
  C  C46  1  0.50012500  0.50259000  0.15946300  1
  C  C47  1  0.57369000  0.54008000  0.79843400  1
  C  C48  1  0.42631100  0.45992000  0.20156600  1
  C  C49  1  0.56830000  0.53737400  0.72154100  1
  C  C50  1  0.43170100  0.46262600  0.27845900  1
  C  C51  1  0.60852400  0.50804500  0.96133800  1
  C  C52  1  0.39147700  0.49195500  0.03866200  1
  C  C53  1  0.60838000  0.50825700  0.03819500  1
  C  C54  1  0.39162100  0.49174400  0.96180600  1
  C  C55  1  0.49986800  0.50034300  0.07750300  1
  C  C56  1  0.50013300  0.49965700  0.92249700  1
  C  C57  1  0.33337600  0.39839900  0.69488900  1
  C  C58  1  0.66666667  0.60160100  0.30511100  1
  N  N1  1  0.49059400  0.49402500  0.68605200  1
  N  N2  1  0.50940700  0.50597500  0.31394800  1
  O  O1  1  0.50023600  0.39803100  0.55973100  1
  O  O2  1  0.49976500  0.60196900  0.44026900  1
  O  O3  1  0.49713900  0.40134200  0.43179500  1
  O  O4  1  0.50286200  0.59865800  0.56820600  1
  O  O5  1  0.31896500  0.50201700  0.56036000  1
  O  O6  1  0.68103600  0.49798300  0.43964100  1
  O  O7  1  0.32445200  0.50041800  0.43249300  1
  O  O8  1  0.67554900  0.49958200  0.56750800  1
