# Generated by REPEAT Assigner based on pymatgen
data_DB0-m3_o20_o28_f0_pcu.sym.37
_audit_creation_date              2022-05-24
_audit_creation_method            REPEAT_Assigner
_cell_length_a                    23.534580
_cell_length_b                    14.534524
_cell_length_c                    13.385186
_cell_angle_alpha                 90.000000
_cell_angle_beta                  90.000000
_cell_angle_gamma                 90.000000
_cell_volume                      4578.589112
_symmetry_space_group_name_H-M    P1
_symmetry_Int_Tables_number       1
loop_
    _symmetry_equiv_pos_site_id
    _symmetry_equiv_pos_as_xyz
    1  x,y,z
loop_
    _atom_site_type_symbol
    _atom_site_label
    _atom_site_fract_x
    _atom_site_fract_y
    _atom_site_fract_z
    _atom_type_partial_charge
    O   O1   0.500696  0.362917  0.580457  -0.699520
    O   O2   0.500695  0.637083  0.407924  -0.700070
    O   O3   0.499304  0.637083  0.580457  -0.699517
    O   O4   0.499305  0.362917  0.407924  -0.700075
    C   C1   0.500001  0.320191  0.494191  0.976434
    C   C2   0.499999  0.679809  0.494191  0.976429
    O   O5   0.415349  0.498680  0.580344  -0.688596
    O   O6   0.584651  0.498681  0.408037  -0.689663
    O   O7   0.584651  0.501320  0.580344  -0.688585
    O   O8   0.415349  0.501319  0.408037  -0.689675
    C   C3   0.388635  0.499999  0.494190  0.803559
    C   C4   0.611365  0.500001  0.494190  0.803540
    Zn  Zn1  0.500000  0.500000  0.607835  1.086261
    Zn  Zn2  0.500000  0.500000  0.380546  1.091697
    C   C5   0.882488  0.580437  0.500689  0.447494
    C   C6   0.117512  0.419563  0.500689  0.447492
    C   C7   0.882487  0.419569  0.487688  0.446269
    C   C8   0.117514  0.580431  0.487688  0.446296
    N   N1   0.853676  0.500004  0.494189  -0.190376
    N   N2   0.146324  0.499996  0.494189  -0.190379
    C   C9   0.941223  0.418447  0.491581  -0.087588
    C   C10  0.058777  0.581553  0.491581  -0.087600
    C   C11  0.941225  0.581556  0.496797  -0.088676
    C   C12  0.058775  0.418444  0.496797  -0.088673
    C   C13  0.970687  0.500001  0.494189  0.085273
    C   C14  0.029313  0.499999  0.494189  0.085263
    C   C15  0.970747  0.336206  0.491874  -0.070393
    C   C16  0.029253  0.663794  0.491874  -0.070394
    C   C17  0.970750  0.663796  0.496504  -0.069644
    C   C18  0.029250  0.336204  0.496504  -0.069647
    O   O9   0.854211  0.659915  0.513512  -0.494155
    O   O10  0.145789  0.340085  0.513512  -0.494149
    O   O11  0.854208  0.340092  0.474865  -0.493519
    O   O12  0.145792  0.659908  0.474865  -0.493525
    H   H1   0.948782  0.270949  0.490382  0.134673
    H   H2   0.051218  0.729051  0.490382  0.134678
    H   H3   0.948786  0.729053  0.497997  0.134708
    H   H4   0.051214  0.270947  0.497997  0.134713
    C   C19  0.237128  0.558423  0.556045  -0.447656
    C   C20  0.762872  0.441577  0.556045  -0.447650
    C   C21  0.237129  0.441568  0.432336  -0.446233
    C   C22  0.762871  0.558432  0.432336  -0.446239
    H   H5   0.214356  0.602869  0.606855  0.202151
    H   H6   0.785644  0.397131  0.606855  0.202149
    H   H7   0.214358  0.397120  0.381527  0.201649
    H   H8   0.785643  0.602880  0.381527  0.201649
    C   C23  0.295686  0.563602  0.552012  0.212282
    C   C24  0.704314  0.436398  0.552012  0.212290
    C   C25  0.295687  0.436392  0.436369  0.210569
    C   C26  0.704313  0.563608  0.436369  0.210594
    C   C27  0.326007  0.499998  0.494190  -0.240278
    C   C28  0.673994  0.500002  0.494190  -0.240294
    C   C29  0.207327  0.499995  0.494190  0.406918
    C   C30  0.792673  0.500005  0.494190  0.406918
    C   C31  0.500001  0.221487  0.494191  -0.300213
    C   C32  0.499999  0.778513  0.494191  -0.300215
    C   C33  0.500001  0.138586  0.494191  0.120958
    C   C34  0.499999  0.861414  0.494191  0.120958
    C   C35  0.500000  0.041451  0.494191  -0.039782
    C   C36  0.500000  0.958549  0.494191  -0.039779
    N   N3   0.500000  0.500000  0.231130  -0.090197
    N   N4   0.500000  0.500000  0.757251  -0.086909
    C   C37  0.500000  0.500000  0.144691  0.226899
    C   C38  0.500000  0.500000  0.843690  0.224564
    C   C39  0.500000  0.500000  0.039203  0.054125
    C   C40  0.500000  0.500000  0.949178  0.055104
    C   C41  0.322947  0.641259  0.608911  -0.208664
    C   C42  0.304638  0.733029  0.564877  0.309352
    C   C43  0.337448  0.810530  0.614016  -0.378064
    H   H9   0.330146  0.809188  0.695852  0.066566
    H   H10  0.383475  0.802910  0.598470  0.091915
    H   H11  0.322589  0.877279  0.583560  0.082607
    H   H12  0.313491  0.733267  0.483496  -0.050103
    H   H13  0.258672  0.744833  0.577378  -0.015268
    H   H14  0.309385  0.637613  0.688157  0.049321
    H   H15  0.369696  0.640250  0.607087  0.093128
    C   C44  0.677053  0.358741  0.608911  -0.208672
    C   C45  0.695362  0.266971  0.564877  0.309353
    C   C46  0.662552  0.189470  0.614016  -0.378069
    H   H16  0.669854  0.190812  0.695852  0.066567
    H   H17  0.616525  0.197090  0.598470  0.091916
    H   H18  0.677411  0.122721  0.583560  0.082607
    H   H19  0.686509  0.266733  0.483496  -0.050101
    H   H20  0.741328  0.255167  0.577378  -0.015267
    H   H21  0.690615  0.362387  0.688157  0.049322
    H   H22  0.630304  0.359750  0.607087  0.093130
    C   C47  0.322949  0.358737  0.379470  -0.204968
    C   C48  0.304646  0.266966  0.423508  0.307544
    C   C49  0.337456  0.189466  0.374363  -0.379238
    H   H23  0.330146  0.190805  0.292529  0.066845
    H   H24  0.383483  0.197092  0.389896  0.092278
    H   H25  0.322602  0.122717  0.404826  0.083093
    H   H26  0.313505  0.266729  0.504887  -0.049718
    H   H27  0.258679  0.255158  0.411018  -0.014777
    H   H28  0.309384  0.362379  0.300224  0.048573
    H   H29  0.369698  0.359750  0.381286  0.092240
    C   C50  0.677051  0.641263  0.379470  -0.204994
    C   C51  0.695354  0.733034  0.423508  0.307570
    C   C52  0.662544  0.810534  0.374363  -0.379250
    H   H30  0.669854  0.809195  0.292529  0.066847
    H   H31  0.616517  0.802908  0.389896  0.092281
    H   H32  0.677398  0.877283  0.404826  0.083093
    H   H33  0.686495  0.733271  0.504887  -0.049723
    H   H34  0.741321  0.744842  0.411018  -0.014780
    H   H35  0.690617  0.637621  0.300224  0.048577
    H   H36  0.630302  0.640250  0.381286  0.092240
