data_DB0-m3_o12_o29_f0_pcu.sym.68_repeat
_audit_creation_date              2024-02-23
_audit_creation_method            'Materials Studio'
_symmetry_space_group_name_H-M    'P1'
_symmetry_Int_Tables_number       1
_symmetry_cell_setting            triclinic
loop_
_symmetry_equiv_pos_as_xyz
  x,y,z
_cell_length_a                    10.0026
_cell_length_b                    11.2499
_cell_length_c                    27.6301
_cell_angle_alpha                 89.9794
_cell_angle_beta                  80.7763
_cell_angle_gamma                 92.4455
loop_
_atom_site_label
_atom_site_type_symbol
_atom_site_fract_x
_atom_site_fract_y
_atom_site_fract_z
_atom_site_U_iso_or_equiv
_atom_site_adp_type
_atom_site_occupancy
O1     O     0.41721   0.69117   0.50527   0.00000  Uiso   1.00
O2     O     0.56674   0.30973   0.49558   0.00000  Uiso   1.00
O3     O     0.64676   0.65996   0.49141   0.00000  Uiso   1.00
O4     O     0.33720   0.34094   0.50984   0.00000  Uiso   1.00
C1     C     0.54426   0.73042   0.49765   0.00000  Uiso   1.00
C2     C     0.43970   0.27048   0.50340   0.00000  Uiso   1.00
O5     O     0.37969   0.51566   0.57952   0.00000  Uiso   1.00
O6     O     0.60438   0.48581   0.42152   0.00000  Uiso   1.00
O7     O     0.60895   0.48374   0.56549   0.00000  Uiso   1.00
O8     O     0.37489   0.51661   0.43556   0.00000  Uiso   1.00
C3     C     0.49481   0.49949   0.59513   0.00000  Uiso   1.00
C4     C     0.48917   0.50145   0.40591   0.00000  Uiso   1.00
Zn1    Zn    0.34070   0.52116   0.50981   0.00000  Uiso   1.00
Zn2    Zn    0.64325   0.47974   0.49123   0.00000  Uiso   1.00
C5     C     0.50998   0.59908   0.82307   0.00000  Uiso   1.00
C6     C     0.44261   0.40987   0.17950   0.00000  Uiso   1.00
O9     O     0.52441   0.70133   0.79724   0.00000  Uiso   1.00
O10    O     0.39726   0.31335   0.20692   0.00000  Uiso   1.00
N1     N     0.49668   0.49582   0.79983   0.00000  Uiso   1.00
N2     N     0.48843   0.50671   0.20104   0.00000  Uiso   1.00
C7     C     0.48265   0.39135   0.82417   0.00000  Uiso   1.00
C8     C     0.53600   0.60471   0.17483   0.00000  Uiso   1.00
C9     C     0.38441   0.53326   0.73003   0.00000  Uiso   1.00
C10    C     0.36747   0.50428   0.28477   0.00000  Uiso   1.00
C11    C     0.38341   0.53342   0.68019   0.00000  Uiso   1.00
C12    C     0.36747   0.50371   0.33470   0.00000  Uiso   1.00
C13    C     0.60852   0.46349   0.66662   0.00000  Uiso   1.00
C14    C     0.60939   0.50246   0.32050   0.00000  Uiso   1.00
C15    C     0.60836   0.46173   0.71654   0.00000  Uiso   1.00
C16    C     0.60910   0.50456   0.27063   0.00000  Uiso   1.00
C17    C     0.49649   0.49687   0.74831   0.00000  Uiso   1.00
C18    C     0.48826   0.50530   0.25263   0.00000  Uiso   1.00
C19    C     0.49558   0.49484   0.89940   0.00000  Uiso   1.00
C20    C     0.49261   0.50730   0.10125   0.00000  Uiso   1.00
C21    C     0.51106   0.59995   0.87285   0.00000  Uiso   1.00
C22    C     0.44517   0.40846   0.12952   0.00000  Uiso   1.00
C23    C     0.52577   0.70652   0.89615   0.00000  Uiso   1.00
C24    C     0.39889   0.30812   0.10790   0.00000  Uiso   1.00
C25    C     0.48036   0.38785   0.87514   0.00000  Uiso   1.00
C26    C     0.53854   0.60822   0.12385   0.00000  Uiso   1.00
C27    C     0.49570   0.49886   0.64817   0.00000  Uiso   1.00
C28    C     0.48854   0.50250   0.35285   0.00000  Uiso   1.00
H1     H     0.69733   0.43564   0.64243   0.00000  Uiso   1.00
H2     H     0.70545   0.50184   0.33364   0.00000  Uiso   1.00
H3     H     0.69662   0.43350   0.73073   0.00000  Uiso   1.00
H4     H     0.70405   0.50464   0.24563   0.00000  Uiso   1.00
H5     H     0.53417   0.79007   0.87639   0.00000  Uiso   1.00
H6     H     0.35763   0.23101   0.12943   0.00000  Uiso   1.00
C29    C     0.53151   0.60488   0.02263   0.00000  Uiso   1.00
C30    C     0.46986   0.39468   0.97731   0.00000  Uiso   1.00
C31    C     0.45643   0.39985   0.02849   0.00000  Uiso   1.00
C32    C     0.51994   0.60463   0.97278   0.00000  Uiso   1.00
C33    C     0.49362   0.50404   0.05076   0.00000  Uiso   1.00
C34    C     0.49526   0.49798   0.94985   0.00000  Uiso   1.00
C35    C     0.58242   0.70378   0.04478   0.00000  Uiso   1.00
C36    C     0.46039   0.28764   0.95293   0.00000  Uiso   1.00
C37    C     0.58736   0.70723   0.09440   0.00000  Uiso   1.00
C38    C     0.46580   0.28213   0.90275   0.00000  Uiso   1.00
O11    O     0.57793   0.69828   0.19940   0.00000  Uiso   1.00
O12    O     0.46876   0.29246   0.79803   0.00000  Uiso   1.00
C39    C     0.53059   0.70920   0.94537   0.00000  Uiso   1.00
C40    C     0.40462   0.30339   0.05811   0.00000  Uiso   1.00
H7     H     0.27162   0.50336   0.35915   0.00000  Uiso   1.00
H8     H     0.29422   0.56197   0.66675   0.00000  Uiso   1.00
H9     H     0.27243   0.50515   0.27088   0.00000  Uiso   1.00
H10    H     0.29646   0.56072   0.75482   0.00000  Uiso   1.00
H11    H     0.62528   0.77997   0.02347   0.00000  Uiso   1.00
H12    H     0.45389   0.20430   0.97229   0.00000  Uiso   1.00
H13    H     0.53676   0.79636   0.96108   0.00000  Uiso   1.00
H14    H     0.36147   0.22350   0.04437   0.00000  Uiso   1.00
H15    H     0.61419   0.09547   0.49317   0.00000  Uiso   1.00
H16    H     0.36977   0.90542   0.50778   0.00000  Uiso   1.00
C41    C     0.57416   0.85919   0.49585   0.00000  Uiso   1.00
C42    C     0.40980   0.14171   0.50520   0.00000  Uiso   1.00
C43    C     0.47525   0.93628   0.50156   0.00000  Uiso   1.00
C44    C     0.50870   0.06461   0.49943   0.00000  Uiso   1.00
H17    H     0.30487   0.10910   0.51148   0.00000  Uiso   1.00
H18    H     0.67908   0.89179   0.48963   0.00000  Uiso   1.00
H19    H     0.10901   0.42896   0.46937   0.00000  Uiso   1.00
H20    H     0.87494   0.57189   0.53169   0.00000  Uiso   1.00
N3     N     0.84198   0.45195   0.47876   0.00000  Uiso   1.00
N4     N     0.14197   0.54894   0.52228   0.00000  Uiso   1.00
C45    C     0.91875   0.50957   0.50435   0.00000  Uiso   1.00
C46    C     0.06520   0.49130   0.49670   0.00000  Uiso   1.00
H21    H     0.09448   0.60688   0.54755   0.00000  Uiso   1.00
H22    H     0.88948   0.39403   0.45349   0.00000  Uiso   1.00
C47    C     0.64643   0.82040   0.11286   0.00000  Uiso   1.00
C48    C     0.53656   0.89222   0.13980   0.00000  Uiso   1.00
C49    C     0.56695   0.99616   0.15913   0.00000  Uiso   1.00
H23    H     0.69915   0.87572   0.08184   0.00000  Uiso   1.00
H24    H     0.72491   0.80182   0.13562   0.00000  Uiso   1.00
H25    H     0.43171   0.85993   0.14351   0.00000  Uiso   1.00
H26    H     0.67158   0.02903   0.15549   0.00000  Uiso   1.00
H27    H     0.48696   0.04818   0.17863   0.00000  Uiso   1.00
C50    C     0.45469   0.15950   0.88168   0.00000  Uiso   1.00
C51    C     0.31733   0.13661   0.86813   0.00000  Uiso   1.00
C52    C     0.28590   0.03282   0.84890   0.00000  Uiso   1.00
H28    H     0.46820   0.09108   0.90912   0.00000  Uiso   1.00
H29    H     0.53643   0.14639   0.85024   0.00000  Uiso   1.00
H30    H     0.24274   0.20443   0.87415   0.00000  Uiso   1.00
H31    H     0.35995   0.96456   0.84287   0.00000  Uiso   1.00
H32    H     0.18599   0.01636   0.83920   0.00000  Uiso   1.00
