# generated using pymatgen
data_ZnH14C13NO4
_symmetry_space_group_name_H-M   'P 1'
_cell_length_a   10.00969300
_cell_length_b   11.24785900
_cell_length_c   15.95964700
_cell_angle_alpha   89.98849300
_cell_angle_beta   80.71572200
_cell_angle_gamma   92.44774100
_symmetry_Int_Tables_number   1
_chemical_formula_structural   ZnH14C13NO4
_chemical_formula_sum   'Zn2 H28 C26 N2 O8'
_cell_volume   1771.65598324
_cell_formula_units_Z   2
loop_
 _symmetry_equiv_pos_site_id
 _symmetry_equiv_pos_as_xyz
  1  'x, y, z'
loop_
 _atom_site_type_symbol
 _atom_site_label
 _atom_site_symmetry_multiplicity
 _atom_site_fract_x
 _atom_site_fract_y
 _atom_site_fract_z
 _atom_site_occupancy
  Zn  Zn1  1  0.33653400  0.53486000  0.53189800  1
  Zn  Zn2  1  0.63922400  0.49342300  0.49991600  1
  H  H1  1  0.45924900  0.70025400  0.08430700  1
  H  H2  1  0.42841800  0.69491700  0.94710100  1
  H  H3  1  0.70365400  0.47842900  0.91697800  1
  H  H4  1  0.66609800  0.63251300  0.93212500  1
  H  H5  1  0.67852300  0.61522100  0.07000100  1
  H  H6  1  0.34124200  0.36741600  0.95434900  1
  H  H7  1  0.51404200  0.32423000  0.94800000  1
  H  H8  1  0.31669700  0.39207000  0.09616700  1
  H  H9  1  0.29228300  0.58321100  0.97025100  1
  H  H10  1  0.30586100  0.60836200  0.10917500  1
  H  H11  1  0.47311300  0.31846300  0.09286400  1
  H  H12  1  0.60999500  0.10921100  0.50309100  1
  H  H13  1  0.36576300  0.91906800  0.52871500  1
  H  H14  1  0.30082900  0.12276000  0.53544400  1
  H  H15  1  0.67492900  0.90552200  0.49637100  1
  H  H16  1  0.10468200  0.44216500  0.46213300  1
  H  H17  1  0.87106500  0.58605600  0.56971400  1
  H  H18  1  0.09054900  0.62097900  0.59691100  1
  H  H19  1  0.88519900  0.40726000  0.43492300  1
  H  H20  1  0.70932700  0.35093300  0.02747700  1
  H  H21  1  0.70566200  0.40131400  0.13377800  1
  H  H22  1  0.89360300  0.53615400  0.99396500  1
  H  H23  1  0.91892400  0.45685500  0.17512300  1
  H  H24  1  0.85885900  0.59903800  0.14809300  1
  H  H25  1  0.02964200  0.56022400  0.10719500  1
  H  H26  1  0.94023500  0.29245100  0.06833200  1
  H  H27  1  0.07027100  0.39061300  0.00967800  1
  H  H28  1  0.93610400  0.32829600  0.95813800  1
  C  C1  1  0.54022200  0.74409600  0.51050200  1
  C  C2  1  0.49020600  0.51390300  0.67939300  1
  C  C3  1  0.43553600  0.28418700  0.52130900  1
  C  C4  1  0.48558800  0.51437300  0.35241600  1
  C  C5  1  0.39836700  0.60714900  0.97766300  1
  C  C6  1  0.63369100  0.54045600  0.95360500  1
  C  C7  1  0.63647500  0.52999200  0.04840600  1
  C  C8  1  0.48531600  0.51404500  0.26253300  1
  C  C9  1  0.49096800  0.51324800  0.93639300  1
  C  C10  1  0.40894400  0.61407600  0.07111700  1
  C  C11  1  0.49069100  0.51221400  0.09474000  1
  C  C12  1  0.42594300  0.39621000  0.06881700  1
  C  C13  1  0.44083000  0.39196500  0.97292100  1
  C  C14  1  0.48698700  0.51335000  0.18686300  1
  C  C15  1  0.49097700  0.51357300  0.84472600  1
  C  C16  1  0.49085100  0.51374100  0.76923800  1
  C  C17  1  0.57006400  0.87289600  0.50736600  1
  C  C18  1  0.47118000  0.94996600  0.51768100  1
  C  C19  1  0.40569400  0.15538800  0.52444600  1
  C  C20  1  0.50457700  0.07831700  0.51412700  1
  C  C21  1  0.91469500  0.52336600  0.52255700  1
  C  C22  1  0.06105000  0.50485100  0.50929200  1
  C  C23  1  0.72755900  0.42976100  0.06637700  1
  C  C24  1  0.87693500  0.46974900  0.04633600  1
  C  C25  1  0.92360500  0.52484400  0.12425800  1
  C  C26  1  0.96112600  0.36324300  0.01898500  1
  N  N1  1  0.83783300  0.46553800  0.47848800  1
  N  N2  1  0.13791100  0.56267600  0.55336300  1
  O  O1  1  0.41317800  0.70485200  0.52387900  1
  O  O2  1  0.64278800  0.67368100  0.49967000  1
  O  O3  1  0.37497700  0.52951700  0.65260900  1
  O  O4  1  0.60469900  0.49832700  0.62847600  1
  O  O5  1  0.33296800  0.35460200  0.53214900  1
  O  O6  1  0.56258300  0.32343100  0.50793800  1
  O  O7  1  0.37105000  0.52993500  0.40332500  1
  O  O8  1  0.60077200  0.49874800  0.37922000  1
