# Generated by REPEAT Assigner based on pymatgen
data_DB0-m3_o13_o14_f0_pcu.sym.117
_audit_creation_date              2022-05-24
_audit_creation_method            REPEAT_Assigner
_cell_length_a                    11.018421
_cell_length_b                    11.824392
_cell_length_c                    13.079847
_cell_angle_alpha                 91.185425
_cell_angle_beta                  89.992848
_cell_angle_gamma                 85.765559
_cell_volume                      1699.104719
_symmetry_space_group_name_H-M    P1
_symmetry_Int_Tables_number       1
loop_
    _symmetry_equiv_pos_site_id
    _symmetry_equiv_pos_as_xyz
    1  x,y,z
loop_
    _atom_site_type_symbol
    _atom_site_label
    _atom_site_fract_x
    _atom_site_fract_y
    _atom_site_fract_z
    _atom_type_partial_charge
    O   O1   0.503979  0.420745  0.668156  -0.626719
    O   O2   0.488659  0.615277  0.652268  -0.619318
    C   C1   0.496196  0.523626  0.708019  0.661476
    O   O3   0.686305  0.402066  0.516605  -0.724614
    O   O4   0.669249  0.596643  0.500164  -0.751278
    C   C2   0.735233  0.499534  0.507616  0.986546
    Zn  Zn1  0.508651  0.368393  0.519795  1.067479
    Zn  Zn2  0.485349  0.624235  0.497584  1.044461
    O   O5   0.507458  0.377921  0.365262  -0.679355
    O   O6   0.489817  0.571153  0.349189  -0.670121
    O   O7   0.324909  0.396365  0.516973  -0.802607
    O   O8   0.307842  0.590216  0.503449  -0.661803
    C   C3   0.498555  0.468457  0.308625  0.797103
    C   C4   0.258901  0.492824  0.508921  0.946921
    C   C5   0.879904  0.369362  0.358418  -0.220654
    H   H1   0.782433  0.372911  0.350374  0.095110
    C   C6   0.946083  0.303164  0.287538  -0.125689
    H   H2   0.899689  0.256107  0.229676  0.098469
    C   C7   0.070647  0.298983  0.288462  -0.028356
    H   H3   0.122350  0.248546  0.231414  0.092761
    C   C8   0.129701  0.361392  0.360078  -0.356128
    H   H4   0.227313  0.359027  0.354160  0.213155
    C   C9   0.064700  0.426857  0.434026  0.280922
    C   C10  0.937740  0.430704  0.433739  0.233247
    C   C11  0.869955  0.498847  0.505339  -0.400206
    C   C12  0.931232  0.567320  0.573078  0.013105
    H   H5   0.104503  0.616268  0.624090  0.052028
    C   C13  0.057004  0.565166  0.570077  -0.023217
    C   C14  0.124731  0.492852  0.504484  -0.295672
    C   C15  0.499983  0.456662  0.195427  -0.137437
    C   C16  0.497944  0.534378  0.820107  0.050929
    C   C17  0.497501  0.645805  0.975288  -0.259844
    C   C18  0.495759  0.639040  0.869580  -0.106180
    C   C19  0.502792  0.437310  0.877577  -0.260596
    C   C20  0.503876  0.444529  0.982771  0.228997
    C   C21  0.500763  0.548273  0.032101  0.177923
    C   C22  0.500159  0.554298  0.137858  -0.166133
    C   C23  0.502937  0.351867  0.143731  -0.085419
    C   C24  0.506375  0.347162  0.038489  -0.264858
    H   H6   0.498990  0.636792  0.174850  0.091818
    H   H7   0.495468  0.728050  0.013168  0.146006
    H   H8   0.507106  0.265521  0.999668  0.154848
    H   H9   0.492769  0.716225  0.826553  0.096883
    H   H10  0.504729  0.354396  0.841138  0.124543
    N   N1   0.524696  0.200139  0.535949  -0.008351
    N   N2   0.468182  0.792692  0.480741  -0.018520
    C   C25  0.397753  0.965789  0.404775  -0.141591
    C   C26  0.402226  0.849141  0.407029  -0.073560
    C   C27  0.533936  0.851263  0.548126  -0.147339
    C   C28  0.532563  0.968115  0.545164  0.176344
    C   C29  0.462079  0.025122  0.474302  0.193592
    C   C30  0.456708  0.141320  0.471947  -0.133838
    C   C31  0.596412  0.146216  0.605896  -0.040470
    C   C32  0.600552  0.029247  0.612223  -0.213172
    H   H11  0.397648  0.186018  0.418294  0.215377
    H   H12  0.650226  0.194395  0.657638  0.149484
    H   H13  0.342943  0.011475  0.348498  0.106076
    H   H14  0.657478  0.986392  0.668921  0.142548
    H   H15  0.589155  0.806219  0.604537  0.185324
    C   C33  0.867408  0.639439  0.652472  0.608515
    O   O9   0.776573  0.609441  0.694230  -0.476962
    N   N3   0.917174  0.741646  0.686582  -0.674650
    H   H16  0.859255  0.778683  0.743078  0.290756
    H   H17  0.915397  0.796295  0.624806  0.261500
    C   C34  0.335052  0.792193  0.325973  0.730114
    O   O10  0.284220  0.706749  0.342697  -0.467715
    N   N4   0.320289  0.843097  0.228338  -0.721830
    H   H18  0.269726  0.790282  0.182879  0.313553
    H   H19  0.406526  0.844719  0.195547  0.284155
    C   C35  0.494816  0.243912  0.194902  0.708145
    O   O11  0.397288  0.219493  0.228673  -0.486690
    N   N5   0.596418  0.161747  0.194106  -0.769846
    H   H20  0.618028  0.143776  0.270046  0.308902
    H   H21  0.670108  0.198997  0.162009  0.311622
