# generated using pymatgen
data_ZnH7C19NO4F
_symmetry_space_group_name_H-M   'P 1'
_cell_length_a   8.79990700
_cell_length_b   17.51212900
_cell_length_c   8.55050500
_cell_angle_alpha   90.00000000
_cell_angle_beta   97.80091400
_cell_angle_gamma   90.00000000
_symmetry_Int_Tables_number   1
_chemical_formula_structural   ZnH7C19NO4F
_chemical_formula_sum   'Zn2 H14 C38 N2 O8 F2'
_cell_volume   1305.48227832
_cell_formula_units_Z   2
loop_
 _symmetry_equiv_pos_site_id
 _symmetry_equiv_pos_as_xyz
  1  'x, y, z'
loop_
 _atom_site_type_symbol
 _atom_site_label
 _atom_site_symmetry_multiplicity
 _atom_site_fract_x
 _atom_site_fract_y
 _atom_site_fract_z
 _atom_site_occupancy
  Zn  Zn1  1  0.48604100  0.91586800  0.49701500  1
  Zn  Zn2  1  0.51396000  0.08413200  0.50298500  1
  H  H1  1  0.39394900  0.03104200  0.98691300  1
  H  H2  1  0.60605100  0.96895800  0.01308700  1
  H  H3  1  0.86285500  0.69874000  0.57157500  1
  H  H4  1  0.13714500  0.30126000  0.42842500  1
  H  H5  1  0.10698200  0.68474300  0.41925600  1
  H  H6  1  0.89301800  0.31525700  0.58074400  1
  H  H7  1  0.89027300  0.44978600  0.58109600  1
  H  H8  1  0.10972700  0.55021400  0.41890500  1
  H  H9  1  0.11878800  0.43530200  0.42289800  1
  H  H10  1  0.88121200  0.56469800  0.57710200  1
  H  H11  1  0.23650000  0.80521500  0.44721100  1
  H  H12  1  0.76350000  0.19478500  0.55278900  1
  H  H13  1  0.71699600  0.81229500  0.53970300  1
  H  H14  1  0.28300500  0.18770500  0.46029700  1
  C  C1  1  0.19684600  0.01213200  0.09819900  1
  C  C2  1  0.80315400  0.98786800  0.90180200  1
  C  C3  1  0.27260000  0.02063300  0.96932600  1
  C  C4  1  0.72740100  0.97936700  0.03067400  1
  C  C5  1  0.19887500  0.00998900  0.81925300  1
  C  C6  1  0.80112500  0.99001100  0.18074700  1
  C  C7  1  0.04267300  0.99845200  0.79515000  1
  C  C8  1  0.95732800  0.00154800  0.20485100  1
  C  C9  1  0.96110500  0.99738100  0.92346600  1
  C  C10  1  0.03889600  0.00261900  0.07653400  1
  C  C11  1  0.70788400  0.99275300  0.74800000  1
  C  C12  1  0.29211600  0.00724700  0.25200000  1
  C  C13  1  0.29261100  0.00577700  0.69105100  1
  C  C14  1  0.70739000  0.99422300  0.30895000  1
  C  C15  1  0.61212600  0.77951700  0.52032200  1
  C  C16  1  0.38787400  0.22048300  0.47967800  1
  C  C17  1  0.34509300  0.77557100  0.46849500  1
  C  C18  1  0.65490700  0.22442900  0.53150500  1
  C  C19  1  0.48733300  0.65851200  0.49663800  1
  C  C20  1  0.51266800  0.34148800  0.50336300  1
  C  C21  1  0.61917700  0.70102200  0.52254500  1
  C  C22  1  0.38082300  0.29897800  0.47745600  1
  C  C23  1  0.34943800  0.69653400  0.46895500  1
  C  C24  1  0.65056200  0.30346600  0.53104600  1
  C  C25  1  0.75862400  0.66545000  0.55084700  1
  C  C26  1  0.24137600  0.33455000  0.44915300  1
  C  C27  1  0.21602900  0.65558200  0.44165700  1
  C  C28  1  0.78397100  0.34441800  0.55834300  1
  C  C29  1  0.64154900  0.46261000  0.52914600  1
  C  C30  1  0.35845100  0.53739000  0.47085500  1
  C  C31  1  0.36487400  0.45747400  0.47269700  1
  C  C32  1  0.63512700  0.54252600  0.52730300  1
  C  C33  1  0.50635500  0.42084900  0.50171800  1
  C  C34  1  0.49364500  0.57915100  0.49828200  1
  C  C35  1  0.78021500  0.42288000  0.55789500  1
  C  C36  1  0.21978500  0.57712000  0.44210500  1
  C  C37  1  0.23273000  0.41274500  0.44633800  1
  C  C38  1  0.76727100  0.58725500  0.55366200  1
  N  N1  1  0.47633100  0.81580200  0.49426100  1
  N  N2  1  0.52366900  0.18419800  0.50573900  1
  O  O1  1  0.67133700  0.06091700  0.69004800  1
  O  O2  1  0.32866300  0.93908300  0.30995200  1
  O  O3  1  0.35544300  0.07027000  0.31265100  1
  O  O4  1  0.64455700  0.92973000  0.68734900  1
  O  O5  1  0.32893200  0.93805800  0.64145700  1
  O  O6  1  0.67106800  0.06194100  0.35854300  1
  O  O7  1  0.64431900  0.93098900  0.35073500  1
  O  O8  1  0.35568100  0.06901100  0.64926600  1
  F  F1  1  0.97184400  0.98714600  0.64621000  1
  F  F2  1  0.02815600  0.01285400  0.35379100  1
