# generated using pymatgen
data_ZnH13C14N2O5
_symmetry_space_group_name_H-M   'P 1'
_cell_length_a   8.62618700
_cell_length_b   9.23042900
_cell_length_c   13.03626100
_cell_angle_alpha   90.00000000
_cell_angle_beta   93.56076500
_cell_angle_gamma   90.00000000
_symmetry_Int_Tables_number   1
_chemical_formula_structural   ZnH13C14N2O5
_chemical_formula_sum   'Zn2 H26 C28 N4 O10'
_cell_volume   1035.98765993
_cell_formula_units_Z   2
loop_
 _symmetry_equiv_pos_site_id
 _symmetry_equiv_pos_as_xyz
  1  'x, y, z'
loop_
 _atom_site_type_symbol
 _atom_site_label
 _atom_site_symmetry_multiplicity
 _atom_site_fract_x
 _atom_site_fract_y
 _atom_site_fract_z
 _atom_site_occupancy
  Zn  Zn1  1  0.50285500  0.82984200  0.50265000  1
  Zn  Zn2  1  0.50415400  0.15976200  0.50625500  1
  H  H1  1  0.21687900  0.97363300  0.15996500  1
  H  H2  1  0.84526800  0.92795600  0.99772300  1
  H  H3  1  0.15971800  0.08273900  0.01030000  1
  H  H4  1  0.78911300  0.03098500  0.84658400  1
  H  H5  1  0.72002800  0.96970500  0.15811100  1
  H  H6  1  0.99106500  0.04224400  0.43507400  1
  H  H7  1  0.28579200  0.04029500  0.85011200  1
  H  H8  1  0.01857400  0.93532600  0.57678200  1
  H  H9  1  0.58979200  0.63779700  0.66052600  1
  H  H10  1  0.54156100  0.38149000  0.67093700  1
  H  H11  1  0.72319600  0.60068800  0.57052000  1
  H  H12  1  0.70637100  0.37439600  0.59849400  1
  H  H13  1  0.49448100  0.60859500  0.34153400  1
  H  H14  1  0.51741800  0.36249100  0.34765300  1
  H  H15  1  0.68415500  0.61518100  0.40388100  1
  H  H16  1  0.69833400  0.38063500  0.42297600  1
  H  H17  1  0.28442200  0.60165300  0.42596000  1
  H  H18  1  0.28511200  0.37731700  0.42770600  1
  H  H19  1  0.13314600  0.67429000  0.54435200  1
  H  H20  1  0.01479400  0.68907800  0.69522800  1
  H  H21  1  0.15641600  0.74334000  0.79714800  1
  H  H22  1  0.09047900  0.56147800  0.79111600  1
  H  H23  1  0.29701300  0.34740300  0.65740200  1
  H  H24  1  0.07478600  0.31015100  0.72989300  1
  H  H25  1  0.92509900  0.24868000  0.63924000  1
  H  H26  1  0.92977600  0.43636100  0.67858600  1
  C  C1  1  0.84200900  0.99890300  0.30369200  1
  C  C2  1  0.83246700  0.97963900  0.19896200  1
  C  C3  1  0.96627100  0.98151000  0.14576900  1
  C  C4  1  0.11106800  0.98464200  0.19938000  1
  C  C5  1  0.11998700  0.00052800  0.30509400  1
  C  C6  1  0.98499500  0.01805500  0.35461300  1
  C  C7  1  0.94944100  0.97663800  0.03307600  1
  C  C8  1  0.05527900  0.03456400  0.97488700  1
  C  C9  1  0.17389700  0.02511600  0.80947000  1
  C  C10  1  0.16590100  0.99316500  0.70622800  1
  C  C11  1  0.02356900  0.96730300  0.65589700  1
  C  C12  1  0.88772900  0.98916500  0.70386700  1
  C  C13  1  0.89550200  0.01633900  0.80835000  1
  C  C14  1  0.03970000  0.02532300  0.86226700  1
  C  C15  1  0.70451500  0.99736900  0.36386300  1
  C  C16  1  0.74037300  0.99192900  0.64031600  1
  C  C17  1  0.30390700  0.99260300  0.64653600  1
  C  C18  1  0.26821300  0.99745200  0.36758300  1
  C  C19  1  0.60100400  0.57980500  0.58768700  1
  C  C20  1  0.58716900  0.41519300  0.59746900  1
  C  C21  1  0.34148900  0.57498500  0.50204200  1
  C  C22  1  0.34187500  0.41096300  0.50235100  1
  C  C23  1  0.56424900  0.57612000  0.41211600  1
  C  C24  1  0.57343900  0.40964900  0.41892400  1
  C  C25  1  0.25021700  0.61675300  0.67918400  1
  C  C26  1  0.11905600  0.65582900  0.74334900  1
  C  C27  1  0.09552400  0.37382400  0.57236500  1
  C  C28  1  0.00068500  0.34086800  0.66080800  1
  N  N1  1  0.49946200  0.63805500  0.50355600  1
  N  N2  1  0.50048200  0.35174500  0.50900600  1
  N  N3  1  0.23727800  0.63458400  0.57522900  1
  N  N4  1  0.25091900  0.35933700  0.58363800  1
  O  O1  1  0.65749600  0.12355100  0.39884000  1
  O  O2  1  0.65474700  0.86941500  0.39473500  1
  O  O3  1  0.68309500  0.86853300  0.60568600  1
  O  O4  1  0.68236900  0.11800500  0.61033700  1
  O  O5  1  0.35291300  0.86881300  0.61193200  1
  O  O6  1  0.35402800  0.11731100  0.61469700  1
  O  O7  1  0.32507600  0.12039600  0.40287000  1
  O  O8  1  0.32385900  0.87179700  0.39956000  1
  O  O9  1  0.36795900  0.57030400  0.72301200  1
  O  O10  1  0.03218200  0.41134000  0.49043000  1
