# Generated by REPEAT Assigner based on pymatgen
data_DB0-m29_o84_o1500_f0_pts.sym.124
_audit_creation_date              2022-05-24
_audit_creation_method            REPEAT_Assigner
_cell_length_a                    13.129103
_cell_length_b                    14.949875
_cell_length_c                    13.260256
_cell_angle_alpha                 100.490754
_cell_angle_beta                  100.439518
_cell_angle_gamma                 69.646110
_cell_volume                      2379.713971
_symmetry_space_group_name_H-M    P1
_symmetry_Int_Tables_number       1
loop_
    _symmetry_equiv_pos_site_id
    _symmetry_equiv_pos_as_xyz
    1  x,y,z
loop_
    _atom_site_type_symbol
    _atom_site_label
    _atom_site_fract_x
    _atom_site_fract_y
    _atom_site_fract_z
    _atom_type_partial_charge
    C   C1   0.240139  0.969127  0.889665  0.044768
    C   C2   0.148087  0.952776  0.831461  -0.199577
    C   C3   0.062522  0.952125  0.877869  0.200127
    C   C4   0.971689  0.937470  0.817368  -0.197612
    C   C5   0.883768  0.940046  0.861764  -0.058716
    C   C6   0.246727  0.981170  0.997409  -0.108493
    C   C7   0.159061  0.980940  0.043486  0.097834
    C   C8   0.066600  0.967204  0.983677  0.007315
    C   C9   0.977636  0.970124  0.029344  -0.006293
    C   C10  0.884213  0.958534  0.968455  0.115460
    C   C11  0.794270  0.962999  0.014604  -0.128871
    C   C12  0.160815  0.998343  0.149652  -0.108213
    C   C13  0.073828  0.001109  0.195022  -0.096309
    C   C14  0.981643  0.986490  0.135707  0.033058
    C   C15  0.893423  0.989836  0.182036  0.161329
    C   C16  0.800712  0.975981  0.122150  -0.043889
    H   H1   0.140909  0.941849  0.748049  0.142957
    H   H2   0.968313  0.924247  0.734126  0.147239
    H   H3   0.816469  0.926397  0.809595  0.136762
    H   H4   0.228564  0.011416  0.200803  0.113137
    H   H5   0.080811  0.015983  0.278170  0.111596
    O   O1   0.608253  0.017923  0.140791  -0.512443
    C   C17  0.711272  0.975750  0.175384  0.620849
    O   O2   0.625730  0.787095  0.219010  -0.457763
    O   O3   0.734900  0.934689  0.259807  -0.537460
    O   O4   0.554436  0.918675  0.334142  -0.536224
    C   C18  0.603749  0.825668  0.313012  0.614038
    Fe  Fe1  0.505149  0.002522  0.223016  1.388341
    O   O5   0.406577  0.940011  0.125054  -0.565745
    O   O6   0.348308  0.088211  0.072898  -0.506863
    C   C19  0.340366  0.001876  0.063636  0.699485
    O   O7   0.442865  0.137616  0.291610  -0.511028
    O   O8   0.353558  0.053529  0.343777  -0.524017
    C   C20  0.369224  0.135662  0.345540  0.567571
    O   O9   0.520792  0.885556  0.685055  -0.562020
    O   O10  0.695549  0.820737  0.760246  -0.490762
    C   C21  0.618896  0.821185  0.681973  0.587504
    O   O11  0.647180  0.016564  0.879672  -0.624980
    O   O12  0.647039  0.894913  0.961336  -0.464914
    C   C22  0.692134  0.957673  0.949901  0.757522
    O   O13  0.308658  0.968360  0.732363  -0.491363
    O   O14  0.469205  0.113185  0.711987  -0.610954
    C   C23  0.367654  0.171847  0.706011  0.603722
    O   O15  0.415825  0.989500  0.882877  -0.531059
    C   C24  0.325594  0.974515  0.833603  0.600145
    O   O16  0.300357  0.169780  0.766865  -0.496314
    Fe  Fe2  0.511401  0.002251  0.790421  1.419767
    H   H6   0.451194  0.117330  0.530861  0.144574
    C   C25  0.334082  0.208722  0.432506  0.041989
    C   C26  0.237228  0.284686  0.422201  0.178841
    C   C27  0.184470  0.329315  0.509315  0.011546
    C   C28  0.227487  0.295115  0.604004  -0.259714
    H   H7   0.184332  0.326689  0.670652  0.150787
    C   C29  0.325671  0.220782  0.613332  0.083473
    C   C30  0.379542  0.180820  0.527869  -0.181345
    C   C31  0.074653  0.490541  0.461406  -0.419256
    H   H8   0.146734  0.495684  0.437709  0.136612
    C   C32  0.978645  0.567400  0.456124  0.428059
    C   C33  0.886219  0.562744  0.488798  -0.229137
    C   C34  0.893165  0.482269  0.530594  -0.023253
    H   H9   0.822346  0.478194  0.557902  0.096395
    C   C35  0.989946  0.406257  0.537304  -0.288408
    H   H10  0.993475  0.343537  0.569288  0.157841
    C   C36  0.080874  0.409585  0.501601  0.308768
    C   C37  0.735182  0.686345  0.397465  -0.270116
    H   H11  0.770860  0.656636  0.326378  0.144417
    C   C38  0.645188  0.769342  0.400701  0.054638
    C   C39  0.601821  0.807709  0.492841  -0.190276
    H   H12  0.534030  0.874241  0.496737  0.162808
    C   C40  0.650379  0.766935  0.582335  0.018361
    C   C41  0.741220  0.685336  0.579096  -0.166332
    H   H13  0.782641  0.655823  0.649801  0.146413
    C   C42  0.783921  0.644686  0.487160  0.284282
    N   N1   0.977814  0.651548  0.421675  -0.517190
    C   C43  0.001550  0.716572  0.498758  0.804505
    O   O17  0.990692  0.714302  0.587550  -0.565660
    C   C44  0.042056  0.791082  0.475574  -0.580940
    H   H14  0.018186  0.641477  0.358743  0.270914
    H   H15  0.980029  0.834580  0.419538  0.142181
    H   H16  0.120230  0.755974  0.442183  0.133587
    H   H17  0.055640  0.838369  0.547878  0.171527
    N   N2   0.895157  0.011543  0.290575  -0.418082
    C   C45  0.855958  0.106192  0.325385  0.695967
    O   O18  0.799781  0.163346  0.266169  -0.535049
    C   C46  0.881502  0.141138  0.436505  -0.455894
    H   H18  0.959837  0.971259  0.337322  0.279382
    H   H19  0.971404  0.123653  0.456941  0.095632
    H   H20  0.850285  0.105930  0.485122  0.125533
    H   H21  0.841662  0.220198  0.450332  0.149999
    N   N3   0.184260  0.304500  0.321947  -0.591083
    C   C47  0.229749  0.348741  0.271425  0.817985
    O   O19  0.321117  0.353622  0.302851  -0.543841
    C   C48  0.166915  0.393989  0.178016  -0.411985
    H   H22  0.100335  0.322789  0.307342  0.273509
    H   H23  0.090402  0.450937  0.198851  0.084927
    H   H24  0.146413  0.338502  0.118077  0.124632
    H   H25  0.217341  0.426356  0.147350  0.128829
