# Generated by REPEAT Assigner based on pymatgen
data_DB0-m2_o10_o11_f0_pcu.sym.41
_audit_creation_date              2022-05-24
_audit_creation_method            REPEAT_Assigner
_cell_length_a                    10.934906
_cell_length_b                    8.754764
_cell_length_c                    7.351674
_cell_angle_alpha                 104.065242
_cell_angle_beta                  96.373567
_cell_angle_gamma                 89.997703
_cell_volume                      678.209759
_symmetry_space_group_name_H-M    P1
_symmetry_Int_Tables_number       1
loop_
    _symmetry_equiv_pos_site_id
    _symmetry_equiv_pos_as_xyz
    1  x,y,z
loop_
    _atom_site_type_symbol
    _atom_site_label
    _atom_site_fract_x
    _atom_site_fract_y
    _atom_site_fract_z
    _atom_type_partial_charge
    O   O1   0.485957  0.231847  0.598334  -0.548428
    O   O2   0.467405  0.201367  0.276541  -0.614014
    C   C1   0.477117  0.145085  0.426625  0.768549
    O   O3   0.318185  0.469480  0.633285  -0.472765
    O   O4   0.296163  0.424036  0.309169  -0.523732
    C   C2   0.250219  0.448199  0.471362  0.629173
    Cu  Cu1  0.497199  0.461679  0.662158  0.867196
    Cu  Cu2  0.473448  0.426081  0.286656  0.783225
    O   O5   0.499992  0.686776  0.672043  -0.629630
    O   O6   0.474311  0.655826  0.350140  -0.576573
    O   O7   0.673887  0.458400  0.638024  -0.595927
    O   O8   0.651925  0.422195  0.315281  -0.580227
    C   C3   0.491281  0.744472  0.523166  0.769205
    C   C4   0.719864  0.440357  0.476744  0.723598
    C   C5   0.904870  0.435738  0.322084  -0.063721
    C   C6   0.853250  0.434964  0.477617  -0.307223
    H   H1   0.845572  0.438724  0.194212  0.110462
    H   H2   0.907006  0.423733  0.605720  0.153041
    C   C7   0.038939  0.428506  0.315445  0.090920
    C   C8   0.116939  0.453894  0.473741  -0.410537
    H   H3   0.072444  0.406909  0.178397  0.063340
    H   H4   0.083782  0.485500  0.609135  0.218921
    C   C9   0.476605  0.976837  0.400099  -0.243571
    H   H5   0.465788  0.907024  0.256495  0.160037
    C   C10  0.492608  0.915334  0.549211  -0.233386
    H   H6   0.505247  0.993880  0.689422  0.152148
    N   N1   0.452972  0.398068  0.006443  -0.019697
    N   N2   0.516909  0.487277  0.942623  -0.203422
    H   H7   0.600115  0.517210  0.022962  0.252831
    C   C11  0.334527  0.343106  0.908230  0.007579
    C   C12  0.247206  0.474539  0.931637  0.254608
    C   C13  0.123314  0.435373  0.898464  -0.120213
    C   C14  0.036979  0.550754  0.919195  -0.000999
    C   C15  0.074579  0.706792  0.973527  -0.219128
    C   C16  0.198739  0.747716  0.007627  -0.143287
    C   C17  0.285357  0.632144  0.986550  -0.093164
    H   H8   0.297982  0.252287  0.971985  0.056076
    H   H9   0.335588  0.277714  0.760033  0.058977
    H   H10  0.093778  0.312482  0.854227  0.046340
    H   H11  0.939413  0.518490  0.892974  0.076020
    H   H12  0.005358  0.795439  0.989009  0.113490
    H   H13  0.228808  0.869591  0.050310  0.123803
    H   H14  0.381772  0.667009  0.010566  0.120104
