# generated using pymatgen
data_Fe2H18C49N4O21
_symmetry_space_group_name_H-M   'P 1'
_cell_length_a   9.40199900
_cell_length_b   19.96366700
_cell_length_c   15.31483400
_cell_angle_alpha   110.34825300
_cell_angle_beta   87.41310000
_cell_angle_gamma   85.06328500
_symmetry_Int_Tables_number   1
_chemical_formula_structural   Fe2H18C49N4O21
_chemical_formula_sum   'Fe2 H18 C49 N4 O21'
_cell_volume   2676.50548071
_cell_formula_units_Z   1
loop_
 _symmetry_equiv_pos_site_id
 _symmetry_equiv_pos_as_xyz
  1  'x, y, z'
loop_
 _atom_site_type_symbol
 _atom_site_label
 _atom_site_symmetry_multiplicity
 _atom_site_fract_x
 _atom_site_fract_y
 _atom_site_fract_z
 _atom_site_occupancy
  Fe  Fe1  1  0.53685400  0.99334500  0.31612200  1
  Fe  Fe2  1  0.53767200  0.00730100  0.66700800  1
  H  H1  1  0.36716000  0.03537300  0.91951600  1
  H  H2  1  0.99822300  0.01280600  0.70522400  1
  H  H3  1  0.08179000  0.97997900  0.28073300  1
  H  H4  1  0.80360100  0.98019000  0.93509500  1
  H  H5  1  0.81154800  0.98888500  0.07168800  1
  H  H6  1  0.96849000  0.65306900  0.68372600  1
  H  H7  1  0.12295000  0.56178700  0.71389600  1
  H  H8  1  0.07166700  0.33808900  0.28074800  1
  H  H9  1  0.95477000  0.43609200  0.24268400  1
  H  H10  1  0.37907600  0.23540500  0.43120200  1
  H  H11  1  0.25697900  0.26022600  0.75707000  1
  H  H12  1  0.15598600  0.34948700  0.70001100  1
  H  H13  1  0.84769800  0.77577100  0.51397300  1
  H  H14  1  0.62305000  0.62309100  0.31465600  1
  H  H15  1  0.39040200  0.74961000  0.26494900  1
  H  H16  1  0.40778900  0.72583900  0.08853200  1
  H  H17  1  0.34596300  0.64510000  0.09847400  1
  H  H18  1  0.50306300  0.63886000  0.02209500  1
  C  C1  1  0.00948500  0.00990400  0.77367900  1
  C  C2  1  0.89054600  0.99966800  0.82057100  1
  C  C3  1  0.90024500  0.99098500  0.90498700  1
  C  C4  1  0.14182700  0.01092100  0.80980700  1
  C  C5  1  0.14922400  0.00916400  0.90084300  1
  C  C6  1  0.02748300  0.99852500  0.94852400  1
  C  C7  1  0.03635200  0.99537000  0.03859300  1
  C  C8  1  0.91855100  0.98861800  0.09305100  1
  C  C9  1  0.93431600  0.98363700  0.18004600  1
  C  C10  1  0.27381400  0.01974400  0.94683500  1
  C  C11  1  0.16725200  0.00089000  0.07670800  1
  C  C12  1  0.18336400  0.99391300  0.16250200  1
  C  C13  1  0.06803700  0.98348700  0.21276600  1
  C  C14  1  0.80909700  0.98199300  0.24000500  1
  C  C15  1  0.55723400  0.86140700  0.33827500  1
  C  C16  1  0.32138400  0.00004200  0.20324200  1
  C  C17  1  0.42375700  0.11260600  0.46096300  1
  C  C18  1  0.66698500  0.88577500  0.52495500  1
  C  C19  1  0.75414100  0.99431600  0.77816500  1
  C  C20  1  0.41849600  0.13754700  0.66238400  1
  C  C21  1  0.26596600  0.01217700  0.74663700  1
  C  C22  1  0.88129600  0.57012900  0.36229400  1
  C  C23  1  0.86118800  0.64074100  0.52141100  1
  C  C24  1  0.95056900  0.58936600  0.53974300  1
  C  C25  1  0.99117700  0.52439800  0.47031100  1
  C  C26  1  0.95165500  0.51360500  0.38176800  1
  C  C27  1  0.99705800  0.60204600  0.62787600  1
  C  C28  1  0.08602900  0.55014500  0.64489700  1
  C  C29  1  0.11914500  0.48321800  0.57614400  1
  C  C30  1  0.06874300  0.47019900  0.48985500  1
  C  C31  1  0.09489600  0.40251500  0.42368200  1
  C  C32  1  0.05160000  0.39057300  0.33481900  1
  C  C33  1  0.98507100  0.44656300  0.31304900  1
  C  C34  1  0.20083600  0.42908700  0.59371200  1
  C  C35  1  0.15790800  0.34677100  0.44809200  1
  C  C36  1  0.35062800  0.24172500  0.50289800  1
  C  C37  1  0.38971200  0.18472900  0.53198500  1
  C  C38  1  0.36501400  0.19297800  0.62553900  1
  C  C39  1  0.28421000  0.25389700  0.68515100  1
  C  C40  1  0.22960100  0.30612100  0.65288500  1
  C  C41  1  0.26744300  0.30298400  0.56290200  1
  C  C42  1  0.77202200  0.76154700  0.46135000  1
  C  C43  1  0.68569600  0.81641400  0.44915500  1
  C  C44  1  0.60284400  0.80288700  0.37353900  1
  C  C45  1  0.58355700  0.73173300  0.32362700  1
  C  C46  1  0.65149600  0.67694100  0.34776800  1
  C  C47  1  0.75382500  0.69048700  0.41242300  1
  C  C48  1  0.53406700  0.67731700  0.16757800  1
  C  C49  1  0.44178600  0.67144900  0.08925500  1
  N  N1  1  0.28050600  0.01380300  0.03104100  1
  N  N2  1  0.83280500  0.63277700  0.43234200  1
  N  N3  1  0.21170000  0.36034000  0.53273900  1
  N  N4  1  0.48139800  0.71468700  0.25640600  1
  O  O1  1  0.67888600  0.98953900  0.21470200  1
  O  O2  1  0.53822900  0.84503800  0.24921300  1
  O  O3  1  0.82631400  0.97772700  0.32253200  1
  O  O4  1  0.56301900  0.92946000  0.38960100  1
  O  O5  1  0.35553500  0.96334700  0.25698600  1
  O  O6  1  0.40457100  0.04714900  0.19420800  1
  O  O7  1  0.54132200  0.09443800  0.40463500  1
  O  O8  1  0.33437700  0.06446300  0.45488000  1
  O  O9  1  0.53716400  0.91172100  0.56447100  1
  O  O10  1  0.77854100  0.91758700  0.55997700  1
  O  O11  1  0.71866600  0.03436400  0.72869400  1
  O  O12  1  0.66951800  0.94770000  0.78684300  1
  O  O13  1  0.24166200  0.02211200  0.66808600  1
  O  O14  1  0.50442100  0.08142400  0.60949700  1
  O  O15  1  0.39940000  0.99822100  0.76267900  1
  O  O16  1  0.38353800  0.14509600  0.74945100  1
  O  O17  1  0.86477300  0.56256000  0.27277100  1
  O  O18  1  0.79873600  0.69735200  0.59378000  1
  O  O19  1  0.26945100  0.44554700  0.67241200  1
  O  O20  1  0.15823100  0.27897000  0.38855000  1
  O  O21  1  0.65733700  0.64911100  0.15076100  1
