# generated using pymatgen
data_Zn2H36C65N4O15
_symmetry_space_group_name_H-M   'P 1'
_cell_length_a   23.43951600
_cell_length_b   10.97776000
_cell_length_c   9.83159300
_cell_angle_alpha   90.00453400
_cell_angle_beta   89.99608800
_cell_angle_gamma   90.00860400
_symmetry_Int_Tables_number   1
_chemical_formula_structural   Zn2H36C65N4O15
_chemical_formula_sum   'Zn2 H36 C65 N4 O15'
_cell_volume   2529.80039472
_cell_formula_units_Z   1
loop_
 _symmetry_equiv_pos_site_id
 _symmetry_equiv_pos_as_xyz
  1  'x, y, z'
loop_
 _atom_site_type_symbol
 _atom_site_label
 _atom_site_symmetry_multiplicity
 _atom_site_fract_x
 _atom_site_fract_y
 _atom_site_fract_z
 _atom_site_occupancy
  Zn  Zn1  1  0.49388400  0.53962000  0.69681100  1
  Zn  Zn2  1  0.49400700  0.54005700  0.38726200  1
  H  H1  1  0.94280900  0.24489700  0.47550000  1
  H  H2  1  0.04557400  0.24466900  0.47755800  1
  H  H3  1  0.04643100  0.83201300  0.64355300  1
  H  H4  1  0.20499700  0.67845200  0.40386300  1
  H  H5  1  0.31577000  0.40430100  0.69740200  1
  H  H6  1  0.21170000  0.40258500  0.70871400  1
  H  H7  1  0.77672200  0.41363000  0.71811400  1
  H  H8  1  0.67254800  0.41877500  0.71202800  1
  H  H9  1  0.78346400  0.66321500  0.38775000  1
  H  H10  1  0.48555200  0.15090600  0.32366600  1
  H  H11  1  0.48565800  0.92956500  0.32292800  1
  H  H12  1  0.46745500  0.92754400  0.85603800  1
  H  H13  1  0.54745200  0.92787400  0.83450200  1
  H  H14  1  0.46739200  0.14811100  0.85763700  1
  H  H15  1  0.54733900  0.14911500  0.83600700  1
  H  H16  1  0.56689200  0.64968700  0.16705900  1
  H  H17  1  0.56700100  0.64930200  0.91664500  1
  H  H18  1  0.36560400  0.46098500  0.92105000  1
  H  H19  1  0.40960800  0.31735600  0.91578100  1
  H  H20  1  0.36656200  0.45536100  0.16820200  1
  H  H21  1  0.41173500  0.31328800  0.16444300  1
  H  H22  1  0.65817600  0.88725900  0.18911600  1
  H  H23  1  0.68766800  0.90475700  0.95171200  1
  H  H24  1  0.73686400  0.73482700  0.83881000  1
  H  H25  1  0.75568600  0.54549000  0.96444400  1
  H  H26  1  0.72568600  0.52480300  0.20055300  1
  H  H27  1  0.91228900  0.10578600  0.69014400  1
  H  H28  1  0.92299800  0.21695800  0.90336900  1
  H  H29  1  0.96140600  0.11455700  0.10591400  1
  H  H30  1  0.98864100  0.89865500  0.09440200  1
  H  H31  1  0.97781000  0.78495300  0.88379200  1
  H  H32  1  0.34418800  0.89470300  0.20656100  1
  H  H33  1  0.33848700  0.11219300  0.25493600  1
  H  H34  1  0.30309600  0.18408900  0.47613400  1
  H  H35  1  0.27369500  0.03631500  0.65027900  1
  H  H36  1  0.27945400  0.81890500  0.60582200  1
  C  C1  1  0.49390400  0.30139400  0.54251300  1
  C  C2  1  0.38223300  0.54128200  0.54168700  1
  C  C3  1  0.49414600  0.77819200  0.54120400  1
  C  C4  1  0.60567300  0.54074400  0.54241400  1
  C  C5  1  0.87463300  0.64075800  0.58972700  1
  C  C6  1  0.87614500  0.43428300  0.52799500  1
  C  C7  1  0.93500300  0.43387800  0.53030000  1
  C  C8  1  0.96420500  0.53951400  0.56111000  1
  C  C9  1  0.93424400  0.64539900  0.58975500  1
  C  C10  1  0.96476600  0.32848200  0.50049100  1
  C  C11  1  0.02345400  0.32828900  0.50159500  1
  C  C12  1  0.05291000  0.43359300  0.53266600  1
  C  C13  1  0.02323300  0.53862200  0.56254500  1
  C  C14  1  0.05303700  0.64280500  0.59311100  1
  C  C15  1  0.02375400  0.74847000  0.62230900  1
  C  C16  1  0.96493600  0.75140200  0.61996800  1
  C  C17  1  0.11195400  0.43495600  0.53216200  1
  C  C18  1  0.11207200  0.64135500  0.59240500  1
  C  C19  1  0.22929000  0.61793900  0.46844500  1
  C  C20  1  0.28808900  0.61900700  0.46093600  1
  C  C21  1  0.31967500  0.54101800  0.54277100  1
  C  C22  1  0.29167700  0.46480200  0.63247900  1
  C  C23  1  0.23291200  0.46309100  0.63820700  1
  C  C24  1  0.20144700  0.53956500  0.55592100  1
  C  C25  1  0.75524700  0.46850000  0.64252600  1
  C  C26  1  0.69647900  0.47252800  0.63970300  1
  C  C27  1  0.66828600  0.54212700  0.54368900  1
  C  C28  1  0.69972600  0.61005100  0.45063600  1
  C  C29  1  0.75865500  0.60734300  0.45628900  1
  C  C30  1  0.78646500  0.53653100  0.55124900  1
  C  C31  1  0.49845100  0.09989400  0.65749800  1
  C  C32  1  0.49384700  0.16793100  0.54081000  1
  C  C33  1  0.48933500  0.10350300  0.41956100  1
  C  C34  1  0.48940600  0.97649400  0.41913400  1
  C  C35  1  0.49399700  0.91152100  0.53997200  1
  C  C36  1  0.49850800  0.97884000  0.65692700  1
  C  C37  1  0.50557200  0.96746500  0.80622600  1
  C  C38  1  0.50552200  0.10958900  0.80704600  1
  C  C39  1  0.45488100  0.48010500  0.10895500  1
  C  C40  1  0.53424800  0.59981300  0.11315800  1
  C  C41  1  0.53420900  0.59981900  0.97069200  1
  C  C42  1  0.45440000  0.48144200  0.97537300  1
  C  C43  1  0.40179100  0.40758000  0.96241300  1
  C  C44  1  0.40266900  0.40495200  0.12228300  1
  C  C45  1  0.67221400  0.69556000  0.35584300  1
  C  C46  1  0.69093100  0.70588700  0.21329900  1
  C  C47  1  0.67960100  0.81137300  0.14119800  1
  C  C48  1  0.69629100  0.82177600  0.00721000  1
  C  C49  1  0.72390300  0.72663400  0.94393300  1
  C  C50  1  0.73457500  0.62067800  0.01449900  1
  C  C51  1  0.71804300  0.60993000  0.14857700  1
  C  C52  1  0.93820200  0.87095100  0.64097000  1
  C  C53  1  0.94511200  0.93759400  0.77001700  1
  C  C54  1  0.92925100  0.05884200  0.77785200  1
  C  C55  1  0.93525600  0.12214800  0.89813800  1
  C  C56  1  0.95679800  0.06484800  0.01163300  1
  C  C57  1  0.97215200  0.94391200  0.00502300  1
  C  C58  1  0.96630100  0.88018600  0.88493400  1
  C  C59  1  0.31540100  0.70899400  0.37186300  1
  C  C60  1  0.31160300  0.84023400  0.40170300  1
  C  C61  1  0.32855500  0.92409900  0.30462600  1
  C  C62  1  0.32536500  0.04720400  0.33138200  1
  C  C63  1  0.30550600  0.08754400  0.45525800  1
  C  C64  1  0.28894800  0.00466800  0.55271400  1
  C  C65  1  0.29197700  0.88142300  0.52647100  1
  N  N1  1  0.84724300  0.53685600  0.55692500  1
  N  N2  1  0.14056900  0.53832000  0.56131100  1
  N  N3  1  0.49382400  0.53869100  0.18379200  1
  N  N4  1  0.49344600  0.53950500  0.90028800  1
  O  O1  1  0.49394200  0.35790100  0.66023500  1
  O  O2  1  0.49374400  0.35874900  0.42544600  1
  O  O3  1  0.40889100  0.53890600  0.65914400  1
  O  O4  1  0.40894800  0.54089400  0.42437800  1
  O  O5  1  0.49408900  0.72110700  0.65866200  1
  O  O6  1  0.49401800  0.72156000  0.42387500  1
  O  O7  1  0.57895000  0.53864000  0.65965800  1
  O  O8  1  0.57898500  0.54031200  0.42502200  1
  O  O9  1  0.84311000  0.73729700  0.62697500  1
  O  O10  1  0.84733900  0.33273200  0.49468600  1
  O  O11  1  0.14102400  0.33385600  0.49846100  1
  O  O12  1  0.14132200  0.74258700  0.62481300  1
  O  O13  1  0.63542300  0.76433700  0.39829000  1
  O  O14  1  0.91305100  0.91896500  0.54650300  1
  O  O15  1  0.33775800  0.67515900  0.26649800  1
