# generated using pymatgen
data_V2H26C47(N2O5)3
_symmetry_space_group_name_H-M   'P 1'
_cell_length_a   6.32616500
_cell_length_b   26.85821300
_cell_length_c   31.53683000
_cell_angle_alpha   101.49846200
_cell_angle_beta   89.57487200
_cell_angle_gamma   90.49938400
_symmetry_Int_Tables_number   1
_chemical_formula_structural   V2H26C47(N2O5)3
_chemical_formula_sum   'V4 H52 C94 N12 O30'
_cell_volume   5250.57595649
_cell_formula_units_Z   2
loop_
 _symmetry_equiv_pos_site_id
 _symmetry_equiv_pos_as_xyz
  1  'x, y, z'
loop_
 _atom_site_type_symbol
 _atom_site_label
 _atom_site_symmetry_multiplicity
 _atom_site_fract_x
 _atom_site_fract_y
 _atom_site_fract_z
 _atom_site_occupancy
  V  V1  1  0.90568300  0.49549900  0.50104800  1
  V  V2  1  0.40602000  0.50776100  0.50240300  1
  V  V3  1  0.25283500  0.00757300  0.00249300  1
  V  V4  1  0.75244100  0.99530800  0.00128300  1
  H  H1  1  0.79841800  0.58068100  0.62401300  1
  H  H2  1  0.04510800  0.67900700  0.14524000  1
  H  H3  1  0.06745800  0.62288100  0.19799700  1
  H  H4  1  0.83616600  0.81005800  0.10000200  1
  H  H5  1  0.84934600  0.86580000  0.04708400  1
  H  H6  1  0.17735200  0.92118800  0.18979900  1
  H  H7  1  0.85714100  0.68446400  0.40264900  1
  H  H8  1  0.89878500  0.62952000  0.45556400  1
  H  H9  1  0.32456900  0.53619700  0.36992700  1
  H  H10  1  0.27811500  0.58994100  0.31634800  1
  H  H11  1  0.61601200  0.12203900  0.69750800  1
  H  H12  1  0.79341100  0.64923600  0.68848300  1
  H  H13  1  0.63312500  0.17832400  0.64470700  1
  H  H14  1  0.65760200  0.37955300  0.80564100  1
  H  H15  1  0.65624600  0.32314800  0.85840000  1
  H  H16  1  0.45896300  0.41859700  0.68826900  1
  H  H17  1  0.43959700  0.47311500  0.63456500  1
  H  H18  1  0.81248800  0.36737000  0.54705200  1
  H  H19  1  0.82567600  0.31178500  0.60000100  1
  H  H20  1  0.39890800  0.08686200  0.81524500  1
  H  H21  1  0.35234300  0.03292300  0.86889800  1
  H  H22  1  0.75867300  0.13102600  0.95562300  1
  H  H23  1  0.42954900  0.68797000  0.66270600  1
  H  H24  1  0.79899200  0.18632700  0.90268100  1
  H  H25  1  0.29749900  0.39074700  0.40898900  1
  H  H26  1  0.26480700  0.32417100  0.34316100  1
  H  H27  1  0.91239000  0.34596100  0.31298000  1
  H  H28  1  0.94174700  0.41427500  0.37731600  1
  H  H29  1  0.23066600  0.18933200  0.16165200  1
  H  H30  1  0.22936900  0.12180400  0.09607100  1
  H  H31  1  0.85752800  0.08221800  0.12339100  1
  H  H32  1  0.86303400  0.15135700  0.18741800  1
  H  H33  1  0.48892500  0.98736600  0.10233200  1
  H  H34  1  0.43056000  0.62104400  0.59671900  1
  H  H35  1  0.45201300  0.93203600  0.12637200  1
  H  H36  1  0.53747600  0.04099200  0.17561800  1
  H  H37  1  0.49928500  0.98559000  0.19952900  1
  H  H38  1  0.80861500  0.94454400  0.15820800  1
  H  H39  1  0.88072900  0.00495500  0.19196200  1
  H  H40  1  0.84683000  0.99994300  0.13429100  1
  H  H41  1  0.74822300  0.82185800  0.41310000  1
  H  H42  1  0.69549700  0.78856500  0.35848900  1
  H  H43  1  0.71875400  0.90453000  0.38957000  1
  H  H44  1  0.66593700  0.87121600  0.33483100  1
  H  H45  1  0.74797700  0.84364800  0.81424600  1
  H  H46  1  0.34860300  0.83089500  0.36088000  1
  H  H47  1  0.33353500  0.89954300  0.37444900  1
  H  H48  1  0.40144000  0.86418400  0.41562300  1
  H  H49  1  0.71886200  0.91242100  0.87823200  1
  H  H50  1  0.35970300  0.88960800  0.90987800  1
  H  H51  1  0.39237900  0.82256200  0.84436600  1
  H  H52  1  0.97331500  0.87931300  0.30627300  1
  C  C1  1  0.61173900  0.45584100  0.55554700  1
  C  C2  1  0.11453000  0.59670200  0.60647100  1
  C  C3  1  0.08503100  0.78815600  0.78736800  1
  C  C4  1  0.10380300  0.71345000  0.71770300  1
  C  C5  1  0.88302800  0.85405200  0.83502500  1
  C  C6  1  0.86688300  0.89268300  0.87081700  1
  C  C7  1  0.03723800  0.90517400  0.89792500  1
  C  C8  1  0.22595800  0.87981200  0.88862500  1
  C  C9  1  0.24443700  0.84232000  0.85183900  1
  C  C10  1  0.07187600  0.82906200  0.82534700  1
  C  C11  1  0.05645800  0.65288500  0.28276100  1
  C  C12  1  0.64541300  0.44576900  0.43603300  1
  C  C13  1  0.01754000  0.72325200  0.33955700  1
  C  C14  1  0.00786300  0.75521100  0.31039600  1
  C  C15  1  0.01962500  0.73527300  0.26682400  1
  C  C16  1  0.04177300  0.68378300  0.25284900  1
  C  C17  1  0.98932700  0.80701000  0.32466700  1
  C  C18  1  0.98535300  0.83867600  0.29513900  1
  C  C19  1  0.99691400  0.81837500  0.25139900  1
  C  C20  1  0.01130800  0.76670800  0.23738800  1
  C  C21  1  0.01946300  0.74667700  0.19379800  1
  C  C22  1  0.03794200  0.69487600  0.17952400  1
  C  C23  1  0.14527200  0.54778500  0.44791200  1
  C  C24  1  0.05058300  0.66341400  0.20910100  1
  C  C25  1  0.99555800  0.84955200  0.22153800  1
  C  C26  1  0.01199900  0.77867000  0.16464700  1
  C  C27  1  0.91523200  0.84650200  0.10812700  1
  C  C28  1  0.92121400  0.87795100  0.07847600  1
  C  C29  1  0.02446900  0.92419400  0.08836200  1
  C  C30  1  0.11640300  0.93961700  0.12837500  1
  C  C31  1  0.10357300  0.90903000  0.15862300  1
  C  C32  1  0.00560900  0.86209700  0.14834200  1
  C  C33  1  0.95973800  0.65188900  0.39528600  1
  C  C34  1  0.11051000  0.55723100  0.56736600  1
  C  C35  1  0.98182700  0.62083000  0.42492800  1
  C  C36  1  0.11414500  0.57948300  0.41595500  1
  C  C37  1  0.22030700  0.56851400  0.37692300  1
  C  C38  1  0.19275300  0.59852600  0.34669200  1
  C  C39  1  0.06434100  0.64062100  0.35599800  1
  C  C40  1  0.63843400  0.22311700  0.83906800  1
  C  C41  1  0.61523300  0.15226400  0.78225400  1
  C  C42  1  0.62729400  0.18328200  0.75233500  1
  C  C43  1  0.63970200  0.23502400  0.76629800  1
  C  C44  1  0.64480000  0.25515100  0.80988300  1
  C  C45  1  0.93718600  0.60422400  0.63251000  1
  C  C46  1  0.62524700  0.16276200  0.70859000  1
  C  C47  1  0.63491300  0.19431300  0.67899200  1
  C  C48  1  0.64346900  0.24631200  0.69323800  1
  C  C49  1  0.64480700  0.26649100  0.73682500  1
  C  C50  1  0.64912600  0.31830000  0.75078800  1
  C  C51  1  0.65360900  0.33879200  0.79453600  1
  C  C52  1  0.65301100  0.30716300  0.82412000  1
  C  C53  1  0.64796100  0.27831300  0.66404600  1
  C  C54  1  0.64769500  0.34940600  0.72086700  1
  C  C55  1  0.53818600  0.40736200  0.65741600  1
  C  C56  1  0.93419300  0.64272400  0.66857600  1
  C  C57  1  0.52586700  0.43784800  0.62714000  1
  C  C58  1  0.62510400  0.42360800  0.58756400  1
  C  C59  1  0.73477200  0.37858000  0.57809300  1
  C  C60  1  0.74077900  0.34720100  0.60776000  1
  C  C61  1  0.64343300  0.36167100  0.64758100  1
  C  C62  1  0.48010900  0.09645400  0.84584100  1
  C  C63  1  0.45254800  0.06631100  0.87609800  1
  C  C64  1  0.55330600  0.07853700  0.91544300  1
  C  C65  1  0.68022900  0.12128300  0.92470700  1
  C  C66  1  0.70159300  0.15251600  0.89505600  1
  C  C67  1  0.11118000  0.67262000  0.67959000  1
  C  C68  1  0.60242100  0.13998000  0.85546200  1
  C  C69  1  0.43192500  0.38124100  0.38763700  1
  C  C70  1  0.41344200  0.34401600  0.35067400  1
  C  C71  1  0.58686400  0.33106600  0.32408500  1
  C  C72  1  0.77662900  0.35614300  0.33382400  1
  C  C73  1  0.79292500  0.39451400  0.36981400  1
  C  C74  1  0.62165500  0.40665000  0.39703500  1
  C  C75  1  0.55469900  0.21543900  0.21645300  1
  C  C76  1  0.57367800  0.29026100  0.28603000  1
  C  C77  1  0.36833300  0.16577600  0.15321700  1
  C  C78  1  0.29099400  0.66435500  0.65419600  1
  C  C79  1  0.36779800  0.12801100  0.11639100  1
  C  C80  1  0.54338600  0.09781700  0.10586600  1
  C  C81  1  0.71974100  0.10574400  0.13177900  1
  C  C82  1  0.72303400  0.14457200  0.16759100  1
  C  C83  1  0.54719400  0.17440300  0.17849800  1
  C  C84  1  0.54721700  0.05788100  0.06708700  1
  C  C85  1  0.52025000  0.04683100  0.94749000  1
  C  C86  1  0.01355400  0.94472400  0.93663500  1
  C  C87  1  0.03990800  0.95639200  0.05627300  1
  C  C88  1  0.43169500  0.97377700  0.13138500  1
  C  C89  1  0.29136900  0.62692800  0.61714100  1
  C  C90  1  0.55724700  0.99923000  0.17055300  1
  C  C91  1  0.78884500  0.98630300  0.16326400  1
  C  C92  1  0.76458700  0.82356200  0.37838100  1
  C  C93  1  0.64958200  0.86961400  0.36957000  1
  C  C94  1  0.41778800  0.86580400  0.38088700  1
  N  N1  1  0.28317900  0.73492900  0.73573500  1
  N  N2  1  0.74302800  0.23183900  0.23342900  1
  N  N3  1  0.37548600  0.23678100  0.23455900  1
  N  N4  1  0.38484400  0.27365500  0.26927700  1
  N  N5  1  0.27390400  0.77174700  0.77049600  1
  N  N6  1  0.90608100  0.76689800  0.76911400  1
  N  N7  1  0.91541800  0.72964100  0.73480600  1
  N  N8  1  0.04389100  0.67286100  0.32547700  1
  N  N9  1  0.00249700  0.82942500  0.17880000  1
  N  N10  1  0.62125800  0.17242700  0.82497600  1
  N  N11  1  0.64790000  0.32914600  0.67813400  1
  N  N12  1  0.75249700  0.26915400  0.26769400  1
  O  O1  1  0.52574100  0.44383300  0.46969200  1
  O  O2  1  0.13010800  0.46262400  0.49825900  1
  O  O3  1  0.07951600  0.60256800  0.26915000  1
  O  O4  1  0.00840300  0.74275300  0.38217900  1
  O  O5  1  0.98347900  0.90011200  0.23516700  1
  O  O6  1  0.02212900  0.75918400  0.12203100  1
  O  O7  1  0.64137800  0.24272400  0.88170000  1
  O  O8  1  0.60109000  0.10169000  0.76866100  1
  O  O9  1  0.64473900  0.25863900  0.62142800  1
  O  O10  1  0.65021600  0.40007900  0.73444100  1
  O  O11  1  0.63320800  0.05506200  0.98262900  1
  O  O12  1  0.72489100  0.44311500  0.51953100  1
  O  O13  1  0.43054800  0.06403700  0.03357400  1
  O  O14  1  0.20979700  0.98560000  0.05787100  1
  O  O15  1  0.34425300  0.02126500  0.94588300  1
  O  O16  1  0.13079700  0.94332100  0.97038700  1
  O  O17  1  0.71440700  0.02805400  0.06241300  1
  O  O18  1  0.52552300  0.96250800  0.99886400  1
  O  O19  1  0.83951600  0.97077100  0.94053100  1
  O  O20  1  0.92800300  0.94331400  0.02034900  1
  O  O21  1  0.02836300  0.04054300  0.00646500  1
  O  O22  1  0.21834600  0.98547400  0.13824000  1
  O  O23  1  0.94163200  0.52734800  0.56238700  1
  O  O24  1  0.97807200  0.82699700  0.36798000  1
  O  O25  1  0.82114700  0.47179400  0.44020000  1
  O  O26  1  0.03065900  0.55563000  0.48308400  1
  O  O27  1  0.44318800  0.48487600  0.55739000  1
  O  O28  1  0.63283500  0.54074900  0.50674900  1
  O  O29  1  0.31997800  0.52234900  0.44608300  1
  O  O30  1  0.23011800  0.56389400  0.53400900  1
