data_DB0-m3_o540_o21_f0_fsc.sym.3_repeat
_audit_creation_date              2024-02-20
_audit_creation_method            'Materials Studio'
_symmetry_space_group_name_H-M    'P1'
_symmetry_Int_Tables_number       1
_symmetry_cell_setting            triclinic
loop_
_symmetry_equiv_pos_as_xyz
  x,y,z
_cell_length_a                    12.4676
_cell_length_b                    8.5461
_cell_length_c                    23.2741
_cell_angle_alpha                 90.0000
_cell_angle_beta                  99.1501
_cell_angle_gamma                 90.0000
loop_
_atom_site_label
_atom_site_type_symbol
_atom_site_fract_x
_atom_site_fract_y
_atom_site_fract_z
_atom_site_U_iso_or_equiv
_atom_site_adp_type
_atom_site_occupancy
C1     C     0.93042   0.08859   0.78452   0.00000  Uiso   1.00
C2     C     0.07297   0.91845   0.21583   0.00000  Uiso   1.00
C3     C     0.92435   0.08849   0.20239   0.00000  Uiso   1.00
C4     C     0.07051   0.90414   0.79737   0.00000  Uiso   1.00
O1     O     0.85900   0.17591   0.74882   0.00000  Uiso   1.00
O2     O     0.14765   0.83729   0.25193   0.00000  Uiso   1.00
O3     O     0.84833   0.16909   0.22491   0.00000  Uiso   1.00
O4     O     0.14354   0.81726   0.77488   0.00000  Uiso   1.00
N1     N     0.00122   0.99654   0.76216   0.00000  Uiso   1.00
N2     N     0.99810   0.00340   0.23780   0.00000  Uiso   1.00
C5     C     0.00937   0.85948   0.67127   0.00000  Uiso   1.00
C6     C     0.98915   0.14083   0.32835   0.00000  Uiso   1.00
C7     C     0.99250   0.86027   0.32797   0.00000  Uiso   1.00
C8     C     0.00927   0.14005   0.67213   0.00000  Uiso   1.00
C9     C     0.02695   0.86120   0.61431   0.00000  Uiso   1.00
C10    C     0.97350   0.13896   0.38561   0.00000  Uiso   1.00
C11    C     0.97546   0.85973   0.38513   0.00000  Uiso   1.00
C12    C     0.02569   0.14036   0.61487   0.00000  Uiso   1.00
C13    C     0.00595   0.99894   0.70128   0.00000  Uiso   1.00
C14    C     0.99400   0.00127   0.29866   0.00000  Uiso   1.00
C15    C     0.99929   0.99708   0.88055   0.00000  Uiso   1.00
C16    C     0.99952   0.00277   0.11948   0.00000  Uiso   1.00
C17    C     0.92915   0.09054   0.84390   0.00000  Uiso   1.00
C18    C     0.07471   0.91755   0.15650   0.00000  Uiso   1.00
C19    C     0.92405   0.08892   0.14299   0.00000  Uiso   1.00
C20    C     0.06982   0.90260   0.85669   0.00000  Uiso   1.00
C21    C     0.85853   0.18684   0.86673   0.00000  Uiso   1.00
C22    C     0.15211   0.83294   0.13419   0.00000  Uiso   1.00
C23    C     0.84699   0.17290   0.10701   0.00000  Uiso   1.00
C24    C     0.13986   0.80684   0.89214   0.00000  Uiso   1.00
C25    C     0.04039   0.00137   0.58754   0.00000  Uiso   1.00
C26    C     0.96082   0.99870   0.41251   0.00000  Uiso   1.00
H1     H     0.00393   0.25022   0.69426   0.00000  Uiso   1.00
H2     H     0.99958   0.75049   0.30584   0.00000  Uiso   1.00
H3     H     0.99830   0.25123   0.30697   0.00000  Uiso   1.00
H4     H     0.99799   0.74903   0.69212   0.00000  Uiso   1.00
H5     H     0.80383   0.26337   0.83908   0.00000  Uiso   1.00
H6     H     0.21350   0.76766   0.16236   0.00000  Uiso   1.00
H7     H     0.78552   0.23915   0.12427   0.00000  Uiso   1.00
H8     H     0.19467   0.72925   0.87438   0.00000  Uiso   1.00
C27    C     0.92356   0.09013   0.02330   0.00000  Uiso   1.00
C28    C     0.07253   0.90540   0.97653   0.00000  Uiso   1.00
C29    C     0.92595   0.09285   0.96337   0.00000  Uiso   1.00
C30    C     0.07534   0.91144   0.03685   0.00000  Uiso   1.00
C31    C     0.99952   0.00153   0.05969   0.00000  Uiso   1.00
C32    C     0.99920   0.99838   0.94034   0.00000  Uiso   1.00
C33    C     0.84616   0.17322   0.04799   0.00000  Uiso   1.00
C34    C     0.14096   0.80713   0.95117   0.00000  Uiso   1.00
C35    C     0.85712   0.18896   0.92559   0.00000  Uiso   1.00
C36    C     0.15307   0.83036   0.07529   0.00000  Uiso   1.00
H9     H     0.78098   0.23809   0.02327   0.00000  Uiso   1.00
H10    H     0.19573   0.72485   0.97512   0.00000  Uiso   1.00
H11    H     0.80188   0.27158   0.93957   0.00000  Uiso   1.00
H12    H     0.21852   0.76522   0.06206   0.00000  Uiso   1.00
H13    H     0.05399   0.00234   0.54300   0.00000  Uiso   1.00
H14    H     0.94767   0.99767   0.45712   0.00000  Uiso   1.00
O5     O     0.10667   0.66976   0.55998   0.00000  Uiso   1.00
O6     O     0.89413   0.33042   0.43995   0.00000  Uiso   1.00
O7     O     0.89520   0.66882   0.43932   0.00000  Uiso   1.00
O8     O     0.10566   0.33133   0.56066   0.00000  Uiso   1.00
O9     O     0.92158   0.66435   0.56012   0.00000  Uiso   1.00
O10    O     0.07922   0.33567   0.43986   0.00000  Uiso   1.00
O11    O     0.08022   0.66171   0.43918   0.00000  Uiso   1.00
O12    O     0.92064   0.33829   0.56076   0.00000  Uiso   1.00
C37    C     0.01905   0.71953   0.57892   0.00000  Uiso   1.00
C38    C     0.98168   0.28063   0.42100   0.00000  Uiso   1.00
C39    C     0.98290   0.71717   0.42009   0.00000  Uiso   1.00
C40    C     0.01802   0.28290   0.57988   0.00000  Uiso   1.00
Zn1    Zn    0.88036   0.50064   0.49825   0.00000  Uiso   1.00
Zn2    Zn    0.12047   0.49944   0.50171   0.00000  Uiso   1.00
N3     N     0.26214   0.49837   0.50486   0.00000  Uiso   1.00
N4     N     0.73869   0.50172   0.49510   0.00000  Uiso   1.00
C41    C     0.47303   0.49398   0.52215   0.00000  Uiso   1.00
C42    C     0.52780   0.50609   0.47782   0.00000  Uiso   1.00
C43    C     0.64469   0.50354   0.48798   0.00000  Uiso   1.00
C44    C     0.35614   0.49654   0.51199   0.00000  Uiso   1.00
N5     N     0.47072   0.52156   0.41993   0.00000  Uiso   1.00
H15    H     0.52859   0.52806   0.39215   0.00000  Uiso   1.00
H16    H     0.42574   0.41934   0.40995   0.00000  Uiso   1.00
N6     N     0.53011   0.47850   0.58003   0.00000  Uiso   1.00
H17    H     0.47224   0.47200   0.60781   0.00000  Uiso   1.00
H18    H     0.57509   0.58073   0.59001   0.00000  Uiso   1.00
