# Generated by REPEAT Assigner based on pymatgen
data_DB0-m3_o10_o21_f0_pcu.sym.36_sqe
_audit_creation_date              2022-05-24
_audit_creation_method            REPEAT_Assigner
_cell_length_a                    7.672927
_cell_length_b                    8.895416
_cell_length_c                    14.095943
_cell_angle_alpha                 90.598948
_cell_angle_beta                  79.368884
_cell_angle_gamma                 91.432249
_cell_volume                      945.276382
_symmetry_space_group_name_H-M    P1
_symmetry_Int_Tables_number       1
loop_
    _symmetry_equiv_pos_site_id
    _symmetry_equiv_pos_as_xyz
    1  x,y,z
loop_
    _atom_site_type_symbol
    _atom_site_label
    _atom_site_fract_x
    _atom_site_fract_y
    _atom_site_fract_z
    _atom_type_partial_charge
    O   O1   0.382644  0.739088  0.506193  -0.679680
    O   O2   0.618152  0.266281  0.493829  -0.674049
    O   O3   0.685740  0.711923  0.488947  -0.693647
    O   O4   0.315057  0.293445  0.511075  -0.695803
    C   C1   0.544773  0.794929  0.496880  0.818653
    C   C2   0.456023  0.210440  0.503143  0.815483
    O   O5   0.327295  0.519081  0.651656  -0.630214
    O   O6   0.673501  0.486288  0.348365  -0.632077
    O   O7   0.630393  0.491888  0.634448  -0.590274
    O   O8   0.370403  0.513481  0.365574  -0.595189
    C   C3   0.472230  0.506425  0.687600  0.788898
    C   C4   0.528567  0.498943  0.312422  0.795087
    Zn  Zn1  0.300655  0.520558  0.511324  1.015126
    Zn  Zn2  0.700142  0.484811  0.488698  0.999079
    C   C5   0.543595  0.495540  0.209432  -0.196760
    C   C6   0.457201  0.509828  0.790590  -0.193388
    C   C7   0.570392  0.487884  0.019806  -0.005187
    C   C8   0.430403  0.517485  0.980215  0.000447
    C   C9   0.444884  0.513166  0.877051  -0.069729
    C   C10  0.555912  0.492203  0.122971  -0.066266
    C   C11  0.569997  0.958377  0.495636  -0.219697
    C   C12  0.430800  0.046992  0.504388  -0.217657
    H   H1   0.702735  0.007120  0.487731  0.145079
    H   H2   0.298061  0.998249  0.512292  0.145654
    N   N1   0.962349  0.461378  0.473920  -0.031801
    N   N2   0.038448  0.543991  0.526102  -0.044520
    H   H3   0.045145  0.390686  0.429303  0.243385
    H   H4   0.955652  0.614683  0.570718  0.246701
    C   C13  0.260724  0.554970  0.041204  0.596418
    O   O9   0.133558  0.582263  0.004172  -0.431860
    O   O10  0.244779  0.559457  0.137894  -0.218671
    C   C14  0.085820  0.594605  0.194505  0.005188
    H   H5   0.098669  0.592628  0.271564  0.037601
    H   H6   0.982548  0.511176  0.181915  0.076431
    H   H7   0.047568  0.708463  0.175861  0.046294
    C   C15  0.740071  0.450398  0.958817  0.598272
    O   O11  0.867237  0.423104  0.995849  -0.432648
    O   O12  0.756016  0.445908  0.862128  -0.218745
    C   C16  0.914976  0.410762  0.805517  0.008081
    H   H8   0.902124  0.412729  0.728458  0.035230
    H   H9   0.953234  0.296909  0.824165  0.045852
    H   H10  0.018243  0.494198  0.818102  0.074904
