# generated using pymatgen
data_ZnH14C15N3O4
_symmetry_space_group_name_H-M   'P 1'
_cell_length_a   9.97876800
_cell_length_b   11.25606600
_cell_length_c   19.31980400
_cell_angle_alpha   89.99103500
_cell_angle_beta   80.78347400
_cell_angle_gamma   92.43839400
_symmetry_Int_Tables_number   1
_chemical_formula_structural   ZnH14C15N3O4
_chemical_formula_sum   'Zn2 H28 C30 N6 O8'
_cell_volume   2140.02482522
_cell_formula_units_Z   2
loop_
 _symmetry_equiv_pos_site_id
 _symmetry_equiv_pos_as_xyz
  1  'x, y, z'
loop_
 _atom_site_type_symbol
 _atom_site_label
 _atom_site_symmetry_multiplicity
 _atom_site_fract_x
 _atom_site_fract_y
 _atom_site_fract_z
 _atom_site_occupancy
  Zn  Zn1  1  0.34877400  0.52290400  0.51494700  1
  Zn  Zn2  1  0.65202100  0.48209900  0.48632600  1
  H  H1  1  0.29508100  0.52237800  0.74104100  1
  H  H2  1  0.70596700  0.48369000  0.26023600  1
  H  H3  1  0.30116700  0.51810800  0.86561200  1
  H  H4  1  0.69999000  0.48845200  0.13566500  1
  H  H5  1  0.71947400  0.46390800  0.69912600  1
  H  H6  1  0.28134600  0.54110200  0.30217500  1
  H  H7  1  0.62330900  0.09713200  0.49017900  1
  H  H8  1  0.37746500  0.90787200  0.51112400  1
  H  H9  1  0.31344300  0.11157000  0.51485600  1
  H  H10  1  0.68734000  0.89343600  0.48641900  1
  H  H11  1  0.11912000  0.43371500  0.45543400  1
  H  H12  1  0.88166400  0.57121800  0.54586300  1
  H  H13  1  0.10073900  0.60591100  0.57042500  1
  H  H14  1  0.90005400  0.39909500  0.43084100  1
  H  H15  1  0.74681200  0.41258700  0.88761100  1
  H  H16  1  0.86425900  0.33948000  0.74004700  1
  H  H17  1  0.72982700  0.25429200  0.79540000  1
  H  H18  1  0.89152100  0.28428900  0.82368400  1
  H  H19  1  0.89585700  0.55245200  0.75958700  1
  H  H20  1  0.96173400  0.51021200  0.83739700  1
  H  H21  1  0.82942700  0.61613300  0.84324500  1
  H  H22  1  0.25380600  0.59279500  0.11376200  1
  H  H23  1  0.10496600  0.45309200  0.24190300  1
  H  H24  1  0.17160700  0.38915900  0.15834900  1
  H  H25  1  0.03917300  0.49492500  0.16400600  1
  H  H26  1  0.13682500  0.66600200  0.26137600  1
  H  H27  1  0.10900900  0.72095600  0.17777600  1
  H  H28  1  0.27089200  0.75123300  0.20580700  1
  C  C1  1  0.55190400  0.73244600  0.49793100  1
  C  C2  1  0.44888800  0.27255400  0.50334200  1
  C  C3  1  0.50516200  0.49865800  0.63579400  1
  C  C4  1  0.49565400  0.50640700  0.36548100  1
  C  C5  1  0.39044400  0.50753500  0.75870300  1
  C  C6  1  0.61056500  0.49838100  0.24257700  1
  C  C7  1  0.39361500  0.50382200  0.82959100  1
  C  C8  1  0.60745300  0.50239800  0.17168900  1
  C  C9  1  0.51335900  0.48648000  0.85480200  1
  C  C10  1  0.48764900  0.51951200  0.14648500  1
  C  C11  1  0.63191000  0.46775200  0.80753300  1
  C  C12  1  0.36900200  0.53783100  0.19377200  1
  C  C13  1  0.62793600  0.47503500  0.73617700  1
  C  C14  1  0.37294400  0.53028200  0.26511700  1
  C  C15  1  0.50798800  0.49453200  0.71152900  1
  C  C16  1  0.49291200  0.51086400  0.28975100  1
  C  C17  1  0.49190000  0.51340200  0.07020600  1
  C  C18  1  0.50912200  0.49263900  0.93107800  1
  C  C19  1  0.58208000  0.86110200  0.49527400  1
  C  C20  1  0.41870500  0.14389500  0.50600800  1
  C  C21  1  0.48329200  0.93842700  0.50258400  1
  C  C22  1  0.51748700  0.06656600  0.49871300  1
  C  C23  1  0.92691800  0.51107200  0.50583600  1
  C  C24  1  0.07386800  0.49387700  0.49545400  1
  C  C25  1  0.76221700  0.43368000  0.83105600  1
  C  C26  1  0.81498600  0.32110400  0.79479200  1
  C  C27  1  0.86911500  0.53456900  0.81666100  1
  C  C28  1  0.23857800  0.57174000  0.17031700  1
  C  C29  1  0.13178900  0.47077900  0.18481200  1
  C  C30  1  0.18578900  0.68431600  0.20657300  1
  N  N1  1  0.60517300  0.55619400  0.95838100  1
  N  N2  1  0.39587600  0.44982200  0.04290000  1
  N  N3  1  0.59743900  0.56532300  0.02711500  1
  N  N4  1  0.40360100  0.44070300  0.97416900  1
  N  N5  1  0.85138800  0.45519800  0.46774300  1
  N  N6  1  0.14940500  0.54979400  0.53352800  1
  O  O1  1  0.42460100  0.69308900  0.50962400  1
  O  O2  1  0.57618700  0.31191400  0.49164500  1
  O  O3  1  0.65465600  0.66215700  0.48770900  1
  O  O4  1  0.34614700  0.34284600  0.51356300  1
  O  O5  1  0.38891400  0.51517000  0.61435300  1
  O  O6  1  0.61188900  0.48985800  0.38691900  1
  O  O7  1  0.61877800  0.48423000  0.59254200  1
  O  O8  1  0.38202300  0.52078700  0.40873100  1
