data_DB0-m2_o17_o18_f0_pcu.sym.31_repeat
_audit_creation_date              2024-02-23
_audit_creation_method            'Materials Studio'
_symmetry_space_group_name_H-M    'P1'
_symmetry_Int_Tables_number       1
_symmetry_cell_setting            triclinic
loop_
_symmetry_equiv_pos_as_xyz
  x,y,z
_cell_length_a                    13.5302
_cell_length_b                    14.9512
_cell_length_c                    15.9122
_cell_angle_alpha                 89.9895
_cell_angle_beta                  72.4149
_cell_angle_gamma                 89.9878
loop_
_atom_site_label
_atom_site_type_symbol
_atom_site_fract_x
_atom_site_fract_y
_atom_site_fract_z
_atom_site_U_iso_or_equiv
_atom_site_adp_type
_atom_site_occupancy
O1     O     0.41340   0.62999   0.50204   0.00000  Uiso   1.00
O2     O     0.58651   0.37060   0.49817   0.00000  Uiso   1.00
O3     O     0.58515   0.63054   0.49694   0.00000  Uiso   1.00
O4     O     0.41482   0.37004   0.50291   0.00000  Uiso   1.00
C1     C     0.49920   0.67196   0.49923   0.00000  Uiso   1.00
C2     C     0.50073   0.32868   0.50080   0.00000  Uiso   1.00
O5     O     0.36830   0.50356   0.62739   0.00000  Uiso   1.00
O6     O     0.63160   0.49688   0.37278   0.00000  Uiso   1.00
O7     O     0.53719   0.49802   0.62894   0.00000  Uiso   1.00
O8     O     0.46267   0.50259   0.37122   0.00000  Uiso   1.00
C3     C     0.43732   0.50087   0.67007   0.00000  Uiso   1.00
C4     C     0.56256   0.49977   0.33010   0.00000  Uiso   1.00
Cu1    Cu    0.40142   0.49997   0.49934   0.00000  Uiso   1.00
Cu2    Cu    0.59838   0.50071   0.50096   0.00000  Uiso   1.00
C5     C     0.40199   0.50043   0.76754   0.00000  Uiso   1.00
C6     C     0.59779   0.49929   0.23255   0.00000  Uiso   1.00
C7     C     0.26857   0.49902   0.90529   0.00000  Uiso   1.00
C8     C     0.73143   0.49723   0.09480   0.00000  Uiso   1.00
C9     C     0.29749   0.49935   0.81503   0.00000  Uiso   1.00
C10    C     0.70238   0.49787   0.18514   0.00000  Uiso   1.00
C11    C     0.47517   0.50072   0.81279   0.00000  Uiso   1.00
C12    C     0.52472   0.49993   0.18710   0.00000  Uiso   1.00
C13    C     0.44616   0.49922   0.90495   0.00000  Uiso   1.00
C14    C     0.55388   0.49865   0.09496   0.00000  Uiso   1.00
C15    C     0.34142   0.49879   0.94967   0.00000  Uiso   1.00
C16    C     0.65866   0.49738   0.05028   0.00000  Uiso   1.00
C17    C     0.51779   0.49835   0.95372   0.00000  Uiso   1.00
C18    C     0.48215   0.49868   0.04628   0.00000  Uiso   1.00
C19    C     0.37553   0.49829   0.08774   0.00000  Uiso   1.00
C20    C     0.62430   0.49628   0.91223   0.00000  Uiso   1.00
C21    C     0.30712   0.49808   0.03975   0.00000  Uiso   1.00
C22    C     0.69282   0.49586   0.96013   0.00000  Uiso   1.00
H1     H     0.22499   0.49736   0.07399   0.00000  Uiso   1.00
H2     H     0.77492   0.49405   0.92567   0.00000  Uiso   1.00
H3     H     0.44515   0.50125   0.22636   0.00000  Uiso   1.00
H4     H     0.55474   0.50266   0.77355   0.00000  Uiso   1.00
H5     H     0.18700   0.49911   0.94173   0.00000  Uiso   1.00
H6     H     0.81284   0.49684   0.05839   0.00000  Uiso   1.00
H7     H     0.34027   0.49725   0.15784   0.00000  Uiso   1.00
H8     H     0.65948   0.49381   0.84213   0.00000  Uiso   1.00
C23    C     0.43911   0.18512   0.57278   0.00000  Uiso   1.00
C24    C     0.56085   0.81558   0.42721   0.00000  Uiso   1.00
C25    C     0.50105   0.23119   0.50115   0.00000  Uiso   1.00
C26    C     0.49906   0.76952   0.49900   0.00000  Uiso   1.00
C27    C     0.56269   0.18539   0.42941   0.00000  Uiso   1.00
C28    C     0.43761   0.81559   0.57075   0.00000  Uiso   1.00
C29    C     0.56073   0.09319   0.42822   0.00000  Uiso   1.00
C30    C     0.43949   0.90786   0.57165   0.00000  Uiso   1.00
C31    C     0.50019   0.04668   0.50031   0.00000  Uiso   1.00
C32    C     0.50001   0.95430   0.49939   0.00000  Uiso   1.00
C33    C     0.44008   0.09260   0.57334   0.00000  Uiso   1.00
C34    C     0.56014   0.90830   0.42633   0.00000  Uiso   1.00
C35    C     0.61912   0.04766   0.35463   0.00000  Uiso   1.00
C36    C     0.38116   0.95361   0.64517   0.00000  Uiso   1.00
C37    C     0.61883   0.95540   0.35316   0.00000  Uiso   1.00
C38    C     0.38151   0.04567   0.64639   0.00000  Uiso   1.00
H9     H     0.39174   0.22286   0.62839   0.00000  Uiso   1.00
H10    H     0.60775   0.77770   0.37162   0.00000  Uiso   1.00
H11    H     0.61033   0.22233   0.37338   0.00000  Uiso   1.00
H12    H     0.38983   0.77920   0.62715   0.00000  Uiso   1.00
H13    H     0.66517   0.08433   0.29768   0.00000  Uiso   1.00
H14    H     0.33505   0.91725   0.70234   0.00000  Uiso   1.00
C39    C     0.22464   0.55360   0.44202   0.00000  Uiso   1.00
C40    C     0.77589   0.44777   0.55838   0.00000  Uiso   1.00
N1     N     0.25409   0.49934   0.49788   0.00000  Uiso   1.00
N2     N     0.74577   0.50130   0.50235   0.00000  Uiso   1.00
C41    C     0.18459   0.44633   0.55470   0.00000  Uiso   1.00
C42    C     0.81450   0.55518   0.44585   0.00000  Uiso   1.00
C43    C     0.08233   0.44621   0.55591   0.00000  Uiso   1.00
C44    C     0.91734   0.55605   0.44391   0.00000  Uiso   1.00
C45    C     0.05117   0.50082   0.49918   0.00000  Uiso   1.00
C46    C     0.94899   0.50140   0.50037   0.00000  Uiso   1.00
C47    C     0.12260   0.55488   0.44160   0.00000  Uiso   1.00
C48    C     0.87788   0.44735   0.55816   0.00000  Uiso   1.00
C49    C     0.01119   0.39195   0.61390   0.00000  Uiso   1.00
C50    C     0.98885   0.61039   0.38569   0.00000  Uiso   1.00
C51    C     0.90891   0.39240   0.61510   0.00000  Uiso   1.00
C52    C     0.09147   0.60991   0.38447   0.00000  Uiso   1.00
H15    H     0.28142   0.59581   0.39718   0.00000  Uiso   1.00
H16    H     0.72018   0.40453   0.60335   0.00000  Uiso   1.00
H17    H     0.20908   0.40327   0.59930   0.00000  Uiso   1.00
H18    H     0.78890   0.59740   0.40154   0.00000  Uiso   1.00
H19    H     0.03556   0.34905   0.65853   0.00000  Uiso   1.00
H20    H     0.96492   0.65351   0.34091   0.00000  Uiso   1.00
H21    H     0.85348   0.34965   0.66078   0.00000  Uiso   1.00
H22    H     0.14662   0.65283   0.33870   0.00000  Uiso   1.00
N3     N     0.78138   0.49765   0.22751   0.00000  Uiso   1.00
H23    H     0.82688   0.44070   0.20703   0.00000  Uiso   1.00
H24    H     0.82789   0.55375   0.20569   0.00000  Uiso   1.00
N4     N     0.21838   0.49894   0.77282   0.00000  Uiso   1.00
H25    H     0.17185   0.55510   0.79478   0.00000  Uiso   1.00
H26    H     0.17300   0.44192   0.79371   0.00000  Uiso   1.00
N5     N     0.67838   0.90958   0.27584   0.00000  Uiso   1.00
H27    H     0.75528   0.93033   0.26207   0.00000  Uiso   1.00
H28    H     0.65176   0.92998   0.22375   0.00000  Uiso   1.00
N6     N     0.32211   0.09146   0.72366   0.00000  Uiso   1.00
H29    H     0.24523   0.07060   0.73743   0.00000  Uiso   1.00
H30    H     0.34895   0.07105   0.77564   0.00000  Uiso   1.00
