# generated using pymatgen
data_Fe2H21C54N2ClO20
_symmetry_space_group_name_H-M   'P 1'
_cell_length_a   14.32355700
_cell_length_b   18.85438500
_cell_length_c   13.27368700
_cell_angle_alpha   109.47385700
_cell_angle_beta   87.03526900
_cell_angle_gamma   76.15878200
_symmetry_Int_Tables_number   1
_chemical_formula_structural   Fe2H21C54N2ClO20
_chemical_formula_sum   'Fe2 H21 C54 N2 Cl1 O20'
_cell_volume   3247.48995580
_cell_formula_units_Z   1
loop_
 _symmetry_equiv_pos_site_id
 _symmetry_equiv_pos_as_xyz
  1  'x, y, z'
loop_
 _atom_site_type_symbol
 _atom_site_label
 _atom_site_symmetry_multiplicity
 _atom_site_fract_x
 _atom_site_fract_y
 _atom_site_fract_z
 _atom_site_occupancy
  Fe  Fe1  1  0.53047100  0.02678700  0.28400100  1
  Fe  Fe2  1  0.53279700  0.00931800  0.72811400  1
  H  H1  1  0.17956500  0.99862600  0.17867300  1
  H  H2  1  0.19913600  0.94974000  0.83812500  1
  H  H3  1  0.89875700  0.98598600  0.80288100  1
  H  H4  1  0.89209800  0.99920500  0.13067000  1
  H  H5  1  0.45189700  0.94722800  0.99254700  1
  H  H6  1  0.62947300  0.06057500  0.00611600  1
  H  H7  1  0.03576200  0.01672200  0.10807600  1
  H  H8  1  0.04932300  0.94411800  0.86290000  1
  H  H9  1  0.86302900  0.64930400  0.73577200  1
  H  H10  1  0.97680500  0.55153300  0.78142800  1
  H  H11  1  0.01334000  0.44716600  0.21590600  1
  H  H12  1  0.31228200  0.24754800  0.46311500  1
  H  H13  1  0.19597700  0.21326700  0.79312500  1
  H  H14  1  0.09261300  0.30475600  0.72986300  1
  H  H15  1  0.78020300  0.80029800  0.54895200  1
  H  H16  1  0.67870900  0.72738500  0.19035800  1
  H  H17  1  0.76000200  0.62618200  0.25182400  1
  H  H18  1  0.20452900  0.34584800  0.15667800  1
  H  H19  1  0.22545000  0.23753400  0.98441300  1
  H  H20  1  0.99574200  0.16779800  0.10697000  1
  H  H21  1  0.97574400  0.27527700  0.27983400  1
  C  C1  1  0.32094200  0.97000700  0.09355500  1
  C  C2  1  0.22231000  0.98031600  0.10036600  1
  C  C3  1  0.17760800  0.96906200  0.00861200  1
  C  C4  1  0.23288000  0.95167400  0.90935300  1
  C  C5  1  0.33148700  0.94590700  0.90399400  1
  C  C6  1  0.37545900  0.95052400  0.99519100  1
  C  C7  1  0.07060000  0.98687700  0.02541800  1
  C  C8  1  0.01586300  0.97207200  0.94627800  1
  C  C9  1  0.85913400  0.00280900  0.88252000  1
  C  C10  1  0.75919300  0.02807100  0.89776000  1
  C  C11  1  0.70778800  0.04688200  0.99800000  1
  C  C12  1  0.75554800  0.03475100  0.08113600  1
  C  C13  1  0.85606500  0.01079600  0.06618800  1
  C  C14  1  0.90861800  0.99743900  0.96740700  1
  C  C15  1  0.69871200  0.03485600  0.17665000  1
  C  C16  1  0.62506700  0.88177900  0.29491600  1
  C  C17  1  0.36666600  0.99390000  0.19047500  1
  C  C18  1  0.41069200  0.11382300  0.47764700  1
  C  C19  1  0.64463300  0.91121800  0.53078100  1
  C  C20  1  0.70719700  0.01436700  0.80456700  1
  C  C21  1  0.37220900  0.11742700  0.70395600  1
  C  C22  1  0.38758900  0.95101700  0.81178800  1
  C  C23  1  0.91336900  0.58410400  0.35621500  1
  C  C24  1  0.83997500  0.64606600  0.53603300  1
  C  C25  1  0.90488900  0.59083700  0.56434200  1
  C  C26  1  0.96456900  0.52603500  0.48516400  1
  C  C27  1  0.96563000  0.52156700  0.38038600  1
  C  C28  1  0.90827600  0.59862500  0.67121800  1
  C  C29  1  0.97356700  0.54290300  0.69716300  1
  C  C30  1  0.02953100  0.47562000  0.61653700  1
  C  C31  1  0.02225100  0.46600000  0.51039300  1
  C  C32  1  0.07081400  0.39591700  0.43018800  1
  C  C33  1  0.06324100  0.38909600  0.32280200  1
  C  C34  1  0.01722100  0.45365000  0.29945500  1
  C  C35  1  0.09303600  0.41848500  0.64188200  1
  C  C36  1  0.12434200  0.33542800  0.46007800  1
  C  C37  1  0.28559600  0.23950000  0.53495300  1
  C  C38  1  0.33804200  0.17777400  0.56161300  1
  C  C39  1  0.31040000  0.17148700  0.65978100  1
  C  C40  1  0.22192200  0.21861000  0.71905800  1
  C  C41  1  0.16374700  0.27265800  0.68427600  1
  C  C42  1  0.19671300  0.28703700  0.59509900  1
  C  C43  1  0.75647400  0.78206000  0.47089100  1
  C  C44  1  0.69585200  0.83903600  0.44254600  1
  C  C45  1  0.67426400  0.82179200  0.33757200  1
  C  C46  1  0.69961300  0.74423900  0.27017600  1
  C  C47  1  0.74850900  0.68611800  0.30463500  1
  C  C48  1  0.78417200  0.70444400  0.40257100  1
  C  C49  1  0.09142400  0.31553600  0.23069400  1
  C  C50  1  0.16125900  0.30490000  0.14744100  1
  C  C51  1  0.17237200  0.24448600  0.05027700  1
  C  C52  1  0.11220400  0.19576800  0.03540800  1
  C  C53  1  0.04392800  0.20518800  0.11914200  1
  C  C54  1  0.03337800  0.26509800  0.21656300  1
  N  N1  1  0.84655100  0.64427200  0.43251800  1
  N  N2  1  0.13789600  0.34824300  0.56460400  1
  Cl  Cl1  1  0.11725800  0.12575800  0.90815500  1
  O  O1  1  0.60414700  0.06560700  0.19350900  1
  O  O2  1  0.61880300  0.86096500  0.19144200  1
  O  O3  1  0.73862700  0.99221800  0.23162500  1
  O  O4  1  0.59556300  0.95620500  0.35661900  1
  O  O5  1  0.45887900  0.95951600  0.18542700  1
  O  O6  1  0.32464300  0.06079100  0.26791600  1
  O  O7  1  0.45635800  0.12741100  0.40055400  1
  O  O8  1  0.41451700  0.04132500  0.46654100  1
  O  O9  1  0.58494800  0.90665000  0.60578100  1
  O  O10  1  0.66808900  0.97660300  0.54396200  1
  O  O11  1  0.62482600  0.06499900  0.80811300  1
  O  O12  1  0.72564400  0.94219400  0.73707400  1
  O  O13  1  0.35398100  0.94309300  0.71967400  1
  O  O14  1  0.46493500  0.08559600  0.66529500  1
  O  O15  1  0.46409600  0.97770500  0.83220300  1
  O  O16  1  0.33635100  0.10653800  0.78867800  1
  O  O17  1  0.93144200  0.58486600  0.25624200  1
  O  O18  1  0.76835700  0.69943900  0.61206700  1
  O  O19  1  0.11146200  0.43419800  0.74417200  1
  O  O20  1  0.16233700  0.26375700  0.38547000  1
