# Generated by REPEAT Assigner based on pymatgen
data_DB0-m3_o11_o13_f0_pcu.sym.32_sqe
_audit_creation_date              2022-05-24
_audit_creation_method            REPEAT_Assigner
_cell_length_a                    13.093029
_cell_length_b                    11.133603
_cell_length_c                    9.954480
_cell_angle_alpha                 89.997407
_cell_angle_beta                  95.344172
_cell_angle_gamma                 90.005954
_cell_volume                      1444.782587
_symmetry_space_group_name_H-M    P1
_symmetry_Int_Tables_number       1
loop_
    _symmetry_equiv_pos_site_id
    _symmetry_equiv_pos_as_xyz
    1  x,y,z
loop_
    _atom_site_type_symbol
    _atom_site_label
    _atom_site_fract_x
    _atom_site_fract_y
    _atom_site_fract_z
    _atom_type_partial_charge
    O   O1   0.484461  0.318388  0.598738  -0.680708
    O   O2   0.486505  0.323701  0.367562  -0.742427
    C   C1   0.482143  0.265220  0.481635  0.795703
    O   O3   0.342411  0.509258  0.595253  -0.737059
    O   O4   0.342736  0.511736  0.364571  -0.649031
    C   C2   0.294055  0.514173  0.473621  0.941102
    Zn  Zn1  0.495238  0.494515  0.647973  1.066872
    Zn  Zn2  0.494780  0.504174  0.342672  1.091799
    O   O5   0.505499  0.674685  0.623465  -0.688632
    O   O6   0.504070  0.680723  0.391382  -0.738630
    O   O7   0.647507  0.485276  0.626867  -0.556679
    O   O8   0.647707  0.491600  0.394800  -0.594917
    C   C3   0.507819  0.733657  0.509389  0.682061
    C   C4   0.695577  0.485318  0.516678  0.663842
    C   C5   0.808229  0.483633  0.530518  -0.124617
    C   C6   0.180782  0.519006  0.458906  -0.359462
    C   C7   0.019981  0.547197  0.324807  0.310525
    C   C8   0.126430  0.549824  0.336955  0.291676
    C   C9   0.127559  0.489939  0.568176  -0.120318
    C   C10  0.021176  0.488896  0.556815  -0.038305
    C   C11  0.967584  0.515746  0.434293  -0.100607
    C   C12  0.861337  0.512107  0.421444  -0.019204
    C   C13  0.861736  0.457928  0.653209  -0.286982
    C   C14  0.967861  0.459980  0.666814  0.414330
    H   H1   0.818625  0.533653  0.326617  0.070002
    H   H2   0.820368  0.436053  0.738965  0.122495
    H   H3   0.170233  0.465592  0.662157  0.169330
    C   C15  0.501883  0.930680  0.401434  -0.356110
    C   C16  0.517412  0.864903  0.515516  0.302915
    H   H4   0.485892  0.884644  0.305954  0.156317
    C   C17  0.509783  0.063014  0.393463  0.125562
    C   C18  0.470570  0.134551  0.482733  -0.373586
    H   H5   0.543581  0.102327  0.308361  0.076447
    H   H6   0.431422  0.096803  0.563559  0.162734
    C   C19  0.565911  0.537885  0.930627  0.344610
    N   N1   0.497839  0.484775  0.848960  0.009823
    C   C20  0.573735  0.518339  0.078358  0.001066
    N   N2   0.492918  0.515506  0.141881  -0.254017
    H   H7   0.648795  0.514808  0.133975  0.103916
    H   H8   0.426009  0.538421  0.085467  0.219317
    N   N3   0.634764  0.621190  0.878144  -0.530752
    H   H9   0.625059  0.703713  0.925115  0.253723
    H   H10  0.709317  0.591416  0.906222  0.245781
    N   N4   0.462943  0.374496  0.891985  -0.580986
    H   H11  0.398641  0.387018  0.944764  0.306610
    H   H12  0.522072  0.328934  0.948271  0.298599
    N   N5   0.963548  0.577079  0.199547  -0.747178
    H   H13  0.980934  0.665059  0.173566  0.274142
    H   H14  0.983890  0.517883  0.125244  0.254925
    N   N6   0.021814  0.433345  0.794639  -0.797175
    H   H15  0.969477  0.404785  0.860791  0.339965
    H   H16  0.054725  0.513128  0.833155  0.264330
    N   N7   0.179627  0.586566  0.224981  -0.664520
    H   H17  0.157745  0.674060  0.197924  0.249266
    H   H18  0.160946  0.528415  0.144186  0.273746
    N   N8   0.552774  0.916635  0.643015  -0.764465
    H   H19  0.490735  0.948926  0.690795  0.314248
    H   H20  0.606655  0.983754  0.630114  0.308588
