# generated using pymatgen
data_Zn3H25C49NO13
_symmetry_space_group_name_H-M   'P 1'
_cell_length_a   21.86876400
_cell_length_b   21.87921600
_cell_length_c   21.22020700
_cell_angle_alpha   121.02015200
_cell_angle_beta   121.01057100
_cell_angle_gamma   90.00179200
_symmetry_Int_Tables_number   1
_chemical_formula_structural   Zn3H25C49NO13
_chemical_formula_sum   'Zn6 H50 C98 N2 O26'
_cell_volume   6953.17935650
_cell_formula_units_Z   2
loop_
 _symmetry_equiv_pos_site_id
 _symmetry_equiv_pos_as_xyz
  1  'x, y, z'
loop_
 _atom_site_type_symbol
 _atom_site_label
 _atom_site_symmetry_multiplicity
 _atom_site_fract_x
 _atom_site_fract_y
 _atom_site_fract_z
 _atom_site_occupancy
  Zn  Zn1  1  0.99520300  0.42420600  0.50151400  1
  Zn  Zn2  1  0.99863700  0.56365700  0.50348800  1
  Zn  Zn3  1  0.44212200  0.44220200  0.39229900  1
  Zn  Zn4  1  0.54611600  0.54930500  0.60044800  1
  Zn  Zn5  1  0.56704500  0.00045300  0.50530200  1
  Zn  Zn6  1  0.42642300  0.99803800  0.50109900  1
  H  H1  1  0.96479400  0.14707700  0.19147200  1
  H  H2  1  0.09400500  0.16729500  0.31029000  1
  H  H3  1  0.19526000  0.29409600  0.42399100  1
  H  H4  1  0.03815100  0.38091200  0.29954700  1
  H  H5  1  0.93731400  0.25368100  0.18585200  1
  H  H6  1  0.25157700  0.37398300  0.39162900  1
  H  H7  1  0.23593600  0.60691700  0.60109300  1
  H  H8  1  0.37704500  0.65442900  0.74093700  1
  H  H9  1  0.47518000  0.78264000  0.85110800  1
  H  H10  1  0.51859000  0.83670500  0.79799700  1
  H  H11  1  0.46291400  0.76238600  0.63397600  1
  H  H12  1  0.36491400  0.63388000  0.52350800  1
  H  H13  1  0.03600600  0.47397700  0.81107400  1
  H  H14  1  0.92104900  0.36096700  0.66896400  1
  H  H15  1  0.81606100  0.37359800  0.55760300  1
  H  H16  1  0.04560600  0.59885400  0.84383800  1
  H  H17  1  0.73939700  0.49270700  0.60866500  1
  H  H18  1  0.75565600  0.51114400  0.39647000  1
  H  H19  1  0.60954300  0.41718100  0.25502500  1
  H  H20  1  0.51324800  0.43620000  0.14633400  1
  H  H21  1  0.53567100  0.64054500  0.36828300  1
  H  H22  1  0.63144500  0.62018300  0.47603000  1
  H  H23  1  0.14654500  0.46849600  0.17212600  1
  H  H24  1  0.24763100  0.45263400  0.15131600  1
  H  H25  1  0.37582600  0.55245100  0.27070900  1
  H  H26  1  0.30179800  0.68510100  0.43131900  1
  H  H27  1  0.17355900  0.58525100  0.31177200  1
  H  H28  1  0.37697600  0.75637900  0.39398600  1
  H  H29  1  0.60801000  0.73530900  0.59849100  1
  H  H30  1  0.68963600  0.79625100  0.57084600  1
  H  H31  1  0.81726300  0.89682000  0.68903800  1
  H  H32  1  0.83797300  0.02332600  0.81283700  1
  H  H33  1  0.73104400  0.04878200  0.81884400  1
  H  H34  1  0.60294100  0.94873700  0.70045300  1
  H  H35  1  0.56984900  0.23473200  0.22632500  1
  H  H36  1  0.45596500  0.13904900  0.16310800  1
  H  H37  1  0.42936000  0.14701900  0.26567600  1
  H  H38  1  0.63066200  0.34709700  0.49546500  1
  H  H39  1  0.65749600  0.33774800  0.39225900  1
  H  H40  1  0.52011800  0.14130900  0.40783200  1
  H  H41  1  0.48073500  0.35980700  0.60363800  1
  H  H42  1  0.36521900  0.26591200  0.56175300  1
  H  H43  1  0.34407100  0.27564900  0.66895500  1
  H  H44  1  0.44001000  0.26878500  0.79266300  1
  H  H45  1  0.55758900  0.25314700  0.80968000  1
  H  H46  1  0.57915400  0.24302900  0.70248500  1
  H  H47  1  0.00689100  0.73927600  0.86508500  1
  H  H48  1  0.03036900  0.72135800  0.79440900  1
  H  H49  1  0.38698800  0.52135000  0.05659100  1
  H  H50  1  0.47105000  0.50979000  0.08342300  1
  C  C1  1  0.09014100  0.58138300  0.68234400  1
  C  C2  1  0.11354400  0.48730000  0.49651800  1
  C  C3  1  0.90369300  0.40661300  0.32278800  1
  C  C4  1  0.87990800  0.50024500  0.50767800  1
  C  C5  1  0.08167300  0.21439100  0.30835800  1
  C  C6  1  0.13851200  0.28566200  0.37213700  1
  C  C7  1  0.12288000  0.34621300  0.37056100  1
  C  C8  1  0.05043000  0.33449300  0.30315200  1
  C  C9  1  0.99380000  0.26299100  0.23894900  1
  C  C10  1  0.00927100  0.20306500  0.24182200  1
  C  C11  1  0.24838100  0.42529800  0.43812500  1
  C  C12  1  0.30842900  0.49398500  0.49865100  1
  C  C13  1  0.30447900  0.55977300  0.55905800  1
  C  C14  1  0.23972800  0.55554300  0.55549600  1
  C  C15  1  0.17990100  0.48694100  0.49529000  1
  C  C16  1  0.18460600  0.42087000  0.43668200  1
  C  C17  1  0.39586100  0.67770900  0.71700600  1
  C  C18  1  0.45113000  0.74977400  0.77909300  1
  C  C19  1  0.47548000  0.78007900  0.74936500  1
  C  C20  1  0.44441000  0.73832300  0.65746300  1
  C  C21  1  0.38948200  0.66606900  0.59544900  1
  C  C22  1  0.36543900  0.63512300  0.62501500  1
  C  C23  1  0.14099800  0.63066600  0.78113600  1
  C  C24  1  0.18303400  0.67281300  0.86410000  1
  C  C25  1  0.23148100  0.72284500  0.96132400  1
  C  C26  1  0.27236500  0.76581700  0.04426800  1
  C  C27  1  0.31989700  0.81626100  0.14147800  1
  C  C28  1  0.36022200  0.85910800  0.22441600  1
  C  C29  1  0.92526400  0.41629200  0.68264000  1
  C  C30  1  0.86634100  0.42354900  0.62044100  1
  C  C31  1  0.87138700  0.49373100  0.63664500  1
  C  C32  1  0.93590000  0.55854700  0.71809600  1
  C  C33  1  0.99487000  0.55017700  0.77990000  1
  C  C34  1  0.98964700  0.47954100  0.76206800  1
  C  C35  1  0.74237400  0.49665700  0.56153800  1
  C  C36  1  0.68109900  0.50061500  0.49709700  1
  C  C37  1  0.68598800  0.50611600  0.43738800  1
  C  C38  1  0.75150500  0.50621300  0.44237700  1
  C  C39  1  0.81188600  0.50047500  0.50544100  1
  C  C40  1  0.80742000  0.49631700  0.56588600  1
  C  C41  1  0.59296500  0.46605500  0.27985200  1
  C  C42  1  0.53848200  0.47711400  0.21847000  1
  C  C43  1  0.51716200  0.53974900  0.24938700  1
  C  C44  1  0.55066700  0.59072800  0.34227000  1
  C  C45  1  0.60464400  0.57914800  0.40338800  1
  C  C46  1  0.62561900  0.51647000  0.37230300  1
  C  C47  1  0.85289700  0.35783400  0.22420700  1
  C  C48  1  0.81076600  0.31683200  0.14136600  1
  C  C49  1  0.76209800  0.26866900  0.04432000  1
  C  C50  1  0.72102500  0.22747600  0.96147200  1
  C  C51  1  0.67339100  0.17915100  0.86444000  1
  C  C52  1  0.63305000  0.13783000  0.78160800  1
  C  C53  1  0.48743100  0.61236000  0.49021500  1
  C  C54  1  0.37565400  0.49445100  0.49894100  1
  C  C55  1  0.50078400  0.37903100  0.50203500  1
  C  C56  1  0.61280500  0.49838400  0.49444800  1
  C  C57  1  0.49573900  0.11985300  0.50509900  1
  C  C58  1  0.40807600  0.90964200  0.32321400  1
  C  C59  1  0.49857000  0.87955600  0.50310400  1
  C  C60  1  0.58532400  0.08864400  0.68303800  1
  C  C61  1  0.25981200  0.50326900  0.21341100  1
  C  C62  1  0.33192000  0.55912400  0.28074100  1
  C  C63  1  0.34807400  0.62337300  0.36080200  1
  C  C64  1  0.29037100  0.63351900  0.37048800  1
  C  C65  1  0.21829300  0.57761400  0.30326800  1
  C  C66  1  0.20312100  0.51223500  0.22496500  1
  C  C67  1  0.42793900  0.75197700  0.43935800  1
  C  C68  1  0.49700100  0.81179000  0.50151100  1
  C  C69  1  0.56252900  0.80500900  0.55797500  1
  C  C70  1  0.55718200  0.73943300  0.55255800  1
  C  C71  1  0.48842900  0.67897700  0.48930400  1
  C  C72  1  0.42329400  0.68473000  0.43038000  1
  C  C73  1  0.69831000  0.85188300  0.62483800  1
  C  C74  1  0.77002700  0.90831800  0.69114700  1
  C  C75  1  0.78163100  0.97920600  0.76048100  1
  C  C76  1  0.72152600  0.99357200  0.76357900  1
  C  C77  1  0.64956600  0.93741300  0.69681300  1
  C  C78  1  0.63761800  0.86652000  0.62670400  1
  C  C79  1  0.49407900  0.18499000  0.23606200  1
  C  C80  1  0.47923300  0.18953900  0.29378100  1
  C  C81  1  0.52729800  0.24856400  0.38689500  1
  C  C82  1  0.59150800  0.30195800  0.42231900  1
  C  C83  1  0.60679500  0.29670800  0.36458200  1
  C  C84  1  0.55784700  0.23861000  0.27145400  1
  C  C85  1  0.51109900  0.18925100  0.45071000  1
  C  C86  1  0.49755200  0.18757100  0.50657500  1
  C  C87  1  0.48599900  0.24926200  0.56158100  1
  C  C88  1  0.48929400  0.31163900  0.56038100  1
  C  C89  1  0.50215600  0.31296800  0.50385300  1
  C  C90  1  0.51250100  0.25076000  0.44781100  1
  C  C91  1  0.40747900  0.26256700  0.61578000  1
  C  C92  1  0.39548100  0.26799500  0.67590700  1
  C  C93  1  0.44920800  0.26411700  0.74519200  1
  C  C94  1  0.51503300  0.25503400  0.75447900  1
  C  C95  1  0.52686600  0.24899500  0.69394800  1
  C  C96  1  0.47268900  0.25200800  0.62378300  1
  C  C97  1  0.94345200  0.63620700  0.74226900  1
  C  C98  1  0.45973900  0.55263000  0.18467800  1
  N  N1  1  0.01520800  0.69781000  0.81867500  1
  N  N2  1  0.42747100  0.50274100  0.08932100  1
  O  O1  1  0.06879800  0.50714100  0.63911000  1
  O  O2  1  0.06705900  0.61315500  0.64002700  1
  O  O3  1  0.08573100  0.43617200  0.49914900  1
  O  O4  1  0.08628800  0.54105600  0.49786300  1
  O  O5  1  0.92583500  0.37466500  0.36496700  1
  O  O6  1  0.92593000  0.48077900  0.36587300  1
  O  O7  1  0.90820100  0.44746300  0.50843700  1
  O  O8  1  0.90723600  0.55073700  0.50402500  1
  O  O9  1  0.45039500  0.54364600  0.41197300  1
  O  O10  1  0.52801400  0.62474100  0.57046300  1
  O  O11  1  0.36486100  0.45449800  0.41959500  1
  O  O12  1  0.44371300  0.53463400  0.57830900  1
  O  O13  1  0.46178300  0.36671300  0.42200200  1
  O  O14  1  0.53647100  0.44772100  0.58062400  1
  O  O15  1  0.54464800  0.45826400  0.41465600  1
  O  O16  1  0.62342400  0.53547900  0.57339200  1
  O  O17  1  0.54921900  0.09189600  0.50673500  1
  O  O18  1  0.44077300  0.08936400  0.50081900  1
  O  O19  1  0.48251400  0.93012400  0.36794100  1
  O  O20  1  0.37507300  0.93197500  0.36407900  1
  O  O21  1  0.55329100  0.90983000  0.50691900  1
  O  O22  1  0.44350300  0.90584800  0.49816300  1
  O  O23  1  0.61848800  0.06732000  0.64234100  1
  O  O24  1  0.51088300  0.06747400  0.63847300  1
  O  O25  1  0.88869600  0.64947600  0.69996200  1
  O  O26  1  0.43921100  0.60630900  0.21233600  1
