# generated using pymatgen
data_ZnH9C16NO6
_symmetry_space_group_name_H-M   'P 1'
_cell_length_a   10.76713100
_cell_length_b   11.89841000
_cell_length_c   13.16031800
_cell_angle_alpha   91.18574200
_cell_angle_beta   90.00210200
_cell_angle_gamma   85.83772800
_symmetry_Int_Tables_number   1
_chemical_formula_structural   ZnH9C16NO6
_chemical_formula_sum   'Zn2 H18 C32 N2 O12'
_cell_volume   1681.18250837
_cell_formula_units_Z   2
loop_
 _symmetry_equiv_pos_site_id
 _symmetry_equiv_pos_as_xyz
  1  'x, y, z'
loop_
 _atom_site_type_symbol
 _atom_site_label
 _atom_site_symmetry_multiplicity
 _atom_site_fract_x
 _atom_site_fract_y
 _atom_site_fract_z
 _atom_site_occupancy
  Zn  Zn1  1  0.51079000  0.37419300  0.50449000  1
  Zn  Zn2  1  0.48917100  0.63002900  0.49341200  1
  H  H1  1  0.06915100  0.60823500  0.64540200  1
  H  H2  1  0.93080900  0.39598800  0.35250200  1
  H  H3  1  0.92808900  0.41776500  0.65272000  1
  H  H4  1  0.07187100  0.58645800  0.34518500  1
  H  H5  1  0.08975700  0.30911800  0.50691100  1
  H  H6  1  0.91020200  0.69510400  0.49099100  1
  H  H7  1  0.40625200  0.32341600  0.19261800  1
  H  H8  1  0.59415700  0.68059900  0.80512400  1
  H  H9  1  0.61928900  0.69873800  0.98364200  1
  H  H10  1  0.38118400  0.30546200  0.01400600  1
  H  H11  1  0.37927200  0.18455000  0.40990100  1
  H  H12  1  0.62068900  0.81967200  0.58799100  1
  H  H13  1  0.67241000  0.20798300  0.61855900  1
  H  H14  1  0.32755000  0.79623800  0.37933500  1
  H  H15  1  0.30855900  0.00163200  0.36280600  1
  H  H16  1  0.69140300  0.00258900  0.63508500  1
  H  H17  1  0.74415700  0.70275300  0.25512000  1
  H  H18  1  0.38771500  0.18831600  0.80157500  1
  C  C1  1  0.49813800  0.51832100  0.69794700  1
  C  C2  1  0.50183400  0.48591000  0.29994200  1
  C  C3  1  0.74263700  0.50313300  0.49846100  1
  C  C4  1  0.25732400  0.50109000  0.49944500  1
  C  C5  1  0.96239700  0.45598000  0.58287000  1
  C  C6  1  0.03756300  0.54824300  0.41503400  1
  C  C7  1  0.03608800  0.56013800  0.57886000  1
  C  C8  1  0.96387200  0.44408500  0.41904500  1
  C  C9  1  0.11924300  0.50105800  0.49926700  1
  C  C10  1  0.88071800  0.50316500  0.49863700  1
  C  C11  1  0.04782200  0.39687300  0.50328000  1
  C  C12  1  0.95213800  0.60735000  0.49462400  1
  C  C13  1  0.49770400  0.47676900  0.18820500  1
  C  C14  1  0.50226500  0.52750000  0.80968000  1
  C  C15  1  0.57178200  0.62753400  0.95605000  1
  C  C16  1  0.42844500  0.37674700  0.04174800  1
  C  C17  1  0.55735500  0.61783700  0.85263200  1
  C  C18  1  0.44287000  0.38632900  0.14517200  1
  C  C19  1  0.45876500  0.44607300  0.87242400  1
  C  C20  1  0.54105200  0.55837900  0.12558600  1
  C  C21  1  0.47202400  0.45646200  0.97780800  1
  C  C22  1  0.52800200  0.54800000  0.02012600  1
  C  C23  1  0.37787100  0.96289600  0.41301400  1
  C  C24  1  0.62209100  0.04132500  0.58487700  1
  C  C25  1  0.38846700  0.84740800  0.42255800  1
  C  C26  1  0.61149300  0.15681400  0.57533400  1
  C  C27  1  0.55183200  0.86056500  0.53867700  1
  C  C28  1  0.44812900  0.14365700  0.45921500  1
  C  C29  1  0.54362400  0.97633700  0.53050800  1
  C  C30  1  0.45633800  0.02788500  0.46738300  1
  C  C31  1  0.60562100  0.65203800  0.17072500  1
  C  C32  1  0.39379400  0.35243900  0.82774800  1
  N  N1  1  0.52537500  0.20610300  0.51308300  1
  N  N2  1  0.47458500  0.79811900  0.48481100  1
  O  O1  1  0.50763100  0.41794700  0.65408800  1
  O  O2  1  0.49232300  0.58626700  0.34381900  1
  O  O3  1  0.49114900  0.61184700  0.64618600  1
  O  O4  1  0.50881500  0.39238300  0.35171200  1
  O  O5  1  0.69310200  0.40588300  0.50246100  1
  O  O6  1  0.30685900  0.59834000  0.49544800  1
  O  O7  1  0.67682100  0.60010200  0.49462600  1
  O  O8  1  0.32314000  0.40412000  0.50327600  1
  O  O9  1  0.56275300  0.74908500  0.16179300  1
  O  O10  1  0.71282500  0.62974500  0.22815000  1
  O  O11  1  0.29895000  0.37188700  0.77853400  1
  O  O12  1  0.44270400  0.24166400  0.83791200  1
