# Generated by REPEAT Assigner based on pymatgen
data_DB0-m3_o1520_o22_f0_fsc.sym.19_sqe
_audit_creation_date              2022-05-24
_audit_creation_method            REPEAT_Assigner
_cell_length_a                    12.986023
_cell_length_b                    9.247044
_cell_length_c                    8.597600
_cell_angle_alpha                 90.000000
_cell_angle_beta                  95.299130
_cell_angle_gamma                 90.000000
_cell_volume                      1028.007442
_symmetry_space_group_name_H-M    P1
_symmetry_Int_Tables_number       1
loop_
    _symmetry_equiv_pos_site_id
    _symmetry_equiv_pos_as_xyz
    1  x,y,z
loop_
    _atom_site_type_symbol
    _atom_site_label
    _atom_site_fract_x
    _atom_site_fract_y
    _atom_site_fract_z
    _atom_type_partial_charge
    C   C1   0.298156  0.995540  0.109048  -0.183327
    C   C2   0.349001  0.977788  0.977867  -0.133587
    C   C3   0.299434  0.996881  0.831820  0.155256
    C   C4   0.193709  0.012744  0.814602  -0.331894
    C   C5   0.137144  0.006630  0.945340  0.038112
    C   C6   0.191163  0.006818  0.093086  0.303129
    C   C7   0.028456  0.002322  0.931917  0.110521
    C   C8   0.975345  0.005500  0.065846  -0.019136
    C   C9   0.032074  0.017574  0.210659  -0.166908
    C   C10  0.138140  0.015671  0.223750  -0.317486
    C   C11  0.971803  0.990190  0.787077  -0.203868
    C   C12  0.865769  0.991472  0.773939  -0.162173
    C   C13  0.812690  0.999719  0.904570  0.065577
    C   C14  0.866634  0.000666  0.052393  0.128693
    C   C15  0.705640  0.009239  0.888414  -0.106833
    C   C16  0.654436  0.025543  0.019447  -0.156351
    C   C17  0.704057  0.008169  0.165580  0.064974
    C   C18  0.809979  0.994512  0.183093  -0.282541
    H   H1   0.429668  0.954325  0.990254  0.147666
    H   H2   0.159569  0.029035  0.697361  0.157024
    H   H3   0.006406  0.977967  0.679266  0.137549
    H   H4   0.825204  0.986030  0.658619  0.163237
    H   H5   0.573522  0.046992  0.007133  0.066337
    H   H6   0.844171  0.979644  0.300524  0.148871
    H   H7   0.997502  0.029753  0.318500  0.133426
    H   H8   0.178772  0.020659  0.339051  0.175448
    O   O1   0.606211  0.129727  0.679315  -0.546851
    O   O2   0.611336  0.878273  0.680148  -0.707323
    C   C19  0.642177  0.005619  0.737313  0.775208
    O   O3   0.397565  0.877020  0.650231  -0.650733
    O   O4   0.391092  0.126158  0.646777  -0.573671
    C   C20  0.361956  0.000151  0.698347  0.642138
    O   O5   0.398784  0.876970  0.317901  -0.663054
    O   O6   0.393782  0.124287  0.317226  -0.613846
    C   C21  0.361802  0.998997  0.260075  0.746265
    O   O7   0.603812  0.127696  0.344430  -0.658047
    O   O8   0.610403  0.878773  0.347703  -0.628273
    C   C22  0.641433  0.004836  0.298962  0.728898
    Zn  Zn1  0.504641  0.841666  0.499682  0.941519
    Zn  Zn2  0.499417  0.163506  0.498536  0.868916
    C   C23  0.452176  0.588708  0.629757  0.393137
    C   C24  0.437851  0.424026  0.617888  -0.507177
    H   H9   0.373892  0.631134  0.630488  0.021522
    H   H10  0.355001  0.409552  0.586657  0.194186
    C   C25  0.448667  0.588233  0.354307  0.379765
    C   C26  0.457972  0.424256  0.345350  -0.189553
    C   C27  0.607335  0.583464  0.511733  0.423497
    C   C28  0.602794  0.419166  0.533904  -0.134023
    N   N1   0.503481  0.649735  0.497765  -0.248002
    N   N2   0.497325  0.356327  0.496505  0.407778
    H   H11  0.652169  0.626634  0.615066  -0.054294
    H   H12  0.625702  0.404030  0.657871  0.069804
    H   H13  0.481915  0.633967  0.251980  -0.006983
    H   H14  0.512380  0.398414  0.257661  0.077087
    C   C29  0.497283  0.635957  0.789307  0.662901
    O   O9   0.440845  0.696885  0.874133  -0.543916
    O   O10  0.597244  0.602873  0.849432  -0.515002
    H   H15  0.611906  0.653067  0.953002  0.361878
    C   C30  0.450733  0.359672  0.779859  0.551046
    O   O11  0.372321  0.330906  0.840962  -0.444582
    O   O12  0.545570  0.336406  0.865054  -0.493826
    H   H16  0.534373  0.298939  0.972730  0.372429
    C   C31  0.334233  0.623581  0.321342  0.495013
    O   O13  0.270820  0.606121  0.415605  -0.501343
    O   O14  0.299411  0.671212  0.171978  -0.405119
    H   H17  0.222098  0.687933  0.164574  0.329872
    C   C32  0.351301  0.380603  0.275719  0.540394
    O   O15  0.284247  0.336274  0.354131  -0.469307
    O   O16  0.328089  0.393897  0.115651  -0.513723
    H   H18  0.254316  0.362256  0.085657  0.399592
    C   C33  0.678389  0.625102  0.391533  0.588099
    O   O17  0.761921  0.677661  0.436751  -0.535947
    O   O18  0.653987  0.607599  0.232318  -0.621776
    H   H19  0.715386  0.638927  0.176124  0.412245
    C   C34  0.690639  0.348357  0.461557  0.512307
    O   O19  0.756721  0.286198  0.546641  -0.496152
    O   O20  0.700713  0.353387  0.301752  -0.458808
    H   H20  0.765627  0.300611  0.277592  0.354119
