# generated using pymatgen
data_FeH13C32N4ClO8
_symmetry_space_group_name_H-M   'P 1'
_cell_length_a   17.29854600
_cell_length_b   17.21043400
_cell_length_c   17.11228400
_cell_angle_alpha   106.19448000
_cell_angle_beta   91.01888400
_cell_angle_gamma   107.49174400
_symmetry_Int_Tables_number   1
_chemical_formula_structural   FeH13C32N4ClO8
_chemical_formula_sum   'Fe2 H26 C64 N8 Cl2 O16'
_cell_volume   4637.41307224
_cell_formula_units_Z   2
loop_
 _symmetry_equiv_pos_site_id
 _symmetry_equiv_pos_as_xyz
  1  'x, y, z'
loop_
 _atom_site_type_symbol
 _atom_site_label
 _atom_site_symmetry_multiplicity
 _atom_site_fract_x
 _atom_site_fract_y
 _atom_site_fract_z
 _atom_site_occupancy
  Fe  Fe1  1  0.53154700  0.00650300  0.33821100  1
  Fe  Fe2  1  0.47040700  0.99039200  0.65547000  1
  H  H1  1  0.02136500  0.92838800  0.22622300  1
  H  H2  1  0.72993000  0.95717900  0.00630100  1
  H  H3  1  0.98359200  0.07775100  0.77291900  1
  H  H4  1  0.27221100  0.04054300  0.98694200  1
  H  H5  1  0.94377900  0.92850500  0.01421200  1
  H  H6  1  0.06032200  0.07131800  0.97881600  1
  H  H7  1  0.29322100  0.99622700  0.84673400  1
  H  H8  1  0.34536300  0.03400000  0.09829800  1
  H  H9  1  0.28254500  0.93054200  0.29794200  1
  H  H10  1  0.13940100  0.91349100  0.26721200  1
  H  H11  1  0.94078800  0.99265900  0.31594100  1
  H  H12  1  0.70890800  0.00123500  0.14725100  1
  H  H13  1  0.65724600  0.96454300  0.89513700  1
  H  H14  1  0.72077800  0.06991900  0.69680900  1
  H  H15  1  0.86405200  0.08740300  0.72814800  1
  H  H16  1  0.17109200  0.95120500  0.61019300  1
  H  H17  1  0.82553900  0.02569700  0.38087000  1
  H  H18  1  0.51046500  0.27766300  0.42850600  1
  H  H19  1  0.48158200  0.41369600  0.67103300  1
  H  H20  1  0.46964700  0.29075300  0.71437100  1
  H  H21  1  0.52017400  0.58301300  0.32258600  1
  H  H22  1  0.53105300  0.70559100  0.27895700  1
  H  H23  1  0.49298800  0.71966600  0.56549100  1
  H  H24  1  0.95755600  0.04149400  0.51778600  1
  H  H25  1  0.83836800  0.83911200  0.61435500  1
  H  H26  1  0.96466500  0.86746600  0.70033700  1
  C  C1  1  0.21840700  0.99442600  0.11720900  1
  C  C2  1  0.16244100  0.96346600  0.16471500  1
  C  C3  1  0.08804600  0.96321800  0.13445700  1
  C  C4  1  0.17634000  0.00911900  0.05640000  1
  C  C5  1  0.01949500  0.94485200  0.16988500  1
  C  C6  1  0.94386000  0.95729700  0.14387100  1
  C  C7  1  0.88819100  0.97740500  0.19583400  1
  C  C8  1  0.82546400  0.98114700  0.14986800  1
  C  C9  1  0.84402800  0.96377800  0.06988000  1
  C  C10  1  0.79377800  0.96511000  0.00037700  1
  C  C11  1  0.82589900  0.98889200  0.93714900  1
  C  C12  1  0.78435300  0.00537900  0.87728100  1
  C  C13  1  0.84066600  0.03740900  0.83060300  1
  C  C14  1  0.91466500  0.03621900  0.86033100  1
  C  C15  1  0.98355200  0.05528600  0.82584200  1
  C  C16  1  0.05635300  0.03577800  0.84857900  1
  C  C17  1  0.11016500  0.01135900  0.79540500  1
  C  C18  1  0.17449500  0.01106800  0.84217800  1
  C  C19  1  0.15756100  0.03177300  0.92259800  1
  C  C20  1  0.20826100  0.03213000  0.99266000  1
  C  C21  1  0.10662700  0.98769400  0.71099700  1
  C  C22  1  0.17328400  0.96987300  0.67612900  1
  C  C23  1  0.24151200  0.97491800  0.72415900  1
  C  C24  1  0.24142000  0.99324300  0.80850900  1
  C  C25  1  0.30014900  0.00667400  0.13416500  1
  C  C26  1  0.32295100  0.98311500  0.19991800  1
  C  C27  1  0.26461900  0.94787600  0.24604200  1
  C  C28  1  0.18362300  0.93905000  0.22962100  1
  C  C29  1  0.89019800  0.99421500  0.27914500  1
  C  C30  1  0.82481800  0.01335500  0.31540500  1
  C  C31  1  0.75881900  0.01516800  0.26868800  1
  C  C32  1  0.75934400  0.00003100  0.18450100  1
  C  C33  1  0.70265300  0.99289700  0.86000600  1
  C  C34  1  0.68004300  0.01676200  0.79442000  1
  C  C35  1  0.73860800  0.05271600  0.74883600  1
  C  C36  1  0.81970200  0.06204000  0.76574700  1
  C  C37  1  0.68708000  0.02650100  0.30904700  1
  C  C38  1  0.52699800  0.85813400  0.36422600  1
  C  C39  1  0.40850900  0.99969400  0.22618200  1
  C  C40  1  0.49243800  0.13008700  0.45313400  1
  C  C41  1  0.49394000  0.20869800  0.51576000  1
  C  C42  1  0.50258700  0.28107900  0.49172900  1
  C  C43  1  0.49709000  0.35508900  0.54653900  1
  C  C44  1  0.48570200  0.35705100  0.62644800  1
  C  C45  1  0.47845400  0.28607600  0.65112300  1
  C  C46  1  0.48154200  0.21093600  0.59665900  1
  C  C47  1  0.50265500  0.56682200  0.47339300  1
  C  C48  1  0.50033100  0.43033900  0.52051100  1
  C  C49  1  0.51625400  0.63973300  0.36720600  1
  C  C50  1  0.52288300  0.71049200  0.34235700  1
  C  C51  1  0.51989400  0.78567700  0.39681600  1
  C  C52  1  0.50840100  0.78823100  0.47793500  1
  C  C53  1  0.50030800  0.71604600  0.50214000  1
  C  C54  1  0.50558700  0.64195700  0.44729200  1
  C  C55  1  0.59440400  0.99900700  0.76748300  1
  C  C56  1  0.50996900  0.86689600  0.54050800  1
  C  C57  1  0.31424200  0.96589700  0.68446700  1
  C  C58  1  0.47383900  0.13826200  0.62909000  1
  C  C59  1  0.03244200  0.97099200  0.65801300  1
  C  C60  1  0.03053600  0.01936300  0.60603500  1
  C  C61  1  0.95941400  0.00301300  0.55763300  1
  C  C62  1  0.89039400  0.93841600  0.56071000  1
  C  C63  1  0.89246500  0.88971700  0.61187100  1
  C  C64  1  0.96338500  0.90575100  0.66015900  1
  N  N1  1  0.09628500  0.99042200  0.06735700  1
  N  N2  1  0.91639000  0.94837000  0.06652400  1
  N  N3  1  0.90583000  0.00696600  0.92611800  1
  N  N4  1  0.08574700  0.04799400  0.92614400  1
  N  N5  1  0.49295200  0.50065500  0.57478300  1
  N  N6  1  0.49423600  0.56813900  0.55164100  1
  N  N7  1  0.51005500  0.49651400  0.41912700  1
  N  N8  1  0.50877800  0.42903400  0.44227000  1
  Cl  Cl1  1  0.11615900  0.10471300  0.60423400  1
  Cl  Cl2  1  0.79981300  0.91852600  0.50023400  1
  O  O1  1  0.62044200  0.02146400  0.26709500  1
  O  O2  1  0.53939500  0.84936700  0.28727800  1
  O  O3  1  0.68526100  0.02995400  0.38653300  1
  O  O4  1  0.51946400  0.93065100  0.40851800  1
  O  O5  1  0.42615300  0.95019000  0.26469900  1
  O  O6  1  0.46301900  0.07220400  0.22764300  1
  O  O7  1  0.55591300  0.12580600  0.41301600  1
  O  O8  1  0.42642500  0.06326400  0.43609900  1
  O  O9  1  0.57609500  0.04782400  0.72854200  1
  O  O10  1  0.54039400  0.92638500  0.76653600  1
  O  O11  1  0.44671500  0.87094200  0.58104900  1
  O  O12  1  0.57570300  0.93398400  0.55695900  1
  O  O13  1  0.46158400  0.14705700  0.70607300  1
  O  O14  1  0.38197200  0.97486900  0.72713900  1
  O  O15  1  0.48115500  0.06567200  0.58473800  1
  O  O16  1  0.31544300  0.96072400  0.60656300  1
