# generated using pymatgen
data_Zn2H21C48N9O14
_symmetry_space_group_name_H-M   'P 1'
_cell_length_a   9.26415900
_cell_length_b   13.27911400
_cell_length_c   16.31461900
_cell_angle_alpha   90.04513400
_cell_angle_beta   94.74907700
_cell_angle_gamma   90.59196000
_symmetry_Int_Tables_number   1
_chemical_formula_structural   Zn2H21C48N9O14
_chemical_formula_sum   'Zn2 H21 C48 N9 O14'
_cell_volume   2000.02164823
_cell_formula_units_Z   1
loop_
 _symmetry_equiv_pos_site_id
 _symmetry_equiv_pos_as_xyz
  1  'x, y, z'
loop_
 _atom_site_type_symbol
 _atom_site_label
 _atom_site_symmetry_multiplicity
 _atom_site_fract_x
 _atom_site_fract_y
 _atom_site_fract_z
 _atom_site_occupancy
  Zn  Zn1  1  0.16292100  0.48943900  0.50643000  1
  Zn  Zn2  1  0.84072100  0.50441100  0.49399600  1
  H  H1  1  0.80835500  0.30840000  0.98312400  1
  H  H2  1  0.03655700  0.00610300  0.72698800  1
  H  H3  1  0.86330800  0.03484000  0.04159500  1
  H  H4  1  0.09030600  0.96214200  0.95968700  1
  H  H5  1  0.13319100  0.59460200  0.89177200  1
  H  H6  1  0.98053600  0.83286300  0.66968300  1
  H  H7  1  0.05192500  0.16232900  0.66942500  1
  H  H8  1  0.89629800  0.45352600  0.72418400  1
  H  H9  1  0.89655700  0.40093300  0.09838100  1
  H  H10  1  0.99242900  0.16723800  0.33254400  1
  H  H11  1  0.88483300  0.80985900  0.32211000  1
  H  H12  1  0.18086600  0.57125300  0.29048100  1
  H  H13  1  0.24709800  0.63978600  0.16613700  1
  H  H14  1  0.10836900  0.53955500  0.75356900  1
  H  H15  1  0.94366300  0.46575300  0.23863000  1
  H  H16  1  0.36639700  0.64690200  0.51651200  1
  H  H17  1  0.24824900  0.29724100  0.50282700  1
  H  H18  1  0.37540700  0.14959000  0.48715900  1
  H  H19  1  0.63638200  0.15541400  0.47600000  1
  H  H20  1  0.76046000  0.30479900  0.48021400  1
  H  H21  1  0.62680900  0.65599600  0.50433600  1
  C  C1  1  0.97178200  0.18416900  0.78890400  1
  C  C2  1  0.92031700  0.25019300  0.84340800  1
  C  C3  1  0.90617400  0.19763100  0.91546600  1
  C  C4  1  0.98493900  0.09240300  0.82789600  1
  C  C5  1  0.85791600  0.23580800  0.98401800  1
  C  C6  1  0.88556300  0.19163400  0.06584200  1
  C  C7  1  0.91239500  0.24681000  0.13730100  1
  C  C8  1  0.93664700  0.18096700  0.20066400  1
  C  C9  1  0.92143300  0.08471000  0.16533900  1
  C  C10  1  0.93110700  0.98787800  0.20864100  1
  C  C11  1  0.97689600  0.90358400  0.17296500  1
  C  C12  1  0.00684900  0.81409300  0.21357700  1
  C  C13  1  0.08849700  0.75926100  0.16454300  1
  C  C14  1  0.08667300  0.80773500  0.08940900  1
  C  C15  1  0.12977400  0.76565400  0.01973200  1
  C  C16  1  0.09290000  0.80563100  0.93583500  1
  C  C17  1  0.07718100  0.74981000  0.86294400  1
  C  C18  1  0.03916300  0.81489700  0.80024500  1
  C  C19  1  0.03643600  0.91021600  0.83600400  1
  C  C20  1  0.02048200  0.00635900  0.79191700  1
  C  C21  1  0.09915900  0.64948400  0.84659000  1
  C  C22  1  0.08214500  0.61658300  0.76645600  1
  C  C23  1  0.03229700  0.67863600  0.70250000  1
  C  C24  1  0.01260800  0.78120200  0.71885400  1
  C  C25  1  0.00783100  0.21367900  0.71199900  1
  C  C26  1  0.98302900  0.31294700  0.69075900  1
  C  C27  1  0.91982700  0.37737600  0.74359300  1
  C  C28  1  0.89638500  0.34950100  0.82217700  1
  C  C29  1  0.91707700  0.34922000  0.14889600  1
  C  C30  1  0.94518900  0.38549300  0.22800800  1
  C  C31  1  0.97323100  0.32097400  0.29426100  1
  C  C32  1  0.97021700  0.21671200  0.28089700  1
  C  C33  1  0.96372000  0.77498300  0.28654300  1
  C  C34  1  0.02379600  0.68507000  0.31281500  1
  C  C35  1  0.12714600  0.63927100  0.26893100  1
  C  C36  1  0.16052200  0.67565400  0.19471900  1
  C  C37  1  0.01716400  0.62970800  0.62034100  1
  C  C38  1  0.00242900  0.35477600  0.61061800  1
  C  C39  1  0.98682900  0.36806300  0.37699700  1
  C  C40  1  0.00176700  0.63904600  0.39112700  1
  C  C41  1  0.36027200  0.30866400  0.49731800  1
  C  C42  1  0.43262000  0.22100400  0.48826800  1
  C  C43  1  0.57713200  0.22438500  0.48194100  1
  C  C44  1  0.64849300  0.31514300  0.48377400  1
  C  C45  1  0.57808100  0.40777200  0.49105800  1
  C  C46  1  0.42929600  0.40295300  0.49917400  1
  C  C47  1  0.42501500  0.57779600  0.51018300  1
  C  C48  1  0.57296300  0.58333500  0.50175500  1
  N  N1  1  0.94741300  0.10109300  0.90617100  1
  N  N2  1  0.89011900  0.09284400  0.08322200  1
  N  N3  1  0.02066500  0.89797500  0.09537700  1
  N  N4  1  0.07006000  0.90328500  0.91815200  1
  N  N5  1  0.35360100  0.48844100  0.50928000  1
  N  N6  1  0.64984800  0.49939600  0.49124500  1
  N  N7  1  0.86219500  0.42532000  0.87891600  1
  N  N8  1  0.91139700  0.98893500  0.29434100  1
  N  N9  1  0.19219900  0.66830200  0.02445100  1
  O  O1  1  0.88620100  0.60421400  0.58645000  1
  O  O2  1  0.13727600  0.59199000  0.59513300  1
  O  O3  1  0.13094800  0.38351800  0.59194200  1
  O  O4  1  0.88633600  0.39468900  0.57646500  1
  O  O5  1  0.11473500  0.39306900  0.41192300  1
  O  O6  1  0.86983900  0.40732300  0.40189700  1
  O  O7  1  0.86974200  0.61355300  0.41066900  1
  O  O8  1  0.12175900  0.60095300  0.42515100  1
  O  O9  1  0.95477900  0.44437500  0.94142700  1
  O  O10  1  0.76982200  0.49436300  0.85461100  1
  O  O11  1  0.79623800  0.03048400  0.31923500  1
  O  O12  1  0.02193200  0.97280800  0.34706700  1
  O  O13  1  0.32093400  0.65529700  0.00014000  1
  O  O14  1  0.11120300  0.59042200  0.03816100  1
