# generated using pymatgen
data_Fe2H14C44O17
_symmetry_space_group_name_H-M   'P 1'
_cell_length_a   13.49181600
_cell_length_b   14.63697300
_cell_length_c   11.12534500
_cell_angle_alpha   93.90840400
_cell_angle_beta   85.74249100
_cell_angle_gamma   107.61058000
_symmetry_Int_Tables_number   1
_chemical_formula_structural   Fe2H14C44O17
_chemical_formula_sum   'Fe2 H14 C44 O17'
_cell_volume   2085.86801444
_cell_formula_units_Z   1
loop_
 _symmetry_equiv_pos_site_id
 _symmetry_equiv_pos_as_xyz
  1  'x, y, z'
loop_
 _atom_site_type_symbol
 _atom_site_label
 _atom_site_symmetry_multiplicity
 _atom_site_fract_x
 _atom_site_fract_y
 _atom_site_fract_z
 _atom_site_occupancy
  Fe  Fe1  1  0.50206900  0.99219200  0.26509500  1
  Fe  Fe2  1  0.50307800  0.00386700  0.73294100  1
  H  H1  1  0.19631600  0.00679200  0.25700300  1
  H  H2  1  0.03130500  0.01922400  0.21067900  1
  H  H3  1  0.11312300  0.98847900  0.83337900  1
  H  H4  1  0.00556200  0.07118700  0.81586800  1
  H  H5  1  0.83557500  0.06427200  0.76031000  1
  H  H6  1  0.87473900  0.95713800  0.15691800  1
  H  H7  1  0.61014000  0.33032300  0.78063500  1
  H  H8  1  0.63867100  0.48924600  0.86801200  1
  H  H9  1  0.40583700  0.22211900  0.23665500  1
  H  H10  1  0.36355400  0.34189300  0.13648700  1
  H  H11  1  0.62747100  0.64741300  0.86283900  1
  H  H12  1  0.58945400  0.77010900  0.76114900  1
  H  H13  1  0.37357900  0.65938900  0.22378000  1
  H  H14  1  0.39275800  0.51876500  0.04936300  1
  C  C1  1  0.17820500  0.00246200  0.16341500  1
  C  C2  1  0.08300400  0.00833600  0.13623800  1
  C  C3  1  0.05754100  0.00402200  0.01746600  1
  C  C4  1  0.13200100  0.99600400  0.92666400  1
  C  C5  1  0.23131100  0.99662800  0.95331600  1
  C  C6  1  0.25323500  0.99857500  0.07420000  1
  C  C7  1  0.94096200  0.04409100  0.87999700  1
  C  C8  1  0.84396400  0.04331400  0.84936300  1
  C  C9  1  0.75814300  0.01273300  0.92827000  1
  C  C10  1  0.77137500  0.98958600  0.04417400  1
  C  C11  1  0.86791000  0.98334100  0.07078400  1
  C  C12  1  0.95369500  0.00948900  0.98863100  1
  C  C13  1  0.68819900  0.97823400  0.14183000  1
  C  C14  1  0.48842900  0.81330100  0.34290900  1
  C  C15  1  0.35519200  0.00376100  0.11487000  1
  C  C16  1  0.46622100  0.14574900  0.39864300  1
  C  C17  1  0.53373400  0.84786000  0.59765900  1
  C  C18  1  0.65560200  0.99845700  0.88146900  1
  C  C19  1  0.50324200  0.17810100  0.65419600  1
  C  C20  1  0.30979300  0.99541400  0.85270200  1
  C  C21  1  0.47970500  0.24067100  0.45831500  1
  C  C22  1  0.50922800  0.25895300  0.57699500  1
  C  C23  1  0.53497400  0.35352300  0.62477700  1
  C  C24  1  0.58307100  0.37925500  0.73335800  1
  C  C25  1  0.60259000  0.47105300  0.78251100  1
  C  C26  1  0.42083300  0.29182100  0.28230500  1
  C  C27  1  0.45974300  0.31192200  0.39622500  1
  C  C28  1  0.47632700  0.40337900  0.44873600  1
  C  C29  1  0.39595200  0.36076900  0.22392000  1
  C  C30  1  0.41233300  0.45168900  0.27628900  1
  C  C31  1  0.51631300  0.42470200  0.56128000  1
  C  C32  1  0.53646100  0.51744000  0.61113600  1
  C  C33  1  0.57751800  0.53940100  0.72293900  1
  C  C34  1  0.59551600  0.63027700  0.77495300  1
  C  C35  1  0.45460700  0.47404700  0.38765400  1
  C  C36  1  0.47492200  0.56687900  0.43761900  1
  C  C37  1  0.51593100  0.58841900  0.54962800  1
  C  C38  1  0.53436800  0.68030200  0.60152500  1
  C  C39  1  0.57328900  0.70022400  0.71564100  1
  C  C40  1  0.38432000  0.51973000  0.21873600  1
  C  C41  1  0.40349200  0.61122200  0.26876400  1
  C  C42  1  0.45502400  0.63781900  0.37496900  1
  C  C43  1  0.48319600  0.73299100  0.42118100  1
  C  C44  1  0.51624400  0.75211400  0.53874200  1
  O  O1  1  0.60674700  0.00729300  0.12762400  1
  O  O2  1  0.50760000  0.80446300  0.22600500  1
  O  O3  1  0.70146000  0.95034100  0.24749600  1
  O  O4  1  0.48722400  0.89783400  0.38962800  1
  O  O5  1  0.36146900  0.94488200  0.19578300  1
  O  O6  1  0.43496700  0.07935400  0.09234300  1
  O  O7  1  0.54750900  0.12298000  0.34806200  1
  O  O8  1  0.37287400  0.08385400  0.39474100  1
  O  O9  1  0.45504100  0.87201200  0.65302300  1
  O  O10  1  0.62816700  0.90815800  0.59827500  1
  O  O11  1  0.64609800  0.05231800  0.79622300  1
  O  O12  1  0.57793600  0.92250700  0.90920000  1
  O  O13  1  0.28845600  0.00304500  0.74131100  1
  O  O14  1  0.51398100  0.09654500  0.60744600  1
  O  O15  1  0.40252600  0.99069700  0.87443700  1
  O  O16  1  0.47584700  0.18351900  0.76952200  1
  O  O17  1  0.33602700  0.49696700  0.11226700  1
