# generated using pymatgen
data_Zn2H36C67O8
_symmetry_space_group_name_H-M   'P 1'
_cell_length_a   16.05730100
_cell_length_b   16.21579400
_cell_length_c   29.53256400
_cell_angle_alpha   90.52656500
_cell_angle_beta   90.31889200
_cell_angle_gamma   90.57419700
_symmetry_Int_Tables_number   1
_chemical_formula_structural   Zn2H36C67O8
_chemical_formula_sum   'Zn4 H72 C134 O16'
_cell_volume   7688.91072668
_cell_formula_units_Z   2
loop_
 _symmetry_equiv_pos_site_id
 _symmetry_equiv_pos_as_xyz
  1  'x, y, z'
loop_
 _atom_site_type_symbol
 _atom_site_label
 _atom_site_symmetry_multiplicity
 _atom_site_fract_x
 _atom_site_fract_y
 _atom_site_fract_z
 _atom_site_occupancy
  Zn  Zn1  1  0.48475600  0.10381600  0.51212900  1
  Zn  Zn2  1  0.48793700  0.91740100  0.51328300  1
  Zn  Zn3  1  0.08354400  0.51227500  0.01169500  1
  Zn  Zn4  1  0.89506700  0.50808800  0.01267600  1
  H  H1  1  0.27314700  0.13161100  0.42642700  1
  H  H2  1  0.62337800  0.90543200  0.64039300  1
  H  H3  1  0.67862800  0.88187500  0.41344900  1
  H  H4  1  0.29035900  0.13862500  0.61012900  1
  H  H5  1  0.86235000  0.67515800  0.12565700  1
  H  H6  1  0.11866800  0.33773500  0.90275200  1
  H  H7  1  0.11761100  0.72908300  0.09695400  1
  H  H8  1  0.85608300  0.30465800  0.91985100  1
  H  H9  1  0.87498500  0.37015600  0.13754400  1
  H  H10  1  0.10324900  0.73738900  0.93546000  1
  H  H11  1  0.65868000  0.14408700  0.40342200  1
  H  H12  1  0.31723700  0.87776200  0.62361600  1
  H  H13  1  0.16364000  0.13391200  0.36962300  1
  H  H14  1  0.73051800  0.90355400  0.69926200  1
  H  H15  1  0.78660200  0.88346700  0.35582300  1
  H  H16  1  0.18243000  0.13684900  0.66777500  1
  H  H17  1  0.10453000  0.17379800  0.14954800  1
  H  H18  1  0.87509600  0.75703900  0.82473600  1
  H  H19  1  0.86173600  0.78660500  0.18160400  1
  H  H20  1  0.11768600  0.22864800  0.84542000  1
  H  H21  1  0.87252600  0.26416200  0.19580200  1
  H  H22  1  0.10438900  0.84636500  0.87926300  1
  H  H23  1  0.21392000  0.75210600  0.16502300  1
  H  H24  1  0.34146100  0.83504400  0.17366100  1
  H  H25  1  0.33678500  0.98577800  0.16611700  1
  H  H26  1  0.20424400  0.05329900  0.14865200  1
  H  H27  1  0.07663500  0.97101100  0.13902900  1
  H  H28  1  0.80808400  0.15240200  0.92684400  1
  H  H29  1  0.67577200  0.08365900  0.90754000  1
  H  H30  1  0.62693400  0.07830100  0.82849800  1
  H  H31  1  0.71001500  0.14363700  0.76876000  1
  H  H32  1  0.84137100  0.21434800  0.78790100  1
  H  H33  1  0.31628600  0.86684300  0.29117200  1
  H  H34  1  0.28284600  0.74167100  0.24718200  1
  H  H35  1  0.14883300  0.67007400  0.25789000  1
  H  H36  1  0.04941600  0.72208200  0.31413100  1
  H  H37  1  0.08426400  0.84496500  0.35987400  1
  H  H38  1  0.92328300  0.08287700  0.59207500  1
  H  H39  1  0.03945600  0.18258400  0.59635900  1
  H  H40  1  0.03945200  0.29274500  0.65414700  1
  H  H41  1  0.92298000  0.30339900  0.70759000  1
  H  H42  1  0.80655300  0.20400400  0.70313900  1
  H  H43  1  0.65219700  0.19485300  0.31746800  1
  H  H44  1  0.69490800  0.32721700  0.28490100  1
  H  H45  1  0.84092400  0.37357200  0.29029900  1
  H  H46  1  0.94392800  0.28817300  0.32948500  1
  H  H47  1  0.90150400  0.15665300  0.36293300  1
  H  H48  1  0.17985500  0.79522400  0.62419300  1
  H  H49  1  0.14107100  0.66365400  0.65879500  1
  H  H50  1  0.14295300  0.64945700  0.74161500  1
  H  H51  1  0.18576100  0.76694600  0.78987300  1
  H  H52  1  0.22682700  0.89807000  0.75563400  1
  H  H53  1  0.22050400  0.28912600  0.13037200  1
  H  H54  1  0.33436500  0.27565200  0.07579600  1
  H  H55  1  0.30324100  0.24949400  0.99528400  1
  H  H56  1  0.15794400  0.23547700  0.96953200  1
  H  H57  1  0.04370800  0.24893900  0.02384000  1
  H  H58  1  0.75925000  0.71455300  0.88370400  1
  H  H59  1  0.64755900  0.61137000  0.87428100  1
  H  H60  1  0.68179100  0.46565800  0.86115800  1
  H  H61  1  0.82810500  0.42343700  0.85676500  1
  H  H62  1  0.94023100  0.52612500  0.86619200  1
  H  H63  1  0.23547600  0.79189100  0.42368600  1
  H  H64  1  0.31578900  0.66449300  0.43100500  1
  H  H65  1  0.46056000  0.65968700  0.40445700  1
  H  H66  1  0.52499200  0.78238100  0.37035100  1
  H  H67  1  0.44461100  0.90964900  0.36255100  1
  H  H68  1  0.69928200  0.23937800  0.62171900  1
  H  H69  1  0.71055400  0.34618600  0.56354000  1
  H  H70  1  0.75317700  0.30892400  0.48620400  1
  H  H71  1  0.78489300  0.16478100  0.46713200  1
  H  H72  1  0.77322900  0.05767500  0.52511900  1
  C  C1  1  0.60384600  0.01401200  0.57468800  1
  C  C2  1  0.36992200  0.00704100  0.44994300  1
  C  C3  1  0.59841700  0.01304000  0.44858200  1
  C  C4  1  0.37413800  0.00814100  0.57679000  1
  C  C5  1  0.19840600  0.07799600  0.37473400  1
  C  C6  1  0.72974700  0.95308000  0.67502200  1
  C  C7  1  0.26087400  0.07634500  0.40670600  1
  C  C8  1  0.67004300  0.95390500  0.64141100  1
  C  C9  1  0.75813100  0.94064500  0.36624600  1
  C  C10  1  0.21317300  0.08016600  0.65855600  1
  C  C11  1  0.69703200  0.94003600  0.39879900  1
  C  C12  1  0.27386000  0.08080200  0.62577600  1
  C  C13  1  0.05559400  0.21885100  0.14737700  1
  C  C14  1  0.92443700  0.75242200  0.84960200  1
  C  C15  1  0.05710100  0.27689400  0.11350700  1
  C  C16  1  0.92354000  0.68907200  0.88061600  1
  C  C17  1  0.91796500  0.77396200  0.16293900  1
  C  C18  1  0.06006500  0.24630500  0.86139200  1
  C  C19  1  0.91856300  0.71105900  0.13129500  1
  C  C20  1  0.06045300  0.30737300  0.89410200  1
  C  C21  1  0.06051400  0.80541900  0.14667700  1
  C  C22  1  0.91312100  0.22821100  0.87034800  1
  C  C23  1  0.06155200  0.74065400  0.11594500  1
  C  C24  1  0.91389200  0.28850000  0.90364100  1
  C  C25  1  0.92486400  0.26842800  0.17304300  1
  C  C26  1  0.05367500  0.80204100  0.87958100  1
  C  C27  1  0.92610300  0.32751300  0.13975000  1
  C  C28  1  0.05293900  0.74001800  0.91108200  1
  C  C29  1  0.22334500  0.93693700  0.35604000  1
  C  C30  1  0.78971000  0.07669400  0.64576700  1
  C  C31  1  0.28719700  0.93482700  0.38795300  1
  C  C32  1  0.72985600  0.07808900  0.61181200  1
  C  C33  1  0.74804100  0.08721500  0.36085400  1
  C  C34  1  0.22820500  0.93445900  0.66666667  1
  C  C35  1  0.68588800  0.08634300  0.39297800  1
  C  C36  1  0.28796800  0.93501700  0.63311200  1
  C  C37  1  0.98252200  0.01469000  0.26093400  1
  C  C38  1  0.98899200  0.00664500  0.76385900  1
  C  C39  1  0.17929800  0.00861100  0.34963100  1
  C  C40  1  0.78948300  0.01429100  0.67715700  1
  C  C41  1  0.30539700  0.00504500  0.41414200  1
  C  C42  1  0.66916600  0.01619700  0.60973800  1
  C  C43  1  0.78415300  0.01385700  0.34743700  1
  C  C44  1  0.19001600  0.00742300  0.67890900  1
  C  C45  1  0.66118600  0.01307300  0.41270600  1
  C  C46  1  0.31109800  0.00804300  0.61256500  1
  C  C47  1  0.98967600  0.21403800  0.17678800  1
  C  C48  1  0.98915900  0.80868600  0.84910500  1
  C  C49  1  0.99195400  0.33264300  0.10979100  1
  C  C50  1  0.98760300  0.68383500  0.91251100  1
  C  C51  1  0.98841500  0.82126000  0.17073700  1
  C  C52  1  0.98683700  0.20658600  0.84951800  1
  C  C53  1  0.99053600  0.69388200  0.10775700  1
  C  C54  1  0.98737700  0.32839600  0.91560900  1
  C  C55  1  0.05531100  0.01350100  0.29078200  1
  C  C56  1  0.91483200  0.00726400  0.73500700  1
  C  C57  1  0.98401400  0.08906200  0.23329400  1
  C  C58  1  0.98873500  0.93349000  0.79242900  1
  C  C59  1  0.90820100  0.01311300  0.28923100  1
  C  C60  1  0.06241100  0.00726000  0.73485900  1
  C  C61  1  0.98348000  0.94293900  0.23063400  1
  C  C62  1  0.98985300  0.07966400  0.79312100  1
  C  C63  1  0.11291000  0.01160200  0.31700900  1
  C  C64  1  0.85621100  0.00960000  0.70947600  1
  C  C65  1  0.98548800  0.88633200  0.20397900  1
  C  C66  1  0.98924500  0.13831200  0.81837300  1
  C  C67  1  0.98605700  0.14761500  0.20849600  1
  C  C68  1  0.98876300  0.87550000  0.81762400  1
  C  C69  1  0.85010300  0.01285200  0.31484000  1
  C  C70  1  0.12127900  0.00764500  0.70977400  1
  C  C71  1  0.99105200  0.62764000  0.07366600  1
  C  C72  1  0.98749000  0.39295500  0.95061700  1
  C  C73  1  0.99051600  0.39716400  0.07510300  1
  C  C74  1  0.98831200  0.62167700  0.94846900  1
  C  C75  1  0.13608900  0.85603700  0.15290100  1
  C  C76  1  0.21121500  0.81830200  0.16144200  1
  C  C77  1  0.28304500  0.86486000  0.16641100  1
  C  C78  1  0.28043100  0.94932200  0.16224900  1
  C  C79  1  0.20606600  0.98716600  0.15262300  1
  C  C80  1  0.13416000  0.94071400  0.14765300  1
  C  C81  1  0.83440500  0.18651500  0.85852000  1
  C  C82  1  0.78676900  0.15099700  0.89205900  1
  C  C83  1  0.71248700  0.11202400  0.88124600  1
  C  C84  1  0.68512700  0.10895700  0.83694500  1
  C  C85  1  0.73174800  0.14547000  0.80346800  1
  C  C86  1  0.80591300  0.18465300  0.81424500  1
  C  C87  1  0.20256100  0.86382100  0.32851600  1
  C  C88  1  0.25783000  0.83490800  0.29655800  1
  C  C89  1  0.23891800  0.76484000  0.27166700  1
  C  C90  1  0.16389000  0.72457800  0.27775200  1
  C  C91  1  0.10817500  0.75376300  0.30923700  1
  C  C92  1  0.12766300  0.82293400  0.33477700  1
  C  C93  1  0.85739500  0.13768100  0.64714600  1
  C  C94  1  0.92280200  0.13175000  0.61720300  1
  C  C95  1  0.98808200  0.18750300  0.61969200  1
  C  C96  1  0.98814000  0.24918900  0.65213100  1
  C  C97  1  0.92287200  0.25517600  0.68207600  1
  C  C98  1  0.85761100  0.19943600  0.67960900  1
  C  C99  1  0.77434600  0.16607000  0.34141100  1
  C  C100  1  0.71636400  0.21512800  0.32028400  1
  C  C101  1  0.74032100  0.28941800  0.30184000  1
  C  C102  1  0.82215300  0.31540500  0.30484900  1
  C  C103  1  0.87989700  0.26746200  0.32672400  1
  C  C104  1  0.85601600  0.19322900  0.34524000  1
  C  C105  1  0.20440900  0.85605400  0.68758500  1
  C  C106  1  0.18170400  0.78939700  0.66061600  1
  C  C107  1  0.15951500  0.71540900  0.68002200  1
  C  C108  1  0.16050000  0.70744300  0.72643600  1
  C  C109  1  0.18436900  0.77331700  0.75347200  1
  C  C110  1  0.20682600  0.84725800  0.73412700  1
  C  C111  1  0.12468300  0.27211000  0.08048100  1
  C  C112  1  0.20642800  0.27790000  0.09500000  1
  C  C113  1  0.27044800  0.27037900  0.06437700  1
  C  C114  1  0.25302000  0.25573400  0.01925500  1
  C  C115  1  0.17154100  0.24818500  0.00478800  1
  C  C116  1  0.10743500  0.25608400  0.03532400  1
  C  C117  1  0.85702700  0.62682700  0.87661300  1
  C  C118  1  0.77474100  0.65058800  0.87801400  1
  C  C119  1  0.71191000  0.59266400  0.87278200  1
  C  C120  1  0.73107600  0.51099400  0.86544700  1
  C  C121  1  0.81311800  0.48727500  0.86315600  1
  C  C122  1  0.87603100  0.54503300  0.86861600  1
  C  C123  1  0.33495700  0.85877200  0.39260200  1
  C  C124  1  0.29896500  0.78983300  0.41179000  1
  C  C125  1  0.34404900  0.71838700  0.41597100  1
  C  C126  1  0.42521300  0.71569700  0.40109500  1
  C  C127  1  0.46132300  0.78444600  0.38196700  1
  C  C128  1  0.41624400  0.85585200  0.37763700  1
  C  C129  1  0.73541600  0.14176900  0.57706900  1
  C  C130  1  0.71806100  0.22284400  0.58776500  1
  C  C131  1  0.72426900  0.28277200  0.55511900  1
  C  C132  1  0.74810600  0.26188700  0.51176800  1
  C  C133  1  0.76568400  0.18103600  0.50104000  1
  C  C134  1  0.75913100  0.12098500  0.53359300  1
  O  O1  1  0.57517500  0.08359800  0.55874000  1
  O  O2  1  0.39732400  0.93776000  0.46682600  1
  O  O3  1  0.57417700  0.94208000  0.46531000  1
  O  O4  1  0.39840800  0.07903300  0.56003300  1
  O  O5  1  0.56922800  0.08399700  0.46262800  1
  O  O6  1  0.40360400  0.93728400  0.56284600  1
  O  O7  1  0.57527000  0.94161000  0.56146800  1
  O  O8  1  0.39745200  0.07938200  0.46395100  1
  O  O9  1  0.06283100  0.60304600  0.05773500  1
  O  O10  1  0.91571700  0.41741100  0.96660200  1
  O  O11  1  0.91785100  0.42156800  0.06009600  1
  O  O12  1  0.06084400  0.59893200  0.96437500  1
  O  O13  1  0.06123200  0.42795200  0.06047400  1
  O  O14  1  0.91743800  0.59254500  0.96394700  1
  O  O15  1  0.91947500  0.59628700  0.06007300  1
  O  O16  1  0.05922400  0.42411500  0.96424800  1
