# generated using pymatgen
data_Cu2H27C47N5O11
_symmetry_space_group_name_H-M   'P 1'
_cell_length_a   19.18537600
_cell_length_b   18.69895500
_cell_length_c   12.12453400
_cell_angle_alpha   90.00000000
_cell_angle_beta   127.83250300
_cell_angle_gamma   90.00000000
_symmetry_Int_Tables_number   1
_chemical_formula_structural   Cu2H27C47N5O11
_chemical_formula_sum   'Cu4 H54 C94 N10 O22'
_cell_volume   3435.37215882
_cell_formula_units_Z   2
loop_
 _symmetry_equiv_pos_site_id
 _symmetry_equiv_pos_as_xyz
  1  'x, y, z'
loop_
 _atom_site_type_symbol
 _atom_site_label
 _atom_site_symmetry_multiplicity
 _atom_site_fract_x
 _atom_site_fract_y
 _atom_site_fract_z
 _atom_site_occupancy
  Cu  Cu1  1  0.52394500  0.00235200  0.41562200  1
  Cu  Cu2  1  0.02451800  0.50247100  0.41635200  1
  Cu  Cu3  1  0.47059000  0.00222600  0.57387200  1
  Cu  Cu4  1  0.97125300  0.50177600  0.57479000  1
  H  H1  1  0.22876400  0.87665500  0.29921100  1
  H  H2  1  0.26634000  0.16216600  0.35958100  1
  H  H3  1  0.72873500  0.37560900  0.29965800  1
  H  H4  1  0.76837500  0.66276500  0.36353100  1
  H  H5  1  0.53622500  0.24377400  0.89947500  1
  H  H6  1  0.55974900  0.79233200  0.96777300  1
  H  H7  1  0.03756000  0.74073200  0.90400400  1
  H  H8  1  0.05840400  0.28894300  0.96339200  1
  H  H9  1  0.60630600  0.30506600  0.11286300  1
  H  H10  1  0.64519300  0.73818700  0.19026000  1
  H  H11  1  0.10702900  0.80454900  0.11485500  1
  H  H12  1  0.14310000  0.23632900  0.18470200  1
  H  H13  1  0.37507400  0.82819400  0.15348800  1
  H  H14  1  0.36774900  0.16773600  0.13284500  1
  H  H15  1  0.87432600  0.32988700  0.15139000  1
  H  H16  1  0.86824100  0.66909400  0.13523100  1
  H  H17  1  0.39362600  0.75265600  0.05120900  1
  H  H18  1  0.37556600  0.23175900  0.00237600  1
  H  H19  1  0.89341800  0.25255000  0.05159600  1
  H  H20  1  0.87664300  0.73400100  0.00690600  1
  H  H21  1  0.39773900  0.68765500  0.88892300  1
  H  H22  1  0.35269400  0.26814100  0.79647700  1
  H  H23  1  0.89773400  0.18810000  0.88877400  1
  H  H24  1  0.85360500  0.76853100  0.80056600  1
  H  H25  1  0.53905400  0.18578800  0.72778100  1
  H  H26  1  0.53783900  0.82656100  0.76101300  1
  H  H27  1  0.04064300  0.68139100  0.73320100  1
  H  H28  1  0.03691900  0.32460000  0.75776300  1
  H  H29  1  0.69848300  0.99288400  0.46964300  1
  H  H30  1  0.19913000  0.48915800  0.46939300  1
  H  H31  1  0.71217700  0.99081000  0.09686000  1
  H  H32  1  0.21227300  0.48351200  0.09927000  1
  H  H33  1  0.74686300  0.99010500  0.32377900  1
  H  H34  1  0.24679500  0.48359500  0.32374200  1
  H  H35  1  0.43586500  0.00398000  0.11901000  1
  H  H36  1  0.93639700  0.50830900  0.12010400  1
  H  H37  1  0.34714800  0.98290300  0.91013700  1
  H  H38  1  0.84737000  0.48786200  0.91121400  1
  H  H39  1  0.24765500  0.99952900  0.67065900  1
  H  H40  1  0.74828100  0.50522800  0.67219900  1
  H  H41  1  0.61182100  0.99527600  0.85586200  1
  H  H42  1  0.11358400  0.48898400  0.85943400  1
  H  H43  1  0.16161300  0.09051300  0.36699200  1
  H  H44  1  0.23979200  0.12958900  0.52315000  1
  H  H45  1  0.66059300  0.58707300  0.36101200  1
  H  H46  1  0.73597700  0.62624700  0.51829100  1
  H  H47  1  0.89342900  0.07602700  0.73013000  1
  H  H48  1  0.86930400  0.04915300  0.83648300  1
  H  H49  1  0.61228800  0.84653300  0.37689000  1
  H  H50  1  0.59610400  0.78477200  0.46193600  1
  H  H51  1  0.39210400  0.57176300  0.73108200  1
  H  H52  1  0.36838600  0.54760700  0.83923200  1
  H  H53  1  0.11152900  0.34755200  0.37491600  1
  H  H54  1  0.09581100  0.28454900  0.45869000  1
  C  C1  1  0.60402700  0.89746000  0.64042700  1
  C  C2  1  0.61641700  0.09702900  0.65630100  1
  C  C3  1  0.10338300  0.39654300  0.63915400  1
  C  C4  1  0.11728500  0.59609100  0.65868700  1
  C  C5  1  0.38880200  0.10411200  0.34573200  1
  C  C6  1  0.37803500  0.90902400  0.33221400  1
  C  C7  1  0.88995000  0.60476100  0.34754200  1
  C  C8  1  0.87758300  0.41022600  0.33046600  1
  C  C9  1  0.66586500  0.30862100  0.12192700  1
  C  C10  1  0.69532300  0.72517700  0.17881800  1
  C  C11  1  0.16649600  0.80771900  0.12386600  1
  C  C12  1  0.19405700  0.22378200  0.17493100  1
  C  C13  1  0.30912600  0.85726400  0.23510400  1
  C  C14  1  0.32408000  0.15957500  0.25469800  1
  C  C15  1  0.80855700  0.35849200  0.23319200  1
  C  C16  1  0.82493300  0.66045500  0.25723700  1
  C  C17  1  0.76538000  0.15123700  0.76897000  1
  C  C18  1  0.72840400  0.81713600  0.70723300  1
  C  C19  1  0.26563100  0.65018300  0.77042800  1
  C  C20  1  0.22776300  0.31660400  0.70440500  1
  C  C21  1  0.33681300  0.68856200  0.87640100  1
  C  C22  1  0.30230900  0.28015500  0.80783400  1
  C  C23  1  0.83671000  0.18921200  0.87589700  1
  C  C24  1  0.80309100  0.78116900  0.81136100  1
  C  C25  1  0.33293800  0.72738600  0.96811900  1
  C  C26  1  0.31356300  0.25712900  0.92481800  1
  C  C27  1  0.83266300  0.22791400  0.96753900  1
  C  C28  1  0.81438600  0.75886800  0.92873700  1
  C  C29  1  0.75429200  0.23346100  0.95016700  1
  C  C30  1  0.74703200  0.76629500  0.93992500  1
  C  C31  1  0.25488700  0.73217900  0.95200700  1
  C  C32  1  0.24632700  0.26462700  0.93641100  1
  C  C33  1  0.68064200  0.19503300  0.84123000  1
  C  C34  1  0.67213900  0.80565400  0.83766800  1
  C  C35  1  0.18151100  0.69321200  0.84420400  1
  C  C36  1  0.17148800  0.30405000  0.83443000  1
  C  C37  1  0.24902100  0.77418000  0.04281200  1
  C  C38  1  0.25267900  0.23411300  0.04848000  1
  C  C39  1  0.74815800  0.27580200  0.04022700  1
  C  C40  1  0.75329800  0.73562800  0.05170600  1
  C  C41  1  0.67138000  0.27410900  0.02690200  1
  C  C42  1  0.68836200  0.74992000  0.06544200  1
  C  C43  1  0.17235300  0.77232100  0.02994500  1
  C  C44  1  0.18755200  0.24819800  0.06187800  1
  C  C45  1  0.59808100  0.24016200  0.91546300  1
  C  C46  1  0.61352600  0.78588900  0.96232100  1
  C  C47  1  0.09918100  0.73769000  0.91927100  1
  C  C48  1  0.11235700  0.28327500  0.95811400  1
  C  C49  1  0.60125800  0.20439300  0.81986100  1
  C  C50  1  0.60306100  0.80916800  0.84597600  1
  C  C51  1  0.10239700  0.70145300  0.82411000  1
  C  C52  1  0.10226000  0.30712600  0.84241400  1
  C  C53  1  0.31648100  0.81940600  0.14432800  1
  C  C54  1  0.32000700  0.18714600  0.14471500  1
  C  C55  1  0.81551000  0.32109500  0.14170900  1
  C  C56  1  0.82054600  0.68837100  0.14722600  1
  C  C57  1  0.23542800  0.84870300  0.22836800  1
  C  C58  1  0.26317900  0.18107000  0.27289600  1
  C  C59  1  0.73505600  0.34905200  0.22731100  1
  C  C60  1  0.76448500  0.68204600  0.27627300  1
  C  C61  1  0.68688700  0.15020400  0.75338500  1
  C  C62  1  0.66643100  0.83748100  0.72657500  1
  C  C63  1  0.18745300  0.64903900  0.75563600  1
  C  C64  1  0.16583200  0.33643000  0.72392600  1
  C  C65  1  0.67721500  0.99260300  0.27461800  1
  C  C66  1  0.17729000  0.48893900  0.27509800  1
  C  C67  1  0.34403800  0.00889600  0.63683600  1
  C  C68  1  0.84446300  0.50998000  0.63732100  1
  C  C69  1  0.31683600  0.99878800  0.71707700  1
  C  C70  1  0.81744800  0.50285300  0.71855700  1
  C  C71  1  0.37530500  0.99055000  0.85707900  1
  C  C72  1  0.87593800  0.49458700  0.85864700  1
  C  C73  1  0.46442400  0.99448300  0.92191300  1
  C  C74  1  0.96505800  0.49602500  0.92300600  1
  C  C75  1  0.49189800  0.99698900  0.83804700  1
  C  C76  1  0.99236000  0.49641500  0.83875400  1
  C  C77  1  0.52650100  0.99497300  0.06885700  1
  C  C78  1  0.02699500  0.49594700  0.06983900  1
  C  C79  1  0.61537400  0.99345900  0.13090900  1
  C  C80  1  0.11560900  0.49125100  0.13189200  1
  C  C81  1  0.64257000  0.99208800  0.04951900  1
  C  C82  1  0.14274100  0.48761400  0.05105000  1
  C  C83  1  0.58246900  0.99458600  0.90677600  1
  C  C84  1  0.08307300  0.49081100  0.90833600  1
  C  C85  1  0.50290900  0.99972800  0.15729900  1
  C  C86  1  0.00337500  0.50210600  0.15805300  1
  C  C87  1  0.65051700  0.99519200  0.35702600  1
  C  C88  1  0.15072000  0.49321600  0.35725200  1
  C  C89  1  0.27215300  0.03274600  0.49364600  1
  C  C90  1  0.77236700  0.53104600  0.49214200  1
  C  C91  1  0.77810400  0.11268000  0.67723800  1
  C  C92  1  0.71776200  0.82962900  0.57787500  1
  C  C93  1  0.27819800  0.61110100  0.67909200  1
  C  C94  1  0.21720000  0.32967000  0.57532800  1
  N  N1  1  0.56442300  0.00106400  0.29731200  1
  N  N2  1  0.06499800  0.50251200  0.29805900  1
  N  N3  1  0.43164700  0.00251100  0.69423200  1
  N  N4  1  0.93188400  0.50165100  0.69452300  1
  N  N5  1  0.20804200  0.08139000  0.47421100  1
  N  N6  1  0.70565500  0.57794500  0.46826900  1
  N  N7  1  0.84297600  0.05756500  0.73246700  1
  N  N8  1  0.64101800  0.80397200  0.44731100  1
  N  N9  1  0.34165400  0.55484000  0.73467300  1
  N  N10  1  0.14049200  0.30455700  0.44423900  1
  O  O1  1  0.60488300  0.92684300  0.54307500  1
  O  O2  1  0.61225300  0.07068800  0.55211900  1
  O  O3  1  0.10459700  0.42689900  0.54286900  1
  O  O4  1  0.10892900  0.57440100  0.54826300  1
  O  O5  1  0.55379100  0.92333100  0.66984500  1
  O  O6  1  0.56334700  0.07401100  0.68234300  1
  O  O7  1  0.05347100  0.42199400  0.66957100  1
  O  O8  1  0.06833500  0.56920300  0.69003700  1
  O  O9  1  0.43970400  0.07989600  0.31653800  1
  O  O10  1  0.43225200  0.92979900  0.30732700  1
  O  O11  1  0.94073000  0.58091200  0.31781100  1
  O  O12  1  0.92828300  0.43452900  0.30080700  1
  O  O13  1  0.39051700  0.07824500  0.44803900  1
  O  O14  1  0.38173600  0.93424200  0.43669900  1
  O  O15  1  0.89215400  0.57831100  0.44996800  1
  O  O16  1  0.88548400  0.43094300  0.44102000  1
  O  O17  1  0.25767700  0.00426300  0.39144200  1
  O  O18  1  0.76078300  0.50224200  0.39234100  1
  O  O19  1  0.74024800  0.13295700  0.55742900  1
  O  O20  1  0.77958800  0.85286400  0.58440300  1
  O  O21  1  0.24126100  0.63149000  0.55957000  1
  O  O22  1  0.27894300  0.35351700  0.58233200  1
