# Generated by REPEAT Assigner based on pymatgen
data_DB0-m3_o24_o146_f0_fsc.sym.26
_audit_creation_date              2022-05-24
_audit_creation_method            REPEAT_Assigner
_cell_length_a                    15.387507
_cell_length_b                    11.800652
_cell_length_c                    9.168980
_cell_angle_alpha                 90.168373
_cell_angle_beta                  90.010835
_cell_angle_gamma                 90.000000
_cell_volume                      1664.920036
_symmetry_space_group_name_H-M    P1
_symmetry_Int_Tables_number       1
loop_
    _symmetry_equiv_pos_site_id
    _symmetry_equiv_pos_as_xyz
    1  x,y,z
loop_
    _atom_site_type_symbol
    _atom_site_label
    _atom_site_fract_x
    _atom_site_fract_y
    _atom_site_fract_z
    _atom_type_partial_charge
    C   C1    0.300047  0.729505  0.009904  -0.246732
    C   C2    0.699953  0.270495  0.990096  -0.246745
    C   C3    0.077314  0.940305  0.008130  0.154561
    C   C4    0.922686  0.059695  0.991870  0.154545
    C   C5    0.172828  0.802850  0.127432  -0.252753
    C   C6    0.827172  0.197150  0.872568  -0.252803
    C   C7    0.283849  0.800036  0.892617  -0.035925
    C   C8    0.716151  0.199964  0.107383  -0.035967
    H   H1    0.325999  0.798811  0.798360  0.108372
    H   H2    0.674000  0.201190  0.201640  0.108399
    C   C9    0.243772  0.732021  0.128759  0.321513
    C   C10   0.756228  0.267979  0.871241  0.321539
    C   C11   0.157272  0.873419  0.011085  0.329588
    C   C12   0.842728  0.126581  0.988915  0.329657
    C   C13   0.213154  0.872176  0.893488  -0.172045
    C   C14   0.786846  0.127823  0.106512  -0.172034
    C   C15   0.306566  0.260847  0.983894  -0.257621
    C   C16   0.693434  0.739152  0.016106  -0.257503
    C   C17   0.078903  0.056474  0.988228  0.156271
    C   C18   0.921097  0.943526  0.011772  0.156293
    C   C19   0.176912  0.191204  0.867609  -0.258603
    C   C20   0.823088  0.808796  0.132391  -0.258594
    C   C21   0.291296  0.185915  0.098340  0.139330
    C   C22   0.708704  0.814085  0.901660  0.139283
    C   C23   0.248308  0.261656  0.867283  0.299491
    C   C24   0.751692  0.738343  0.132717  0.299367
    C   C25   0.160809  0.119926  0.982946  0.298221
    C   C26   0.839191  0.880074  0.017054  0.298216
    C   C27   0.218370  0.117583  0.098102  -0.167679
    C   C28   0.781630  0.882417  0.901898  -0.167695
    C   C29   0.998554  0.884580  0.019823  -0.449461
    C   C30   0.001446  0.115420  0.980177  -0.449251
    O   O1    0.592206  0.612861  0.131928  -0.568930
    O   O2    0.407794  0.387139  0.868072  -0.568819
    O   O3    0.589602  0.626803  0.882300  -0.609973
    O   O4    0.410398  0.373197  0.117700  -0.610071
    C   C31   0.620486  0.657474  0.009999  0.711925
    C   C32   0.379514  0.342526  0.990001  0.711928
    O   O5    0.596867  0.391607  0.873868  -0.646684
    O   O6    0.403133  0.608393  0.126132  -0.646625
    O   O7    0.593537  0.377605  0.123575  -0.625767
    O   O8    0.406463  0.622394  0.876425  -0.625788
    C   C33   0.626047  0.349400  0.996092  0.756110
    C   C34   0.373953  0.650600  0.003908  0.756047
    Zn  Zn1   0.501423  0.504987  0.838781  0.926437
    Zn  Zn2   0.498577  0.495013  0.161219  0.926496
    C   C35   0.440923  0.566081  0.546497  0.059111
    C   C36   0.559077  0.433919  0.453503  0.059041
    C   C37   0.428996  0.461727  0.455835  0.193209
    C   C38   0.571004  0.538272  0.544165  0.193309
    H   H3    0.389120  0.623568  0.586534  0.099502
    H   H4    0.610880  0.376432  0.413466  0.099517
    N   N1    0.498476  0.489850  0.353963  0.045450
    N   N2    0.501524  0.510150  0.646037  0.045433
    C   C39   0.511150  0.594373  0.438070  -0.125852
    C   C40   0.488850  0.405627  0.561930  -0.125749
    H   H5    0.521238  0.677225  0.383949  0.095012
    H   H6    0.478762  0.322775  0.616051  0.094995
    Br  Br1   0.097138  0.804472  0.291858  0.074189
    Br  Br2   0.902862  0.195527  0.708142  0.074180
    Br  Br3   0.318086  0.401834  0.393202  0.204189
    Br  Br4   0.681914  0.598166  0.606798  0.204171
    Br  Br5   0.254482  0.635077  0.294652  -0.244506
    Br  Br6   0.745518  0.364923  0.705348  -0.244524
    Br  Br7   0.188786  0.961396  0.725488  -0.037164
    Br  Br8   0.811214  0.038604  0.274512  -0.037219
    Br  Br9   0.099873  0.193704  0.705001  0.068595
    Br  Br10  0.900127  0.806295  0.294999  0.068581
    Br  Br11  0.368319  0.171177  0.260892  -0.118479
    Br  Br12  0.631681  0.828822  0.739108  -0.118557
    Br  Br13  0.256407  0.363983  0.706426  -0.236866
    Br  Br14  0.743593  0.636016  0.293574  -0.236746
    Br  Br15  0.193583  0.029601  0.266853  -0.043268
    Br  Br16  0.806417  0.970399  0.733147  -0.043221
    Br  Br17  0.996635  0.722899  0.026581  0.057155
    Br  Br18  0.003365  0.277100  0.973419  0.056993
