# generated using pymatgen
data_Fe2H22C50O21
_symmetry_space_group_name_H-M   'P 1'
_cell_length_a   15.75400500
_cell_length_b   9.41250800
_cell_length_c   24.35042800
_cell_angle_alpha   84.72028100
_cell_angle_beta   84.03698600
_cell_angle_gamma   104.72429300
_symmetry_Int_Tables_number   1
_chemical_formula_structural   Fe2H22C50O21
_chemical_formula_sum   'Fe2 H22 C50 O21'
_cell_volume   3446.90036692
_cell_formula_units_Z   1
loop_
 _symmetry_equiv_pos_site_id
 _symmetry_equiv_pos_as_xyz
  1  'x, y, z'
loop_
 _atom_site_type_symbol
 _atom_site_label
 _atom_site_symmetry_multiplicity
 _atom_site_fract_x
 _atom_site_fract_y
 _atom_site_fract_z
 _atom_site_occupancy
  Fe  Fe1  1  0.49043900  0.99869700  0.12240000  1
  Fe  Fe2  1  0.50628400  0.00740000  0.87970700  1
  H  H1  1  0.18958300  0.02005800  0.91562900  1
  H  H2  1  0.07923300  0.07025400  0.89191300  1
  H  H3  1  0.94152000  0.08340400  0.86648100  1
  H  H4  1  0.05152500  0.91730900  0.13586700  1
  H  H5  1  0.91575900  0.92986100  0.10973500  1
  H  H6  1  0.78987200  0.06058400  0.88745600  1
  H  H7  1  0.80798200  0.99066700  0.08677400  1
  H  H8  1  0.50453200  0.54983700  0.85876500  1
  H  H9  1  0.50322000  0.75337200  0.69567200  1
  H  H10  1  0.61452300  0.66460200  0.44624300  1
  H  H11  1  0.36342100  0.32022100  0.38300700  1
  H  H12  1  0.36824600  0.33321400  0.48272200  1
  H  H13  1  0.47222400  0.24627000  0.30707800  1
  H  H14  1  0.48984400  0.45449400  0.14210300  1
  H  H15  1  0.49041700  0.70690400  0.27911500  1
  H  H16  1  0.62641800  0.46898200  0.62899100  1
  H  H17  1  0.36929600  0.55024600  0.54490500  1
  H  H18  1  0.44480700  0.22550700  0.71489300  1
  H  H19  1  0.66593500  0.61353100  0.33372000  1
  H  H20  1  0.61949100  0.34265000  0.52464000  1
  H  H21  1  0.22244900  0.04638400  0.13722300  1
  H  H22  1  0.31953200  0.47198100  0.66397400  1
  C  C1  1  0.27748000  0.98533100  0.03354000  1
  C  C2  1  0.27148600  0.00428800  0.97705700  1
  C  C3  1  0.19117800  0.00922800  0.95962900  1
  C  C4  1  0.20219000  0.96201300  0.07116600  1
  C  C5  1  0.12233300  0.96755600  0.05335700  1
  C  C6  1  0.11600100  0.99690800  0.99744100  1
  C  C7  1  0.03498600  0.01199100  0.98101000  1
  C  C8  1  0.02606800  0.04805100  0.92549200  1
  C  C9  1  0.94638200  0.05814400  0.91006500  1
  C  C10  1  0.04888000  0.94489900  0.09214500  1
  C  C11  1  0.96951800  0.95483700  0.07643100  1
  C  C12  1  0.96127400  0.99299600  0.02107200  1
  C  C13  1  0.88049800  0.00918800  0.00488000  1
  C  C14  1  0.87386800  0.03806700  0.94911500  1
  C  C15  1  0.79441500  0.04532400  0.93148900  1
  C  C16  1  0.80587500  0.99903000  0.04280800  1
  C  C17  1  0.72553700  0.00371100  0.02546900  1
  C  C18  1  0.71918400  0.02177200  0.96901800  1
  C  C19  1  0.64987100  0.99223800  0.06821600  1
  C  C20  1  0.48904000  0.72427700  0.16791600  1
  C  C21  1  0.36286700  0.00598900  0.05485500  1
  C  C22  1  0.47864300  0.19669400  0.20005200  1
  C  C23  1  0.50812400  0.80613300  0.80163600  1
  C  C24  1  0.63389200  0.00091500  0.94760700  1
  C  C25  1  0.50929000  0.28244900  0.83278800  1
  C  C26  1  0.34759200  0.01653900  0.93435200  1
  C  C27  1  0.50700700  0.41075900  0.79400400  1
  C  C28  1  0.50752900  0.40389100  0.73723300  1
  C  C29  1  0.50447200  0.52649800  0.70238900  1
  C  C30  1  0.50372200  0.65724100  0.72345400  1
  C  C31  1  0.50360500  0.66522000  0.77965900  1
  C  C32  1  0.50378000  0.54163700  0.81486100  1
  C  C33  1  0.55919900  0.58883600  0.43250800  1
  C  C34  1  0.55522000  0.58484100  0.37635600  1
  C  C35  1  0.48512900  0.48768700  0.35834000  1
  C  C36  1  0.41851300  0.39644300  0.39677800  1
  C  C37  1  0.42101000  0.40429300  0.45289200  1
  C  C38  1  0.49200500  0.49895600  0.47091700  1
  C  C39  1  0.47647600  0.34397700  0.27875000  1
  C  C40  1  0.48180000  0.33680800  0.22221700  1
  C  C41  1  0.48832200  0.46219200  0.18616200  1
  C  C42  1  0.48870900  0.59473400  0.20638200  1
  C  C43  1  0.48828500  0.60331400  0.26276700  1
  C  C44  1  0.48286500  0.47820200  0.29888300  1
  C  C45  1  0.56779600  0.48295000  0.55421000  1
  C  C46  1  0.56995800  0.48717500  0.61053800  1
  C  C47  1  0.50131600  0.51810000  0.64298800  1
  C  C48  1  0.42958300  0.54181500  0.61913400  1
  C  C49  1  0.42595800  0.53247200  0.56322100  1
  C  C50  1  0.49547000  0.50493100  0.53045900  1
  O  O1  1  0.58019200  0.03470800  0.05592700  1
  O  O2  1  0.49125600  0.71481800  0.11437500  1
  O  O3  1  0.65399200  0.94680600  0.12019300  1
  O  O4  1  0.48658800  0.85016900  0.18633900  1
  O  O5  1  0.37209800  0.91745400  0.09748500  1
  O  O6  1  0.42698400  0.12521300  0.03602900  1
  O  O7  1  0.51851500  0.19794200  0.14975900  1
  O  O8  1  0.43223400  0.07170300  0.22903700  1
  O  O9  1  0.47488600  0.80684500  0.85339900  1
  O  O10  1  0.55123500  0.93028700  0.77085000  1
  O  O11  1  0.62589000  0.08567800  0.90352700  1
  O  O12  1  0.56871700  0.88436200  0.96778500  1
  O  O13  1  0.34305400  0.05997000  0.88223700  1
  O  O14  1  0.51074900  0.15500400  0.81532400  1
  O  O15  1  0.41792000  0.97604000  0.94673200  1
  O  O16  1  0.50759500  0.29379700  0.88618200  1
  O  O17  1  0.50810600  0.27561300  0.71526600  1
  O  O18  1  0.62273700  0.67297800  0.33876500  1
  O  O19  1  0.63604700  0.45196200  0.52246900  1
  O  O20  1  0.20831200  0.94449800  0.12685100  1
  O  O21  1  0.36083300  0.57061200  0.65113900  1
