# Generated by REPEAT Assigner based on pymatgen
data_DB0-m3_o160_o43_f0_fsc.sym.23
_audit_creation_date              2022-05-24
_audit_creation_method            REPEAT_Assigner
_cell_length_a                    13.398796
_cell_length_b                    8.545532
_cell_length_c                    15.097026
_cell_angle_alpha                 90.000000
_cell_angle_beta                  90.987168
_cell_angle_gamma                 90.000000
_cell_volume                      1728.350419
_symmetry_space_group_name_H-M    P1
_symmetry_Int_Tables_number       1
loop_
    _symmetry_equiv_pos_site_id
    _symmetry_equiv_pos_as_xyz
    1  x,y,z
loop_
    _atom_site_type_symbol
    _atom_site_label
    _atom_site_fract_x
    _atom_site_fract_y
    _atom_site_fract_z
    _atom_type_partial_charge
    H   H1   0.043519  0.986062  0.561677  0.141859
    C   C1   0.016244  0.125247  0.674733  -0.099884
    C   C2   0.017426  0.846464  0.674786  -0.118234
    C   C3   0.002313  0.126196  0.765028  -0.157966
    C   C4   0.003734  0.845475  0.765067  -0.086864
    H   H2   0.997275  0.237072  0.798936  0.110589
    H   H3   0.994878  0.735095  0.798925  0.077820
    C   C5   0.001083  0.985744  0.811272  0.078322
    C   C6   0.029738  0.985954  0.631562  -0.131962
    C   C7   0.049977  0.870691  0.955508  -0.116000
    C   C8   0.948903  0.100326  0.953979  -0.135665
    H   H4   0.092406  0.782373  0.921489  0.092230
    H   H5   0.906080  0.188460  0.918934  0.112851
    C   C9   0.051293  0.871656  0.046857  -0.152988
    C   C10  0.950200  0.101274  0.045336  -0.139683
    H   H6   0.094164  0.783568  0.081895  0.116778
    H   H7   0.907790  0.189605  0.079365  0.103726
    C   C11  0.001453  0.987105  0.092395  0.054869
    C   C12  0.998733  0.984857  0.908448  0.041896
    C   C13  0.996631  0.126509  0.235796  -0.220660
    C   C14  0.998124  0.845665  0.235763  -0.229136
    H   H8   0.005266  0.236890  0.201892  0.114519
    H   H9   0.002929  0.734846  0.201765  0.112701
    C   C15  0.983371  0.125603  0.326142  -0.064954
    C   C16  0.984628  0.846371  0.326111  -0.053630
    C   C17  0.971489  0.985844  0.369418  -0.094586
    H   H10  0.958011  0.985662  0.439355  0.094142
    C   C18  0.999222  0.986210  0.189580  0.158517
    O   O1   0.093488  0.655156  0.584115  -0.745027
    O   O2   0.093011  0.316454  0.584438  -0.791794
    O   O3   0.923098  0.649997  0.600043  -0.619476
    O   O4   0.922417  0.321897  0.599567  -0.688422
    C   C19  0.011752  0.704602  0.621173  0.844513
    C   C20  0.010969  0.267195  0.621136  0.928270
    O   O5   0.907263  0.654973  0.416256  -0.758277
    O   O6   0.906638  0.317727  0.416311  -0.711226
    O   O7   0.078702  0.648460  0.400479  -0.692782
    O   O8   0.078183  0.322366  0.400670  -0.662406
    C   C21  0.989769  0.703869  0.379490  0.858195
    C   C22  0.989010  0.267921  0.379633  0.812730
    Zn  Zn1  0.889204  0.486516  0.508028  1.002075
    Zn  Zn2  0.111034  0.485454  0.493030  1.054490
    C   C23  0.297282  0.473120  0.413970  -0.390457
    N   N1   0.241659  0.484936  0.487170  0.207895
    C   C24  0.286157  0.494829  0.567482  -0.150348
    C   C25  0.388029  0.497553  0.576946  -0.070326
    C   C26  0.447384  0.488293  0.503114  -0.322143
    C   C27  0.400711  0.472512  0.421096  0.757784
    C   C28  0.603695  0.518462  0.587135  -0.261101
    C   C29  0.551353  0.491262  0.508811  0.373101
    C   C30  0.605179  0.469792  0.433156  -0.145980
    C   C31  0.555936  0.452062  0.352663  0.297559
    N   N2   0.455508  0.455128  0.347850  -0.657473
    C   C32  0.706533  0.516880  0.589662  -0.023550
    N   N3   0.758449  0.487370  0.515167  0.082660
    C   C33  0.708397  0.467266  0.437519  -0.086454
    H   H11  0.241715  0.499296  0.626397  0.165244
    H   H12  0.749305  0.452134  0.377135  0.157961
    H   H13  0.597990  0.436728  0.292818  0.080662
    H   H14  0.416944  0.502591  0.643660  0.122368
    H   H15  0.567671  0.543278  0.648501  0.161092
    H   H16  0.261284  0.462091  0.349641  0.198090
    C   C34  0.755345  0.554755  0.674855  0.571537
    O   O9   0.817421  0.467401  0.707702  -0.424909
    C   C35  0.722317  0.694152  0.726059  -0.468416
    H   H17  0.668445  0.764233  0.686057  0.092583
    H   H18  0.788109  0.767952  0.742632  0.156958
    H   H19  0.686832  0.655259  0.788124  0.136191
