data_DB0-m3_o11_o23_f0_pcu.sym.144_repeat
_audit_creation_date              2024-02-23
_audit_creation_method            'Materials Studio'
_symmetry_space_group_name_H-M    'P1'
_symmetry_Int_Tables_number       1
_symmetry_cell_setting            triclinic
loop_
_symmetry_equiv_pos_as_xyz
  x,y,z
_cell_length_a                    15.9543
_cell_length_b                    11.1375
_cell_length_c                    9.9276
_cell_angle_alpha                 89.9974
_cell_angle_beta                  89.9751
_cell_angle_gamma                 89.9982
loop_
_atom_site_label
_atom_site_type_symbol
_atom_site_fract_x
_atom_site_fract_y
_atom_site_fract_z
_atom_site_U_iso_or_equiv
_atom_site_adp_type
_atom_site_occupancy
O1     O     0.50047   0.32103   0.61840   0.00000  Uiso   1.00
O2     O     0.50272   0.31981   0.38606   0.00000  Uiso   1.00
C1     C     0.50141   0.26439   0.50258   0.00000  Uiso   1.00
O3     O     0.37522   0.49944   0.61002   0.00000  Uiso   1.00
O4     O     0.37743   0.49824   0.37748   0.00000  Uiso   1.00
C2     C     0.33740   0.49881   0.49289   0.00000  Uiso   1.00
Zn1    Zn    0.49952   0.50049   0.65148   0.00000  Uiso   1.00
Zn2    Zn    0.50279   0.49795   0.34466   0.00000  Uiso   1.00
O5     O     0.50031   0.67849   0.61034   0.00000  Uiso   1.00
O6     O     0.50252   0.67772   0.37737   0.00000  Uiso   1.00
O7     O     0.62492   0.49964   0.61884   0.00000  Uiso   1.00
O8     O     0.62714   0.49864   0.38580   0.00000  Uiso   1.00
C3     C     0.50116   0.73399   0.49401   0.00000  Uiso   1.00
C4     C     0.66490   0.49919   0.50318   0.00000  Uiso   1.00
C5     C     0.04983   0.43439   0.62119   0.00000  Uiso   1.00
C6     C     0.04645   0.43846   0.36963   0.00000  Uiso   1.00
C7     C     0.95242   0.42447   0.38278   0.00000  Uiso   1.00
H1     H     0.92779   0.35454   0.64653   0.00000  Uiso   1.00
H2     H     0.06807   0.33838   0.61880   0.00000  Uiso   1.00
H3     H     0.06060   0.49524   0.28070   0.00000  Uiso   1.00
H4     H     0.93665   0.32865   0.39959   0.00000  Uiso   1.00
H5     H     0.92178   0.45556   0.28878   0.00000  Uiso   1.00
C8     C     0.75484   0.49907   0.50456   0.00000  Uiso   1.00
C9     C     0.08025   0.49904   0.49546   0.00000  Uiso   1.00
C10    C     0.95537   0.44484   0.63058   0.00000  Uiso   1.00
C11    C     0.92205   0.49878   0.50114   0.00000  Uiso   1.00
C12    C     0.95388   0.62659   0.48715   0.00000  Uiso   1.00
C13    C     0.04858   0.62731   0.49902   0.00000  Uiso   1.00
C14    C     0.83036   0.49894   0.50377   0.00000  Uiso   1.00
C15    C     0.17193   0.49884   0.49250   0.00000  Uiso   1.00
C16    C     0.24746   0.49877   0.49156   0.00000  Uiso   1.00
H6     H     0.06710   0.67016   0.59536   0.00000  Uiso   1.00
H7     H     0.07582   0.67918   0.41428   0.00000  Uiso   1.00
H8     H     0.92655   0.68366   0.56748   0.00000  Uiso   1.00
H9     H     0.07838   0.47617   0.71160   0.00000  Uiso   1.00
H10    H     0.93842   0.50340   0.71675   0.00000  Uiso   1.00
H11    H     0.93526   0.66298   0.38756   0.00000  Uiso   1.00
C17    C     0.50242   0.93413   0.38886   0.00000  Uiso   1.00
C18    C     0.50114   0.86541   0.49931   0.00000  Uiso   1.00
H12    H     0.50347   0.89158   0.29072   0.00000  Uiso   1.00
H13    H     0.49996   0.90361   0.59908   0.00000  Uiso   1.00
C19    C     0.50236   0.06724   0.39226   0.00000  Uiso   1.00
C20    C     0.50158   0.13280   0.50567   0.00000  Uiso   1.00
H14    H     0.50300   0.11270   0.29580   0.00000  Uiso   1.00
H15    H     0.50100   0.09234   0.60437   0.00000  Uiso   1.00
C21    C     0.54360   0.57511   0.92486   0.00000  Uiso   1.00
N1     N     0.49733   0.50528   0.85296   0.00000  Uiso   1.00
H16    H     0.44886   0.46283   0.90159   0.00000  Uiso   1.00
C22    C     0.53436   0.58257   0.07299   0.00000  Uiso   1.00
N2     N     0.50631   0.49446   0.14327   0.00000  Uiso   1.00
H17    H     0.55603   0.66296   0.12358   0.00000  Uiso   1.00
H18    H     0.49695   0.41453   0.09399   0.00000  Uiso   1.00
C23    C     0.60309   0.65369   0.86104   0.00000  Uiso   1.00
N3     N     0.65106   0.71712   0.81021   0.00000  Uiso   1.00
C24    C     0.08554   0.32074   0.35048   0.00000  Uiso   1.00
N4     N     0.11645   0.22774   0.33528   0.00000  Uiso   1.00
