# generated using pymatgen
data_ZnH11C21N(O2F)2
_symmetry_space_group_name_H-M   'P 1'
_cell_length_a   13.37499400
_cell_length_b   8.54603000
_cell_length_c   19.36497400
_cell_angle_alpha   90.00000000
_cell_angle_beta   91.03576200
_cell_angle_gamma   90.00000000
_symmetry_Int_Tables_number   1
_chemical_formula_structural   ZnH11C21N(O2F)2
_chemical_formula_sum   'Zn2 H22 C42 N2 O8 F4'
_cell_volume   2213.11489303
_cell_formula_units_Z   2
loop_
 _symmetry_equiv_pos_site_id
 _symmetry_equiv_pos_as_xyz
  1  'x, y, z'
loop_
 _atom_site_type_symbol
 _atom_site_label
 _atom_site_symmetry_multiplicity
 _atom_site_fract_x
 _atom_site_fract_y
 _atom_site_fract_z
 _atom_site_occupancy
  Zn  Zn1  1  0.88878300  0.49172400  0.50275400  1
  Zn  Zn2  1  0.11125300  0.49169900  0.49724700  1
  H  H1  1  0.03993100  0.99155000  0.54873100  1
  H  H2  1  0.95993700  0.99160100  0.45127400  1
  H  H3  1  0.97566100  0.24245500  0.73057600  1
  H  H4  1  0.00826000  0.73954600  0.26773600  1
  H  H5  1  0.02433700  0.24248900  0.26946600  1
  H  H6  1  0.99190300  0.73955700  0.73235600  1
  H  H7  1  0.06529900  0.76401100  0.04467800  1
  H  H8  1  0.05782600  0.22341800  0.95301700  1
  H  H9  1  0.93430200  0.76431200  0.95534300  1
  H  H10  1  0.94273500  0.22375500  0.04696700  1
  H  H11  1  0.07889600  0.76567400  0.16955200  1
  H  H12  1  0.05568900  0.22160200  0.82846400  1
  H  H13  1  0.92066400  0.76602800  0.83043700  1
  H  H14  1  0.94476600  0.22193800  0.17149900  1
  H  H15  1  0.25050500  0.45859000  0.60350300  1
  H  H16  1  0.74961400  0.45977800  0.39641900  1
  H  H17  1  0.47117400  0.31360300  0.62680300  1
  H  H18  1  0.59562000  0.47139100  0.33049700  1
  H  H19  1  0.52896400  0.31515200  0.37270200  1
  H  H20  1  0.40444000  0.46926300  0.66937900  1
  H  H21  1  0.25076500  0.52499900  0.38832100  1
  H  H22  1  0.74922600  0.52389800  0.61173400  1
  C  C1  1  0.00821000  0.13085000  0.63601300  1
  C  C2  1  0.99088700  0.85242700  0.36378300  1
  C  C3  1  0.99179100  0.13087100  0.36400300  1
  C  C4  1  0.00915700  0.85238300  0.63625100  1
  C  C5  1  0.98929300  0.13167000  0.70573800  1
  C  C6  1  0.00558600  0.85125100  0.29346300  1
  C  C7  1  0.01070700  0.13168600  0.29428200  1
  C  C8  1  0.99449600  0.85122200  0.70658000  1
  C  C9  1  0.98912100  0.99192800  0.74260100  1
  C  C10  1  0.01089100  0.99194100  0.25741900  1
  C  C11  1  0.02332500  0.99163000  0.60278900  1
  C  C12  1  0.97663600  0.99166800  0.39723100  1
  C  C13  1  0.03944600  0.86493700  0.07286100  1
  C  C14  1  0.02716900  0.12321200  0.92596900  1
  C  C15  1  0.96034900  0.86509300  0.92714700  1
  C  C16  1  0.97315100  0.12337900  0.07402100  1
  C  C17  1  0.04623700  0.86604600  0.14407700  1
  C  C18  1  0.02439400  0.12236100  0.85483100  1
  C  C19  1  0.95353900  0.86621800  0.85593000  1
  C  C20  1  0.97588100  0.12252100  0.14516100  1
  C  C21  1  0.01304100  0.99418900  0.18115800  1
  C  C22  1  0.98697700  0.99419600  0.81885200  1
  C  C23  1  0.00325800  0.99378700  0.03769100  1
  C  C24  1  0.99680500  0.99378300  0.96230700  1
  C  C25  1  0.00587500  0.71016400  0.59443600  1
  C  C26  1  0.99450300  0.27304800  0.40575000  1
  C  C27  1  0.99416200  0.71019800  0.40558400  1
  C  C28  1  0.00552100  0.27301400  0.59424400  1
  C  C29  1  0.29210200  0.50866000  0.43623200  1
  C  C30  1  0.70791600  0.50802500  0.56378200  1
  C  C31  1  0.29172400  0.47270500  0.55644700  1
  C  C32  1  0.70835200  0.47343300  0.44348500  1
  C  C33  1  0.39465400  0.47020000  0.55879200  1
  C  C34  1  0.60541800  0.47099400  0.44109800  1
  C  C35  1  0.44602300  0.48871900  0.49886100  1
  C  C36  1  0.55403200  0.48875100  0.50106600  1
  C  C37  1  0.39548100  0.50812300  0.43706700  1
  C  C38  1  0.60454900  0.50744400  0.56291300  1
  C  C39  1  0.45105500  0.43941600  0.62447300  1
  C  C40  1  0.54902300  0.44095800  0.37533800  1
  C  C41  1  0.54639800  0.53584900  0.62676500  1
  C  C42  1  0.45360800  0.53726000  0.37325700  1
  N  N1  1  0.24226200  0.49171600  0.49568900  1
  N  N2  1  0.75777500  0.49173700  0.50430200  1
  O  O1  1  0.08967900  0.66085100  0.56798800  1
  O  O2  1  0.91053400  0.32197300  0.43227800  1
  O  O3  1  0.91035700  0.66090100  0.43202500  1
  O  O4  1  0.08950000  0.32191800  0.56771300  1
  O  O5  1  0.91780400  0.65543800  0.57540900  1
  O  O6  1  0.08236900  0.32858300  0.42436600  1
  O  O7  1  0.08222500  0.65543800  0.42460500  1
  O  O8  1  0.91766100  0.32858200  0.57562500  1
  F  F1  1  0.60255800  0.49469600  0.68457100  1
  F  F2  1  0.47808600  0.69414100  0.36990300  1
  F  F3  1  0.39745200  0.49656900  0.31538200  1
  F  F4  1  0.52181700  0.69265200  0.63041100  1
