# generated using pymatgen
data_ZnH9C25N2(O2F)3
_symmetry_space_group_name_H-M   'P 1'
_cell_length_a   23.30395400
_cell_length_b   8.54500700
_cell_length_c   11.31683300
_cell_angle_alpha   90.00000000
_cell_angle_beta   92.21655800
_cell_angle_gamma   90.00000000
_symmetry_Int_Tables_number   1
_chemical_formula_structural   ZnH9C25N2(O2F)3
_chemical_formula_sum   'Zn2 H18 C50 N4 O12 F6'
_cell_volume   2251.86253408
_cell_formula_units_Z   2
loop_
 _symmetry_equiv_pos_site_id
 _symmetry_equiv_pos_as_xyz
  1  'x, y, z'
loop_
 _atom_site_type_symbol
 _atom_site_label
 _atom_site_symmetry_multiplicity
 _atom_site_fract_x
 _atom_site_fract_y
 _atom_site_fract_z
 _atom_site_occupancy
  Zn  Zn1  1  0.49169600  0.50011100  0.86854300  1
  Zn  Zn2  1  0.50821000  0.50009800  0.13109900  1
  H  H1  1  0.30520900  0.24988500  0.99297700  1
  H  H2  1  0.69453700  0.74971100  0.00386300  1
  H  H3  1  0.69269700  0.25113700  0.01335200  1
  H  H4  1  0.30699200  0.74876000  0.98963900  1
  H  H5  1  0.13786200  0.24083900  0.76757000  1
  H  H6  1  0.86165500  0.73325000  0.21587200  1
  H  H7  1  0.85241200  0.27438100  0.79558800  1
  H  H8  1  0.14839600  0.75104300  0.22245900  1
  H  H9  1  0.95271200  0.27888000  0.79090300  1
  H  H10  1  0.04822400  0.75171000  0.23089000  1
  H  H11  1  0.03731200  0.24427400  0.76589800  1
  H  H12  1  0.96205500  0.72405000  0.21395300  1
  H  H13  1  0.46153200  0.00294500  0.05130000  1
  H  H14  1  0.53839500  0.99743400  0.94807000  1
  H  H15  1  0.42839000  0.50173400  0.30115200  1
  H  H16  1  0.57151000  0.49848000  0.69849700  1
  H  H17  1  0.60625800  0.49834300  0.28381000  1
  H  H18  1  0.39364700  0.50190000  0.71584800  1
  C  C1  1  0.20715400  0.08344300  0.91438000  1
  C  C2  1  0.79283400  0.91080700  0.08237600  1
  C  C3  1  0.78972200  0.09727800  0.93129500  1
  C  C4  1  0.21059800  0.90823100  0.07296700  1
  C  C5  1  0.32915400  0.85931000  0.00039100  1
  C  C6  1  0.67071900  0.14060100  0.00083100  1
  C  C7  1  0.67177600  0.85983500  0.99910700  1
  C  C8  1  0.32814500  0.14009700  0.99937200  1
  C  C9  1  0.38792100  0.86150400  0.01865700  1
  C  C10  1  0.61200800  0.13864000  0.98126700  1
  C  C11  1  0.61285400  0.85947000  0.98102300  1
  C  C12  1  0.38703500  0.14074700  0.01832700  1
  C  C13  1  0.29882900  0.99872400  0.99637900  1
  C  C14  1  0.70115600  0.00119300  0.00353700  1
  C  C15  1  0.11931100  0.99645500  0.99574000  1
  C  C16  1  0.88085100  0.00315100  0.00496000  1
  C  C17  1  0.14774200  0.08458700  0.91467500  1
  C  C18  1  0.85223400  0.90849900  0.08147600  1
  C  C19  1  0.84900000  0.09896200  0.93018700  1
  C  C20  1  0.15134100  0.90737800  0.07501500  1
  C  C21  1  0.11670200  0.17270700  0.83351400  1
  C  C22  1  0.88303700  0.81061300  0.15618800  1
  C  C23  1  0.87638800  0.19593500  0.85383400  1
  C  C24  1  0.12419000  0.82008000  0.15793300  1
  C  C25  1  0.41583400  0.00177600  0.03429100  1
  C  C26  1  0.58408500  0.99848800  0.96520500  1
  C  C27  1  0.96831600  0.09645000  0.92318700  1
  C  C28  1  0.03193900  0.90660200  0.07998400  1
  C  C29  1  0.02822900  0.09092300  0.91825200  1
  C  C30  1  0.97184300  0.90488200  0.08002700  1
  C  C31  1  0.94054000  0.00157600  0.00279000  1
  C  C32  1  0.05962400  0.99788200  0.99792800  1
  C  C33  1  0.93517200  0.19588500  0.85071600  1
  C  C34  1  0.06539900  0.81984600  0.16098600  1
  C  C35  1  0.05782600  0.17554300  0.83461400  1
  C  C36  1  0.94192000  0.80774900  0.15521600  1
  C  C37  1  0.42263500  0.71986200  0.01267000  1
  C  C38  1  0.57728100  0.28032900  0.98705300  1
  C  C39  1  0.57854800  0.71677400  0.98674600  1
  C  C40  1  0.42134000  0.28346900  0.01281200  1
  C  C41  1  0.42422300  0.50159400  0.53878500  1
  C  C42  1  0.57567600  0.49862900  0.46086600  1
  C  C43  1  0.43052000  0.50120300  0.66096600  1
  C  C44  1  0.56938300  0.49903200  0.33868500  1
  C  C45  1  0.53070200  0.49926900  0.65063900  1
  C  C46  1  0.46920000  0.50095500  0.34900400  1
  C  C47  1  0.52681000  0.49953200  0.52806800  1
  C  C48  1  0.47309000  0.50071200  0.47157800  1
  C  C49  1  0.36510200  0.50330300  0.48147200  1
  C  C50  1  0.63479300  0.49680100  0.51819400  1
  N  N1  1  0.23760200  0.99597600  0.99336200  1
  N  N2  1  0.76246200  0.00395700  0.00703800  1
  N  N3  1  0.51683300  0.50010600  0.28562000  1
  N  N4  1  0.48307200  0.50010500  0.71402400  1
  O  O1  1  0.23467200  0.16707900  0.83351000  1
  O  O2  1  0.76532400  0.82250200  0.16045500  1
  O  O3  1  0.75900300  0.18485800  0.85316300  1
  O  O4  1  0.24163800  0.82553300  0.15365700  1
  O  O5  1  0.44887900  0.67042500  0.11022600  1
  O  O6  1  0.55101900  0.32973500  0.88944800  1
  O  O7  1  0.55194100  0.66812800  0.88928300  1
  O  O8  1  0.44797100  0.33204300  0.11032500  1
  O  O9  1  0.43336400  0.66443100  0.90761200  1
  O  O10  1  0.56656200  0.33584300  0.09205200  1
  O  O11  1  0.56741400  0.66201800  0.09185600  1
  O  O12  1  0.43247100  0.33826800  0.90776000  1
  F  F1  1  0.32369000  0.50439400  0.56562400  1
  F  F2  1  0.35727100  0.37118000  0.41216300  1
  F  F3  1  0.35830300  0.63603100  0.41245100  1
  F  F4  1  0.67621100  0.49565600  0.43405600  1
  F  F5  1  0.64155100  0.36403600  0.58719000  1
  F  F6  1  0.64265300  0.62888600  0.58753400  1
