# Generated by REPEAT Assigner based on pymatgen
data_DB0-m2_o18_o24_f0_pcu.sym.31
_audit_creation_date              2022-05-24
_audit_creation_method            REPEAT_Assigner
_cell_length_a                    10.735350
_cell_length_b                    14.508139
_cell_length_c                    15.155132
_cell_angle_alpha                 65.021251
_cell_angle_beta                  103.230180
_cell_angle_gamma                 103.818309
_cell_volume                      2055.617336
_symmetry_space_group_name_H-M    P1
_symmetry_Int_Tables_number       1
loop_
    _symmetry_equiv_pos_site_id
    _symmetry_equiv_pos_as_xyz
    1  x,y,z
loop_
    _atom_site_type_symbol
    _atom_site_label
    _atom_site_fract_x
    _atom_site_fract_y
    _atom_site_fract_z
    _atom_type_partial_charge
    O   O1   0.454666  0.025456  0.338320  -0.657882
    O   O2   0.554829  0.982530  0.657905  -0.617087
    O   O3   0.517965  0.165442  0.381523  -0.625200
    O   O4   0.491471  0.842356  0.614691  -0.610808
    C   C1   0.479890  0.124994  0.315192  0.779341
    C   C2   0.529833  0.882881  0.681114  0.749380
    O   O5   0.294988  0.931508  0.474596  -0.567060
    O   O6   0.714374  0.076195  0.521482  -0.655745
    O   O7   0.350526  0.067135  0.524743  -0.645608
    O   O8   0.658923  0.940747  0.471521  -0.690406
    C   C3   0.264270  0.997993  0.500129  0.522406
    C   C4   0.745356  0.009460  0.496343  0.678503
    Cu  Cu1  0.473881  0.923602  0.471211  0.952417
    Cu  Cu2  0.536088  0.084862  0.524067  0.969939
    C   C5   0.007262  0.951723  0.445985  -0.331261
    C   C6   0.002565  0.055850  0.549945  -0.135238
    C   C7   0.951022  0.049928  0.407682  -0.040795
    C   C8   0.058711  0.957847  0.588098  -0.264095
    C   C9   0.884583  0.008702  0.497698  0.115899
    C   C10  0.124934  0.998831  0.498275  0.357099
    C   C11  0.939947  0.909106  0.536598  0.043909
    C   C12  0.069976  0.098603  0.459308  -0.147123
    H   H1   0.887352  0.829793  0.570197  0.073914
    H   H2   0.125405  0.177239  0.427405  0.106531
    C   C13  0.462380  0.193275  0.210723  -0.152037
    C   C14  0.546273  0.814528  0.785901  -0.164206
    C   C15  0.395170  0.214927  0.043458  -0.337527
    C   C16  0.607371  0.792803  0.953713  -0.310587
    C   C17  0.411102  0.151562  0.141180  0.037177
    C   C18  0.591954  0.856398  0.855853  0.064599
    C   C19  0.496079  0.299067  0.181535  -0.073989
    C   C20  0.515565  0.708532  0.814938  -0.050019
    C   C21  0.479937  0.364950  0.082101  0.020830
    C   C22  0.528554  0.642631  0.914469  -0.028089
    C   C23  0.429280  0.320315  0.014190  0.263811
    C   C24  0.575810  0.687252  0.982751  0.263399
    C   C25  0.512323  0.473254  0.048659  0.018494
    C   C26  0.495195  0.534299  0.947721  0.088722
    C   C27  0.443797  0.485393  0.882542  -0.160301
    C   C28  0.560686  0.522116  0.114036  -0.131704
    C   C29  0.411155  0.380447  0.915789  -0.252046
    C   C30  0.591209  0.627019  0.081261  -0.261894
    H   H3   0.370696  0.345245  0.863187  0.133454
    H   H4   0.627399  0.661539  0.134775  0.130573
    H   H5   0.480570  0.680723  0.757282  0.080723
    H   H6   0.535241  0.326621  0.239065  0.080026
    H   H7   0.615659  0.938853  0.835450  0.061955
    H   H8   0.382086  0.069374  0.161796  0.069148
    H   H9   0.355071  0.181191  0.989478  0.152045
    H   H10  0.643614  0.826118  0.008341  0.133100
    H   H11  0.425434  0.525006  0.804138  0.141473
    H   H12  0.575891  0.482744  0.192525  0.128658
    N   N1   0.583717  0.207495  0.560721  -0.115641
    N   N2   0.425884  0.800102  0.435848  -0.134549
    C   C31  0.705382  0.286488  0.667419  -0.425694
    C   C32  0.293938  0.715917  0.336313  -0.500592
    C   C33  0.671655  0.203988  0.640399  0.114516
    C   C34  0.331863  0.800860  0.359823  0.200324
    C   C35  0.522918  0.289915  0.509418  -0.042391
    C   C36  0.487080  0.718603  0.487054  -0.030955
    C   C37  0.549779  0.374526  0.536749  -0.105742
    C   C38  0.453380  0.630196  0.464950  -0.112442
    C   C39  0.647506  0.373556  0.614721  0.461650
    C   C40  0.351986  0.629027  0.389747  0.486389
    C   C41  0.482164  0.459281  0.488204  0.062209
    C   C42  0.518369  0.544038  0.515274  0.061143
    C   C43  0.619879  0.541015  0.591829  -0.023883
    C   C44  0.376002  0.459634  0.415357  -0.000522
    C   C45  0.683481  0.457588  0.641266  -0.495429
    C   C46  0.311260  0.542250  0.367299  -0.491751
    H   H13  0.562630  0.726662  0.544698  0.139472
    H   H14  0.454621  0.287782  0.445875  0.139799
    H   H15  0.285285  0.867883  0.317026  0.124468
    H   H16  0.717501  0.136877  0.683337  0.153431
    H   H17  0.775497  0.279073  0.732280  0.168732
    H   H18  0.219589  0.720767  0.274196  0.173134
    H   H19  0.657021  0.603958  0.614800  0.124148
    H   H20  0.333977  0.394238  0.396466  0.125402
    C   C47  0.890762  0.105244  0.304693  0.643147
    O   O9   0.940311  0.192296  0.256781  -0.517273
    O   O10  0.783656  0.058509  0.264012  -0.298437
    C   C48  0.733791  0.105216  0.166862  0.033604
    H   H21  0.645782  0.054828  0.148135  0.056194
    H   H22  0.806492  0.118112  0.119554  0.046919
    H   H23  0.707705  0.180056  0.153267  0.058708
    C   C49  0.118792  0.901489  0.690714  0.791059
    O   O11  0.133124  0.936994  0.752987  -0.533476
    O   O12  0.152714  0.809185  0.715134  -0.377292
    C   C50  0.196543  0.751132  0.810820  0.125887
    H   H24  0.221155  0.679578  0.814392  0.033152
    H   H25  0.119700  0.730611  0.856972  0.027078
    H   H26  0.284077  0.795223  0.838475  0.021603
    C   C51  0.007809  0.889961  0.388384  0.708047
    O   O13  0.045896  0.807090  0.429999  -0.522493
    O   O14  0.962166  0.923997  0.291439  -0.266008
    C   C52  0.953081  0.865450  0.238328  -0.112992
    H   H27  0.910778  0.907026  0.161117  0.106141
    H   H28  0.889164  0.790775  0.270129  0.087932
    H   H29  0.050761  0.851908  0.239068  0.086861
    C   C53  0.002211  0.116250  0.608669  0.831952
    O   O15  0.944152  0.077689  0.679544  -0.541758
    O   O16  0.068503  0.212930  0.583931  -0.425629
    C   C54  0.075414  0.269482  0.638503  0.092127
    H   H30  0.137111  0.345152  0.606334  0.051428
    H   H31  0.119325  0.228406  0.715383  0.045739
    H   H32  0.977062  0.282208  0.637241  0.037647
    C   C55  0.792646  0.464571  0.718623  0.892172
    O   O17  0.782146  0.500242  0.775972  -0.551109
    O   O18  0.908208  0.441377  0.720823  -0.369766
    C   C56  0.010860  0.450556  0.791194  -0.011343
    H   H33  0.095784  0.427036  0.780921  0.070864
    H   H34  0.984570  0.399939  0.865270  0.054616
    H   H35  0.036363  0.531694  0.784603  0.081965
    C   C57  0.195672  0.531591  0.295785  0.889446
    O   O19  0.197344  0.489775  0.241205  -0.557627
    O   O20  0.084281  0.557913  0.297550  -0.337099
    C   C58  0.973429  0.543595  0.235363  -0.054493
    H   H36  0.895351  0.572614  0.248129  0.082270
    H   H37  0.943057  0.460364  0.250288  0.091107
    H   H38  0.990587  0.586985  0.157806  0.067085
