# Generated by REPEAT Assigner based on pymatgen
data_DB0-m2_o7_o11_f0_pcu.sym.70
_audit_creation_date              2022-05-24
_audit_creation_method            REPEAT_Assigner
_cell_length_a                    17.753462
_cell_length_b                    16.228748
_cell_length_c                    11.047440
_cell_angle_alpha                 90.000000
_cell_angle_beta                  90.001547
_cell_angle_gamma                 90.000000
_cell_volume                      3182.949359
_symmetry_space_group_name_H-M    P1
_symmetry_Int_Tables_number       1
loop_
    _symmetry_equiv_pos_site_id
    _symmetry_equiv_pos_as_xyz
    1  x,y,z
loop_
    _atom_site_type_symbol
    _atom_site_label
    _atom_site_fract_x
    _atom_site_fract_y
    _atom_site_fract_z
    _atom_type_partial_charge
    O   O1   0.390298  0.564439  0.507851  -0.615085
    O   O2   0.609270  0.565447  0.499426  -0.602095
    O   O3   0.390469  0.423146  0.496690  -0.504264
    O   O4   0.609285  0.424392  0.491574  -0.524874
    C   C1   0.354723  0.493488  0.505185  0.622893
    C   C2   0.645085  0.494796  0.493051  0.645806
    O   O5   0.499788  0.565452  0.323472  -0.662195
    O   O6   0.504866  0.564667  0.675020  -0.654355
    O   O7   0.495760  0.423955  0.322347  -0.627094
    O   O8   0.498803  0.423080  0.674351  -0.627368
    C   C3   0.497260  0.494942  0.266154  0.772329
    C   C4   0.502307  0.493924  0.731289  0.776534
    Cu  Cu1  0.498531  0.576633  0.498005  0.991464
    Cu  Cu2  0.500465  0.411992  0.498844  0.824452
    C   C5   0.496557  0.428425  0.931681  -0.033213
    C   C6   0.496752  0.428825  0.065935  -0.033037
    C   C7   0.503540  0.496343  0.863818  -0.311081
    C   C8   0.496563  0.497507  0.133399  -0.309392
    H   H1   0.490766  0.369113  0.887587  0.113543
    H   H2   0.496093  0.369463  0.110726  0.116132
    H   H3   0.510557  0.556558  0.903507  0.169579
    H   H4   0.496052  0.558145  0.093324  0.168444
    C   C9   0.843415  0.570835  0.524603  -0.259700
    C   C10  0.156747  0.568721  0.472092  -0.250559
    H   H5   0.871513  0.627268  0.550797  0.161162
    H   H6   0.128600  0.624763  0.445005  0.159814
    C   C11  0.765671  0.567294  0.522743  -0.119913
    C   C12  0.234368  0.565501  0.474373  -0.130867
    H   H7   0.734496  0.621734  0.548359  0.139703
    H   H8   0.265569  0.619668  0.447455  0.141398
    C   C13  0.728370  0.495361  0.490607  -0.033085
    C   C14  0.271545  0.493879  0.507769  0.000816
    C   C15  0.771307  0.426807  0.457089  0.059437
    C   C16  0.228853  0.425521  0.542696  0.030697
    C   C17  0.848848  0.431377  0.459567  -0.184060
    C   C18  0.151223  0.429834  0.540088  -0.161428
    C   C19  0.885114  0.502493  0.493916  0.404753
    C   C20  0.115039  0.500724  0.504059  0.381904
    C   C21  0.966103  0.504306  0.497684  -0.205024
    C   C22  0.034077  0.503575  0.500754  -0.190091
    C   C23  0.549658  0.825802  0.572163  -0.257978
    C   C24  0.453785  0.826041  0.422295  -0.260607
    H   H9   0.588323  0.858449  0.630544  0.144742
    H   H10  0.416355  0.858945  0.362118  0.147508
    C   C25  0.548146  0.740815  0.572136  0.022168
    C   C26  0.453828  0.741119  0.424046  0.020132
    H   H11  0.585981  0.707210  0.630796  0.131762
    H   H12  0.416362  0.707725  0.364608  0.127430
    N   N1   0.500130  0.699847  0.501158  -0.096619
    C   C27  0.501707  0.868775  0.497297  0.361967
    C   C28  0.500719  0.957201  0.498201  -0.160181
    C   C29  0.499482  0.031445  0.498978  -0.204269
    C   C30  0.544530  0.162676  0.577600  -0.298904
    C   C31  0.452114  0.162719  0.422246  -0.302777
    H   H13  0.580562  0.129776  0.639839  0.132324
    H   H14  0.414863  0.130114  0.361344  0.134346
    C   C32  0.544564  0.247592  0.575763  0.148861
    C   C33  0.453408  0.247729  0.422658  0.129310
    H   H15  0.581027  0.280960  0.636774  0.065369
    H   H16  0.416962  0.281320  0.361723  0.080474
    N   N2   0.500454  0.288790  0.497162  -0.132473
    C   C34  0.498527  0.119856  0.499670  0.446283
    I   I1   0.728631  0.313068  0.392769  -0.032429
    I   I2   0.273285  0.313625  0.611436  -0.032711
    I   I3   0.912102  0.327611  0.407631  0.023933
    I   I4   0.088172  0.326896  0.595861  0.020260
