# generated using pymatgen
data_Cu3H13C42(Cl3O4)3
_symmetry_space_group_name_H-M   'P 1'
_cell_length_a   40.84721500
_cell_length_b   35.27420800
_cell_length_c   21.29416000
_cell_angle_alpha   90.00000000
_cell_angle_beta   60.00304800
_cell_angle_gamma   90.00000000
_symmetry_Int_Tables_number   1
_chemical_formula_structural   Cu3H13C42(Cl3O4)3
_chemical_formula_sum   'Cu12 H52 C168 Cl36 O48'
_cell_volume   26571.99764949
_cell_formula_units_Z   4
loop_
 _symmetry_equiv_pos_site_id
 _symmetry_equiv_pos_as_xyz
  1  'x, y, z'
loop_
 _atom_site_type_symbol
 _atom_site_label
 _atom_site_symmetry_multiplicity
 _atom_site_fract_x
 _atom_site_fract_y
 _atom_site_fract_z
 _atom_site_occupancy
  Cu  Cu1  1  0.00024300  0.46180000  0.99972700  1
  Cu  Cu2  1  0.50024300  0.96180000  0.99972700  1
  Cu  Cu3  1  0.99988500  0.53732300  0.99997300  1
  Cu  Cu4  1  0.49988500  0.03732300  0.99997300  1
  Cu  Cu5  1  0.03667800  0.50114300  0.46557200  1
  Cu  Cu6  1  0.96290600  0.50104100  0.53459200  1
  Cu  Cu7  1  0.53667800  0.00114300  0.46557200  1
  Cu  Cu8  1  0.46290600  0.00104100  0.53459200  1
  Cu  Cu9  1  0.50057800  0.50101400  0.56213000  1
  Cu  Cu10  1  0.49974800  0.50099200  0.43784700  1
  Cu  Cu11  1  0.00057800  0.00101400  0.56213000  1
  Cu  Cu12  1  0.99974800  0.00099200  0.43784700  1
  H  H1  1  0.06189700  0.47727100  0.23065200  1
  H  H2  1  0.93837600  0.47581300  0.76931300  1
  H  H3  1  0.56189700  0.97727100  0.23065200  1
  H  H4  1  0.43837600  0.97581300  0.76931300  1
  H  H5  1  0.05127900  0.54120000  0.16208700  1
  H  H6  1  0.94784900  0.53989700  0.83904700  1
  H  H7  1  0.55127900  0.04120000  0.16208700  1
  H  H8  1  0.44784900  0.03989700  0.83904700  1
  H  H9  1  0.68829200  0.54714600  0.25448400  1
  H  H10  1  0.31206700  0.54732600  0.74534500  1
  H  H11  1  0.18829200  0.04714600  0.25448400  1
  H  H12  1  0.81206700  0.04732600  0.74534500  1
  H  H13  1  0.80942100  0.54893300  0.13707800  1
  H  H14  1  0.19107800  0.55067800  0.85899600  1
  H  H15  1  0.30942100  0.04893300  0.13707800  1
  H  H16  1  0.69107800  0.05067800  0.85899600  1
  H  H17  1  0.88306600  0.44699800  0.16524400  1
  H  H18  1  0.11710700  0.44679100  0.83782000  1
  H  H19  1  0.38306600  0.94699800  0.16524400  1
  H  H20  1  0.61710700  0.94679100  0.83782000  1
  H  H21  1  0.81405400  0.44610300  0.23653300  1
  H  H22  1  0.18610900  0.44547500  0.76677300  1
  H  H23  1  0.31405400  0.94610300  0.23653300  1
  H  H24  1  0.68610900  0.94547500  0.76677300  1
  H  H25  1  0.49860000  0.31241900  0.60143900  1
  H  H26  1  0.50109700  0.31240900  0.39924200  1
  H  H27  1  0.99860000  0.81241900  0.60143900  1
  H  H28  1  0.00109700  0.81240900  0.39924200  1
  H  H29  1  0.49878700  0.38155400  0.60195700  1
  H  H30  1  0.50126300  0.38154200  0.39837500  1
  H  H31  1  0.99878700  0.88155400  0.60195700  1
  H  H32  1  0.00126300  0.88154200  0.39837500  1
  H  H33  1  0.94319000  0.68863700  0.58891300  1
  H  H34  1  0.05615000  0.68868200  0.41186500  1
  H  H35  1  0.44319000  0.18863700  0.58891300  1
  H  H36  1  0.55615000  0.18868200  0.41186500  1
  H  H37  1  0.94280200  0.61950000  0.58943300  1
  H  H38  1  0.05654500  0.61956100  0.41109000  1
  H  H39  1  0.44280200  0.11950000  0.58943300  1
  H  H40  1  0.55654500  0.11956100  0.41109000  1
  H  H41  1  0.45240500  0.68952200  0.48492100  1
  H  H42  1  0.54787200  0.68959400  0.51489800  1
  H  H43  1  0.95240500  0.18952200  0.48492100  1
  H  H44  1  0.04787200  0.18959400  0.51489800  1
  H  H45  1  0.94427200  0.31336000  0.51592700  1
  H  H46  1  0.05579300  0.31351200  0.48391200  1
  H  H47  1  0.44427200  0.81336000  0.51592700  1
  H  H48  1  0.55579300  0.81351200  0.48391200  1
  H  H49  1  0.94381200  0.38250000  0.51600800  1
  H  H50  1  0.05608700  0.38265400  0.48389600  1
  H  H51  1  0.44381200  0.88250000  0.51600800  1
  H  H52  1  0.55608700  0.88265400  0.48389600  1
  C  C1  1  0.92737600  0.49924000  0.06943500  1
  C  C2  1  0.07283900  0.49999500  0.92956300  1
  C  C3  1  0.42737600  0.99924000  0.06943500  1
  C  C4  1  0.57283900  0.99999500  0.92956300  1
  C  C5  1  0.00109400  0.49959900  0.11921700  1
  C  C6  1  0.99948700  0.49942900  0.87998700  1
  C  C7  1  0.50109400  0.99959900  0.11921700  1
  C  C8  1  0.49948700  0.99942900  0.87998700  1
  C  C9  1  0.96858800  0.51226100  0.26016100  1
  C  C10  1  0.03108700  0.51278100  0.73963600  1
  C  C11  1  0.46858800  0.01226100  0.26016100  1
  C  C12  1  0.53108700  0.01278100  0.73963600  1
  C  C13  1  0.99561900  0.53475600  0.27449600  1
  C  C14  1  0.00345100  0.53471500  0.72619300  1
  C  C15  1  0.49561900  0.03475600  0.27449600  1
  C  C16  1  0.50345100  0.03471500  0.72619300  1
  C  C17  1  0.00125900  0.50061000  0.31051300  1
  C  C18  1  0.99841800  0.50049000  0.68956100  1
  C  C19  1  0.50125900  0.00061000  0.31051300  1
  C  C20  1  0.49841800  0.00049000  0.68956100  1
  C  C21  1  0.97425500  0.47807300  0.29648200  1
  C  C22  1  0.02603200  0.47851400  0.70271500  1
  C  C23  1  0.47425500  0.97807300  0.29648200  1
  C  C24  1  0.52603200  0.97851400  0.70271500  1
  C  C25  1  0.00702400  0.46542100  0.22479500  1
  C  C26  1  0.99368500  0.46511200  0.77426100  1
  C  C27  1  0.50702400  0.96542100  0.22479500  1
  C  C28  1  0.49368500  0.96511200  0.77426100  1
  C  C29  1  0.03443300  0.48782800  0.23899300  1
  C  C30  1  0.96565800  0.48695200  0.76094300  1
  C  C31  1  0.53443300  0.98782800  0.23899300  1
  C  C32  1  0.46565800  0.98695200  0.76094300  1
  C  C33  1  0.02873000  0.52241500  0.20215300  1
  C  C34  1  0.97074900  0.52162700  0.79841900  1
  C  C35  1  0.52873000  0.02241500  0.20215300  1
  C  C36  1  0.47074900  0.02162700  0.79841900  1
  C  C37  1  0.00137500  0.49958600  0.18861300  1
  C  C38  1  0.99872400  0.49936200  0.81105800  1
  C  C39  1  0.50137500  0.99958600  0.18861300  1
  C  C40  1  0.49872400  0.99936200  0.81105800  1
  C  C41  1  0.67295400  0.52606200  0.29578900  1
  C  C42  1  0.32739300  0.52620800  0.70410800  1
  C  C43  1  0.17295400  0.02606200  0.29578900  1
  C  C44  1  0.82739300  0.02620800  0.70410800  1
  C  C45  1  0.63399300  0.52689100  0.33452500  1
  C  C46  1  0.36635300  0.52700700  0.66538500  1
  C  C47  1  0.13399300  0.02689100  0.33452500  1
  C  C48  1  0.86635300  0.02700700  0.66538500  1
  C  C49  1  0.61422200  0.50018900  0.38798600  1
  C  C50  1  0.38610600  0.50027000  0.61199100  1
  C  C51  1  0.11422200  0.00018900  0.38798600  1
  C  C52  1  0.88610600  0.00027000  0.61199100  1
  C  C53  1  0.63391100  0.47263400  0.40204600  1
  C  C54  1  0.36640200  0.47270300  0.59799800  1
  C  C55  1  0.13391100  0.97263400  0.40204600  1
  C  C56  1  0.86640200  0.97270300  0.59799800  1
  C  C57  1  0.67289200  0.47191600  0.36283600  1
  C  C58  1  0.32742000  0.47201500  0.63719700  1
  C  C59  1  0.17289200  0.97191600  0.36283600  1
  C  C60  1  0.82742000  0.97201500  0.63719700  1
  C  C61  1  0.69241800  0.49858700  0.30976200  1
  C  C62  1  0.30791200  0.49872700  0.69019400  1
  C  C63  1  0.19241800  0.99858700  0.30976200  1
  C  C64  1  0.80791200  0.99872700  0.69019400  1
  C  C65  1  0.73298500  0.49778500  0.26877400  1
  C  C66  1  0.26734400  0.49799500  0.73111600  1
  C  C67  1  0.23298500  0.99778500  0.26877400  1
  C  C68  1  0.76734400  0.99799500  0.73111600  1
  C  C69  1  0.76703800  0.49750200  0.23389300  1
  C  C70  1  0.23329000  0.49781700  0.76593600  1
  C  C71  1  0.26703800  0.99750200  0.23389300  1
  C  C72  1  0.73329000  0.99781700  0.76593600  1
  C  C73  1  0.82578400  0.52677400  0.14353300  1
  C  C74  1  0.17462900  0.52806000  0.85412700  1
  C  C75  1  0.32578400  0.02677400  0.14353300  1
  C  C76  1  0.67462900  0.02806000  0.85412700  1
  C  C77  1  0.86469900  0.52761800  0.10278600  1
  C  C78  1  0.13571400  0.52918900  0.89479800  1
  C  C79  1  0.36469900  0.02761800  0.10278600  1
  C  C80  1  0.63571400  0.02918900  0.89479800  1
  C  C81  1  0.88583000  0.49900400  0.11057000  1
  C  C82  1  0.11444400  0.49995400  0.88899700  1
  C  C83  1  0.38583000  0.99900400  0.11057000  1
  C  C84  1  0.61444400  0.99995400  0.88899700  1
  C  C85  1  0.86726000  0.46953300  0.15821200  1
  C  C86  1  0.13299000  0.46976200  0.84336000  1
  C  C87  1  0.36726000  0.96953300  0.15821200  1
  C  C88  1  0.63299000  0.96976200  0.84336000  1
  C  C89  1  0.82831000  0.46901400  0.19887800  1
  C  C90  1  0.17193300  0.46899400  0.80282000  1
  C  C91  1  0.32831000  0.96901400  0.19887800  1
  C  C92  1  0.67193300  0.96899400  0.80282000  1
  C  C93  1  0.80757600  0.49775500  0.19179700  1
  C  C94  1  0.19275200  0.49826300  0.80794700  1
  C  C95  1  0.30757600  0.99775500  0.19179700  1
  C  C96  1  0.69275200  0.99826300  0.80794700  1
  C  C97  1  0.99969900  0.57292200  0.50018100  1
  C  C98  1  0.49969900  0.07292200  0.50018100  1
  C  C99  1  0.00079500  0.50108800  0.38049000  1
  C  C100  1  0.99879800  0.50106600  0.61966500  1
  C  C101  1  0.50079500  0.00108800  0.38049000  1
  C  C102  1  0.49879800  0.00106600  0.61966500  1
  C  C103  1  0.99988900  0.42924100  0.49999200  1
  C  C104  1  0.49988900  0.92924100  0.49999200  1
  C  C105  1  0.50018700  0.57385800  0.49993000  1
  C  C106  1  0.00018700  0.07385800  0.49993000  1
  C  C107  1  0.57280800  0.50101500  0.42861400  1
  C  C108  1  0.42751900  0.50107300  0.57136200  1
  C  C109  1  0.07280800  0.00101500  0.42861400  1
  C  C110  1  0.92751900  0.00107300  0.57136200  1
  C  C111  1  0.50011800  0.42814900  0.50006700  1
  C  C112  1  0.00011800  0.92814900  0.50006700  1
  C  C113  1  0.49918200  0.32776900  0.55696200  1
  C  C114  1  0.50059000  0.32776400  0.44364500  1
  C  C115  1  0.99918200  0.82776900  0.55696200  1
  C  C116  1  0.00059000  0.82776400  0.44364500  1
  C  C117  1  0.49927800  0.36684400  0.55699500  1
  C  C118  1  0.50070100  0.36683800  0.44340900  1
  C  C119  1  0.99927800  0.86684400  0.55699500  1
  C  C120  1  0.00070100  0.86683800  0.44340900  1
  C  C121  1  0.50004100  0.38660600  0.50015100  1
  C  C122  1  0.00004100  0.88660600  0.50015100  1
  C  C123  1  0.49983100  0.30824700  0.50035600  1
  C  C124  1  0.99983100  0.80824700  0.50035600  1
  C  C125  1  0.49974300  0.26760500  0.50043200  1
  C  C126  1  0.99974300  0.76760500  0.50043200  1
  C  C127  1  0.99969200  0.73346800  0.50044800  1
  C  C128  1  0.49969200  0.23346800  0.50044800  1
  C  C129  1  0.96801700  0.67329400  0.54995800  1
  C  C130  1  0.03132200  0.67331900  0.45076200  1
  C  C131  1  0.46801700  0.17329400  0.54995800  1
  C  C132  1  0.53132200  0.17331900  0.45076200  1
  C  C133  1  0.96794100  0.63421800  0.54998400  1
  C  C134  1  0.03139900  0.63424800  0.45059300  1
  C  C135  1  0.46794100  0.13421800  0.54998400  1
  C  C136  1  0.53139900  0.13424800  0.45059300  1
  C  C137  1  0.99967200  0.61446700  0.50025300  1
  C  C138  1  0.49967200  0.11446700  0.50025300  1
  C  C139  1  0.99967200  0.69282700  0.50039600  1
  C  C140  1  0.49967200  0.19282700  0.50039600  1
  C  C141  1  0.47350000  0.67417500  0.49118700  1
  C  C142  1  0.52679300  0.67421500  0.50863200  1
  C  C143  1  0.97350000  0.17417500  0.49118700  1
  C  C144  1  0.02679300  0.17421500  0.50863200  1
  C  C145  1  0.47347400  0.63508700  0.49099700  1
  C  C146  1  0.52685400  0.63512600  0.50883300  1
  C  C147  1  0.97347400  0.13508700  0.49099700  1
  C  C148  1  0.02685400  0.13512600  0.50883300  1
  C  C149  1  0.50017400  0.61535200  0.49991700  1
  C  C150  1  0.00017400  0.11535200  0.49991700  1
  C  C151  1  0.50013700  0.69372900  0.49990600  1
  C  C152  1  0.00013700  0.19372900  0.49990600  1
  C  C153  1  0.50011100  0.73440400  0.49990700  1
  C  C154  1  0.00011100  0.23440400  0.49990700  1
  C  C155  1  0.00008100  0.26856100  0.49991100  1
  C  C156  1  0.50008100  0.76856100  0.49991100  1
  C  C157  1  0.96876800  0.32873900  0.50891200  1
  C  C158  1  0.03126000  0.32882500  0.49093900  1
  C  C159  1  0.46876800  0.82873900  0.50891200  1
  C  C160  1  0.53126000  0.82882500  0.49093900  1
  C  C161  1  0.96864600  0.36782900  0.50896900  1
  C  C162  1  0.03128800  0.36791500  0.49091800  1
  C  C163  1  0.46864600  0.86782900  0.50896900  1
  C  C164  1  0.53128800  0.86791500  0.49091800  1
  C  C165  1  0.99994300  0.38766100  0.49995500  1
  C  C166  1  0.49994300  0.88766100  0.49995500  1
  C  C167  1  0.00003700  0.30923700  0.49991900  1
  C  C168  1  0.50003700  0.80923700  0.49991900  1
  Cl  Cl1  1  0.98773700  0.58157700  0.31007900  1
  Cl  Cl2  1  0.01024300  0.58171000  0.69167200  1
  Cl  Cl3  1  0.48773700  0.08157700  0.31007900  1
  Cl  Cl4  1  0.51024300  0.08171000  0.69167200  1
  Cl  Cl5  1  0.69758300  0.43663900  0.37994500  1
  Cl  Cl6  1  0.30270700  0.43673500  0.62015400  1
  Cl  Cl7  1  0.19758300  0.93663900  0.37994500  1
  Cl  Cl8  1  0.80270700  0.93673500  0.62015400  1
  Cl  Cl9  1  0.88557000  0.56405600  0.03860300  1
  Cl  Cl10  1  0.11538500  0.56701400  0.95593700  1
  Cl  Cl11  1  0.38557000  0.06405600  0.03860300  1
  Cl  Cl12  1  0.61538500  0.06701400  0.95593700  1
  Cl  Cl13  1  0.92442500  0.52861600  0.27327900  1
  Cl  Cl14  1  0.07495100  0.53009200  0.72652100  1
  Cl  Cl15  1  0.42442500  0.02861600  0.27327900  1
  Cl  Cl16  1  0.57495100  0.03009200  0.72652100  1
  Cl  Cl17  1  0.43791500  0.61115400  0.48364200  1
  Cl  Cl18  1  0.56242900  0.61124100  0.51621000  1
  Cl  Cl19  1  0.93791500  0.11115400  0.48364200  1
  Cl  Cl20  1  0.06242900  0.11124100  0.51621000  1
  Cl  Cl21  1  0.93791700  0.44799900  0.36039900  1
  Cl  Cl22  1  0.06293100  0.44925400  0.63793000  1
  Cl  Cl23  1  0.43791700  0.94799900  0.36039900  1
  Cl  Cl24  1  0.56293100  0.94925400  0.63793000  1
  Cl  Cl25  1  0.01467100  0.41774600  0.19329500  1
  Cl  Cl26  1  0.98724600  0.41722600  0.80443400  1
  Cl  Cl27  1  0.51467100  0.91774600  0.19329500  1
  Cl  Cl28  1  0.48724600  0.91722600  0.80443400  1
  Cl  Cl29  1  0.61023500  0.56333900  0.31761000  1
  Cl  Cl30  1  0.39013400  0.56346400  0.68221600  1
  Cl  Cl31  1  0.11023500  0.06333900  0.31761000  1
  Cl  Cl32  1  0.89013400  0.06346400  0.68221600  1
  Cl  Cl33  1  0.61015700  0.43674500  0.46596700  1
  Cl  Cl34  1  0.39013800  0.43677300  0.53416400  1
  Cl  Cl35  1  0.11015700  0.93674500  0.46596700  1
  Cl  Cl36  1  0.89013800  0.93677300  0.53416400  1
  O  O1  1  0.94527700  0.46666900  0.05628500  1
  O  O2  1  0.05520000  0.46726000  0.94780500  1
  O  O3  1  0.44527700  0.96666900  0.05628500  1
  O  O4  1  0.55520000  0.96726000  0.94780500  1
  O  O5  1  0.94497500  0.53195500  0.05516900  1
  O  O6  1  0.05484000  0.53240800  0.94945400  1
  O  O7  1  0.44497500  0.03195500  0.05516900  1
  O  O8  1  0.55484000  0.03240800  0.94945400  1
  O  O9  1  0.99973900  0.46688700  0.09148600  1
  O  O10  1  0.99785800  0.46687700  0.91082100  1
  O  O11  1  0.49973900  0.96688700  0.09148600  1
  O  O12  1  0.49785800  0.96687700  0.91082100  1
  O  O13  1  0.99861100  0.53229200  0.09250500  1
  O  O14  1  0.99838400  0.53213000  0.91014000  1
  O  O15  1  0.49861100  0.03229200  0.09250500  1
  O  O16  1  0.49838400  0.03213000  0.91014000  1
  O  O17  1  0.03096600  0.55515400  0.45318400  1
  O  O18  1  0.96847200  0.55506900  0.54712200  1
  O  O19  1  0.53096600  0.05515400  0.45318400  1
  O  O20  1  0.46847200  0.05506900  0.54712200  1
  O  O21  1  0.03169500  0.49041900  0.38075800  1
  O  O22  1  0.96792000  0.49032700  0.61937800  1
  O  O23  1  0.53169500  0.99041900  0.38075800  1
  O  O24  1  0.46792000  0.99032700  0.61937800  1
  O  O25  1  0.96939100  0.51176200  0.43904000  1
  O  O26  1  0.03016200  0.51184800  0.56115200  1
  O  O27  1  0.46939100  0.01176200  0.43904000  1
  O  O28  1  0.53016200  0.01184800  0.56115200  1
  O  O29  1  0.03081300  0.44711100  0.48879500  1
  O  O30  1  0.96891700  0.44702400  0.51122900  1
  O  O31  1  0.53081300  0.94711100  0.48879500  1
  O  O32  1  0.46891700  0.94702400  0.51122900  1
  O  O33  1  0.49924400  0.55612200  0.55490900  1
  O  O34  1  0.50112800  0.55610100  0.44497200  1
  O  O35  1  0.99924400  0.05612200  0.55490900  1
  O  O36  1  0.00112800  0.05610100  0.44497200  1
  O  O37  1  0.55543900  0.49930100  0.49963400  1
  O  O38  1  0.44488500  0.49933000  0.50034500  1
  O  O39  1  0.05543900  0.99930100  0.49963400  1
  O  O40  1  0.94488500  0.99933000  0.50034500  1
  O  O41  1  0.55477600  0.49976000  0.39210500  1
  O  O42  1  0.44554900  0.49982800  0.60787400  1
  O  O43  1  0.05477600  0.99976000  0.39210500  1
  O  O44  1  0.94554900  0.99982800  0.60787400  1
  O  O45  1  0.49869900  0.44591400  0.55555700  1
  O  O46  1  0.50157600  0.44589400  0.44452600  1
  O  O47  1  0.99869900  0.94591400  0.55555700  1
  O  O48  1  0.00157600  0.94589400  0.44452600  1
