# generated using pymatgen
data_CuH14C21NO6
_symmetry_space_group_name_H-M   'P 1'
_cell_length_a   10.93001700
_cell_length_b   13.00045800
_cell_length_c   11.45676700
_cell_angle_alpha   99.79276600
_cell_angle_beta   94.36698300
_cell_angle_gamma   89.99597400
_symmetry_Int_Tables_number   1
_chemical_formula_structural   CuH14C21NO6
_chemical_formula_sum   'Cu2 H28 C42 N2 O12'
_cell_volume   1599.43677661
_cell_formula_units_Z   2
loop_
 _symmetry_equiv_pos_site_id
 _symmetry_equiv_pos_as_xyz
  1  'x, y, z'
loop_
 _atom_site_type_symbol
 _atom_site_label
 _atom_site_symmetry_multiplicity
 _atom_site_fract_x
 _atom_site_fract_y
 _atom_site_fract_z
 _atom_site_occupancy
  Cu  Cu1  1  0.50934900  0.50860100  0.60827200  1
  Cu  Cu2  1  0.49186700  0.49020300  0.37740900  1
  H  H1  1  0.06555700  0.47873300  0.08831500  1
  H  H2  1  0.93152300  0.59188300  0.89450300  1
  H  H3  1  0.22010700  0.44916200  0.70613300  1
  H  H4  1  0.77084500  0.40169900  0.27431800  1
  H  H5  1  0.13365000  0.50890600  0.89160800  1
  H  H6  1  0.85913400  0.40519300  0.08961200  1
  H  H7  1  0.81247400  0.60008400  0.71103000  1
  H  H8  1  0.18719600  0.53466300  0.27028100  1
  H  H9  1  0.64058100  0.82584700  0.66924000  1
  H  H10  1  0.39189800  0.17287300  0.30139300  1
  H  H11  1  0.36023700  0.98930300  0.28285400  1
  H  H12  1  0.67258800  0.00741900  0.68668000  1
  H  H13  1  0.41057800  0.38961700  0.78112900  1
  H  H14  1  0.59131600  0.60949100  0.20673200  1
  H  H15  1  0.63132800  0.66036200  0.81536800  1
  H  H16  1  0.36879700  0.34028600  0.17175000  1
  H  H17  1  0.35549800  0.32473800  0.95488300  1
  H  H18  1  0.64415400  0.67603400  0.03143400  1
  H  H19  1  0.08506300  0.73528000  0.31945500  1
  H  H20  1  0.18249700  0.73259800  0.19937700  1
  H  H21  1  0.03478200  0.91988800  0.31074900  1
  H  H22  1  0.99617400  0.83561100  0.16984600  1
  H  H23  1  0.13260500  0.91756000  0.18967200  1
  H  H24  1  0.68535600  0.31642600  0.86896900  1
  H  H25  1  0.79275900  0.21034900  0.84095400  1
  H  H26  1  0.56692000  0.20651700  0.98354500  1
  H  H27  1  0.72300700  0.23377900  0.04648300  1
  H  H28  1  0.68219900  0.10713300  0.95958800  1
  C  C1  1  0.50664700  0.30240500  0.47590700  1
  C  C2  1  0.50014600  0.69714200  0.51002800  1
  C  C3  1  0.26664500  0.49648800  0.49120100  1
  C  C4  1  0.73403100  0.50123600  0.49358100  1
  C  C5  1  0.13303600  0.48721000  0.70300900  1
  C  C6  1  0.86167700  0.43488100  0.27859000  1
  C  C7  1  0.08236300  0.51727200  0.80941000  1
  C  C8  1  0.91235900  0.43328300  0.17231200  1
  C  C9  1  0.96915900  0.56219700  0.81096000  1
  C  C10  1  0.02806300  0.47301200  0.17154900  1
  C  C11  1  0.90061100  0.56351000  0.70569400  1
  C  C12  1  0.09853500  0.50117000  0.27665000  1
  C  C13  1  0.94628500  0.52220700  0.59767100  1
  C  C14  1  0.05321700  0.49116000  0.38474400  1
  C  C15  1  0.07072400  0.50135300  0.59652700  1
  C  C16  1  0.92754000  0.47474100  0.38568800  1
  C  C17  1  0.87074900  0.49978900  0.49226500  1
  C  C18  1  0.12894200  0.49591200  0.49050200  1
  C  C19  1  0.51057800  0.81166300  0.51743500  1
  C  C20  1  0.50341300  0.18827400  0.46434700  1
  C  C21  1  0.41636400  0.02730800  0.35961500  1
  C  C22  1  0.60614600  0.97189800  0.61734800  1
  C  C23  1  0.43567100  0.13275200  0.36827800  1
  C  C24  1  0.58893900  0.86593500  0.60681700  1
  C  C25  1  0.55854500  0.13639300  0.55084600  1
  C  C26  1  0.44986400  0.86644700  0.43584300  1
  C  C27  1  0.54409600  0.02793500  0.53900900  1
  C  C28  1  0.46927000  0.97381000  0.44535200  1
  C  C29  1  0.40770700  0.38831900  0.00934600  1
  C  C30  1  0.59235800  0.61216800  0.97703800  1
  C  C31  1  0.41532800  0.39704500  0.13146300  1
  C  C32  1  0.58499400  0.60307900  0.85480300  1
  C  C33  1  0.53928900  0.54673000  0.15071100  1
  C  C34  1  0.46238300  0.45291400  0.83591000  1
  C  C35  1  0.53346900  0.53985400  0.02884800  1
  C  C36  1  0.46751100  0.46036400  0.95776000  1
  C  C37  1  0.35965900  0.81424800  0.34326200  1
  C  C38  1  0.14641600  0.78304700  0.27670700  1
  C  C39  1  0.07259000  0.86984400  0.23390100  1
  C  C40  1  0.63482900  0.19614200  0.65140400  1
  C  C41  1  0.69625900  0.23059000  0.85745300  1
  C  C42  1  0.66500400  0.19212800  0.96928900  1
  N  N1  1  0.52247700  0.52279400  0.78559600  1
  N  N2  1  0.47903000  0.47659500  0.20027700  1
  O  O1  1  0.47650300  0.35838800  0.57651700  1
  O  O2  1  0.45820000  0.63944000  0.40903800  1
  O  O3  1  0.52860300  0.34370700  0.38164900  1
  O  O4  1  0.54004700  0.65592600  0.60367300  1
  O  O5  1  0.33308400  0.53356000  0.59116300  1
  O  O6  1  0.66745700  0.52292600  0.39970400  1
  O  O7  1  0.31901800  0.46030700  0.39211800  1
  O  O8  1  0.68285800  0.48057700  0.58831300  1
  O  O9  1  0.39408000  0.76998500  0.24902200  1
  O  O10  1  0.23872500  0.82573100  0.35905100  1
  O  O11  1  0.71308700  0.25710300  0.63307500  1
  O  O12  1  0.61938300  0.18287900  0.76367300  1
