# generated using pymatgen
data_FeH6C18(NO4)2
_symmetry_space_group_name_H-M   'P 1'
_cell_length_a   9.40769800
_cell_length_b   16.82532900
_cell_length_c   15.22928100
_cell_angle_alpha   110.44007800
_cell_angle_beta   94.23532000
_cell_angle_gamma   78.45796900
_symmetry_Int_Tables_number   1
_chemical_formula_structural   FeH6C18(NO4)2
_chemical_formula_sum   'Fe2 H12 C36 N4 O16'
_cell_volume   2213.13139327
_cell_formula_units_Z   2
loop_
 _symmetry_equiv_pos_site_id
 _symmetry_equiv_pos_as_xyz
  1  'x, y, z'
loop_
 _atom_site_type_symbol
 _atom_site_label
 _atom_site_symmetry_multiplicity
 _atom_site_fract_x
 _atom_site_fract_y
 _atom_site_fract_z
 _atom_site_occupancy
  Fe  Fe1  1  0.46064300  0.98102300  0.33091200  1
  Fe  Fe2  1  0.53857100  0.01849500  0.66909400  1
  H  H1  1  0.00232800  0.97061800  0.29612800  1
  H  H2  1  0.68198200  0.99207700  0.08883500  1
  H  H3  1  0.99692900  0.02883500  0.70395600  1
  H  H4  1  0.31729100  0.00730700  0.91121400  1
  H  H5  1  0.25583200  0.98971300  0.04651500  1
  H  H6  1  0.74344200  0.00965700  0.95352600  1
  H  H7  1  0.17388900  0.27135300  0.42466200  1
  H  H8  1  0.20202700  0.45564500  0.69936500  1
  H  H9  1  0.34499700  0.34357500  0.75063400  1
  H  H10  1  0.79733200  0.54386300  0.30056200  1
  H  H11  1  0.65431200  0.65593400  0.24931500  1
  H  H12  1  0.82544300  0.72813200  0.57528200  1
  C  C1  1  0.07760400  0.98405400  0.17453000  1
  C  C2  1  0.97301200  0.97567900  0.22809500  1
  C  C3  1  0.83065900  0.97903500  0.19808800  1
  C  C4  1  0.79327400  0.98901300  0.11281300  1
  C  C5  1  0.89752500  0.99473000  0.05726700  1
  C  C6  1  0.04013500  0.99197700  0.08722300  1
  C  C7  1  0.85698500  0.00365900  0.97164900  1
  C  C8  1  0.95913600  0.00740700  0.91282700  1
  C  C9  1  0.10174800  0.00464800  0.94278000  1
  C  C10  1  0.14228800  0.99571400  0.02839500  1
  C  C11  1  0.92166400  0.01535700  0.82553100  1
  C  C12  1  0.02624900  0.02374800  0.77197700  1
  C  C13  1  0.16860100  0.02038100  0.80197800  1
  C  C14  1  0.20599600  0.01037400  0.88723900  1
  C  C15  1  0.71895300  0.97558600  0.25810000  1
  C  C16  1  0.58063100  0.82371800  0.34537600  1
  C  C17  1  0.22257500  0.99045400  0.21603000  1
  C  C18  1  0.32436000  0.13700200  0.45563700  1
  C  C19  1  0.67490600  0.86247800  0.54433700  1
  C  C20  1  0.77668700  0.00899800  0.78403400  1
  C  C21  1  0.41861900  0.17578600  0.65460000  1
  C  C22  1  0.28028400  0.02386400  0.74197600  1
  C  C23  1  0.29725700  0.22433900  0.52434300  1
  C  C24  1  0.21240700  0.28825600  0.49624900  1
  C  C25  1  0.17716300  0.37178800  0.55810300  1
  C  C26  1  0.22782600  0.39099200  0.64919000  1
  C  C27  1  0.30976500  0.32704600  0.67836700  1
  C  C28  1  0.34492600  0.24314500  0.61694400  1
  C  C29  1  0.91447200  0.56064100  0.47232200  1
  C  C30  1  0.08489200  0.43885500  0.52760400  1
  C  C31  1  0.77151900  0.60851200  0.35074400  1
  C  C32  1  0.68955200  0.67245900  0.32158000  1
  C  C33  1  0.65436900  0.75635400  0.38301600  1
  C  C34  1  0.70205000  0.77515200  0.47561300  1
  C  C35  1  0.78692600  0.71123500  0.50369400  1
  C  C36  1  0.82218800  0.62770900  0.44183000  1
  N  N1  1  0.04894800  0.51994100  0.58822800  1
  N  N2  1  0.96489500  0.58008200  0.56089400  1
  N  N3  1  0.95041700  0.47955600  0.41169800  1
  N  N4  1  0.03447000  0.41941400  0.43903200  1
  O  O1  1  0.58268400  0.98202600  0.23110400  1
  O  O2  1  0.58325700  0.80877700  0.25491900  1
  O  O3  1  0.75371000  0.96897500  0.34064600  1
  O  O4  1  0.51949100  0.90024700  0.40098200  1
  O  O5  1  0.27621800  0.94521200  0.26988100  1
  O  O6  1  0.28783800  0.05137700  0.21273100  1
  O  O7  1  0.45600400  0.10051000  0.42350000  1
  O  O8  1  0.21485600  0.09808300  0.42068200  1
  O  O9  1  0.54325600  0.89893800  0.57647700  1
  O  O10  1  0.78437800  0.90142700  0.57929400  1
  O  O11  1  0.72310300  0.05426400  0.73019600  1
  O  O12  1  0.71137600  0.94808400  0.78730200  1
  O  O13  1  0.24549400  0.03055100  0.65946500  1
  O  O14  1  0.47981500  0.09926400  0.59901000  1
  O  O15  1  0.41656100  0.01739400  0.76894500  1
  O  O16  1  0.41590000  0.19072300  0.74505200  1
