# generated using pymatgen
data_FeH13(C3O)9
_symmetry_space_group_name_H-M   'P 1'
_cell_length_a   15.38600900
_cell_length_b   16.50444600
_cell_length_c   15.96394500
_cell_angle_alpha   88.29750400
_cell_angle_beta   103.39315800
_cell_angle_gamma   107.75239200
_symmetry_Int_Tables_number   1
_chemical_formula_structural   FeH13(C3O)9
_chemical_formula_sum   'Fe2 H26 C54 O18'
_cell_volume   3752.14875754
_cell_formula_units_Z   2
loop_
 _symmetry_equiv_pos_site_id
 _symmetry_equiv_pos_as_xyz
  1  'x, y, z'
loop_
 _atom_site_type_symbol
 _atom_site_label
 _atom_site_symmetry_multiplicity
 _atom_site_fract_x
 _atom_site_fract_y
 _atom_site_fract_z
 _atom_site_occupancy
  Fe  Fe1  1  0.49327500  0.99311700  0.81511900  1
  Fe  Fe2  1  0.50571000  0.00841600  0.18341300  1
  H  H1  1  0.80436900  0.02321400  0.21608100  1
  H  H2  1  0.95615100  0.03283100  0.18730700  1
  H  H3  1  0.83313500  0.00606800  0.91816400  1
  H  H4  1  0.05700800  0.05080300  0.08572700  1
  H  H5  1  0.94377900  0.94982600  0.91675700  1
  H  H6  1  0.04021000  0.97510400  0.81554200  1
  H  H7  1  0.16833600  0.99349500  0.08124800  1
  H  H8  1  0.47734100  0.51089800  0.34417800  1
  H  H9  1  0.48426100  0.47662100  0.64499300  1
  H  H10  1  0.53010600  0.86034200  0.47712800  1
  H  H11  1  0.43768800  0.73898700  0.22957600  1
  H  H12  1  0.42729100  0.60515200  0.28854800  1
  H  H13  1  0.53793300  0.58315200  0.72628600  1
  H  H14  1  0.53077800  0.69505300  0.80938500  1
  H  H15  1  0.55565300  0.39397800  0.70544900  1
  H  H16  1  0.54336000  0.25941000  0.76561800  1
  H  H17  1  0.49221000  0.15916900  0.39937600  1
  H  H18  1  0.55419300  0.44731900  0.29815500  1
  H  H19  1  0.47731700  0.83419300  0.58765800  1
  H  H20  1  0.46370200  0.13806000  0.51895700  1
  H  H21  1  0.57248200  0.41389200  0.17461600  1
  H  H22  1  0.50457000  0.31144400  0.12850300  1
  H  H23  1  0.69392600  0.37233200  0.22294100  1
  H  H24  1  0.21235600  0.93013400  0.73870500  1
  H  H25  1  0.25061500  0.04540300  0.74320000  1
  H  H26  1  0.08994300  0.93239900  0.66396100  1
  C  C1  1  0.81009900  0.01918600  0.15022200  1
  C  C2  1  0.89564700  0.02407900  0.13408500  1
  C  C3  1  0.90351400  0.01490200  0.05094300  1
  C  C4  1  0.82583800  0.00623400  0.98363200  1
  C  C5  1  0.73931300  0.00119400  0.99887900  1
  C  C6  1  0.73105900  0.00510500  0.08370700  1
  C  C7  1  0.99572900  0.01834600  0.03634900  1
  C  C8  1  0.00505900  0.98254700  0.96593100  1
  C  C9  1  0.10300300  0.98189900  0.86553100  1
  C  C10  1  0.18782200  0.98762000  0.84624400  1
  C  C11  1  0.26731200  0.99677700  0.91261600  1
  C  C12  1  0.26067000  0.99914400  0.99833100  1
  C  C13  1  0.17499500  0.99431300  0.01550600  1
  C  C14  1  0.09682800  0.98733400  0.94961600  1
  C  C15  1  0.48683300  0.10784700  0.68389700  1
  C  C16  1  0.35749300  0.00904600  0.89019600  1
  C  C17  1  0.66110300  0.99601500  0.92352400  1
  C  C18  1  0.49626100  0.83992800  0.75545500  1
  C  C19  1  0.51269300  0.16344800  0.24278100  1
  C  C20  1  0.33979500  0.00395300  0.07325400  1
  C  C21  1  0.64098600  0.99199600  0.10647000  1
  C  C22  1  0.50313200  0.89133600  0.31224600  1
  C  C23  1  0.48706700  0.57564400  0.46093800  1
  C  C24  1  0.48847800  0.50749700  0.41224400  1
  C  C25  1  0.50298400  0.43376000  0.44898700  1
  C  C26  1  0.50548600  0.42380500  0.53509600  1
  C  C27  1  0.49859400  0.48972900  0.58285300  1
  C  C28  1  0.49903700  0.56857300  0.54907900  1
  C  C29  1  0.49229800  0.72230300  0.47570200  1
  C  C30  1  0.50422600  0.80158900  0.43889100  1
  C  C31  1  0.48663200  0.80817000  0.35094100  1
  C  C32  1  0.45491700  0.73567300  0.29890500  1
  C  C33  1  0.45210600  0.65840400  0.33421500  1
  C  C34  1  0.47720700  0.65132300  0.42333300  1
  C  C35  1  0.52117700  0.63494800  0.69081700  1
  C  C36  1  0.51933700  0.70066700  0.74037900  1
  C  C37  1  0.50255200  0.77174600  0.70249200  1
  C  C38  1  0.49363800  0.77877100  0.61501200  1
  C  C39  1  0.49850700  0.71377900  0.56394500  1
  C  C40  1  0.50481400  0.63797100  0.60118700  1
  C  C41  1  0.53200100  0.33987900  0.66065300  1
  C  C42  1  0.52812000  0.26275400  0.69627300  1
  C  C43  1  0.49952300  0.19047100  0.64425300  1
  C  C44  1  0.48445500  0.19688600  0.55607800  1
  C  C45  1  0.49690000  0.27631000  0.51891400  1
  C  C46  1  0.51090800  0.34699400  0.57165000  1
  C  C47  1  0.50036100  0.28794900  0.43205100  1
  C  C48  1  0.50069000  0.22269400  0.37821400  1
  C  C49  1  0.51494300  0.23682500  0.29569900  1
  C  C50  1  0.53423400  0.31967600  0.26752900  1
  C  C51  1  0.53211500  0.38359200  0.31975800  1
  C  C52  1  0.51065800  0.36848300  0.39982700  1
  C  C53  1  0.56138000  0.34500900  0.18385300  1
  C  C54  1  0.19505600  0.98762900  0.75398400  1
  O  O1  1  0.53407100  0.10462500  0.76318600  1
  O  O2  1  0.42353600  0.08256300  0.90894800  1
  O  O3  1  0.42308300  0.03951100  0.64381900  1
  O  O4  1  0.36954800  0.95016900  0.84445400  1
  O  O5  1  0.58007100  0.00114100  0.93177300  1
  O  O6  1  0.67383800  0.99019100  0.84573500  1
  O  O7  1  0.49345200  0.91336300  0.72274500  1
  O  O8  1  0.49603900  0.82855500  0.83710800  1
  O  O9  1  0.50614400  0.08855900  0.27581200  1
  O  O10  1  0.51381200  0.17027900  0.16103100  1
  O  O11  1  0.42298800  0.00451000  0.06518200  1
  O  O12  1  0.32611500  0.00533600  0.15125500  1
  O  O13  1  0.56899800  0.95794400  0.35331200  1
  O  O14  1  0.63171300  0.04749200  0.15828000  1
  O  O15  1  0.45794200  0.89667200  0.23277600  1
  O  O16  1  0.57234500  0.92100600  0.08174800  1
  O  O17  1  0.64465500  0.32805000  0.18308600  1
  O  O18  1  0.11067400  0.98701500  0.69781400  1
