# Generated by REPEAT Assigner based on pymatgen
data_DB0-m29_o90_o1500_f0_pts.sym.31
_audit_creation_date              2022-05-24
_audit_creation_method            REPEAT_Assigner
_cell_length_a                    16.441949
_cell_length_b                    16.721669
_cell_length_c                    13.055555
_cell_angle_alpha                 106.580396
_cell_angle_beta                  91.711480
_cell_angle_gamma                 116.021387
_cell_volume                      3040.959353
_symmetry_space_group_name_H-M    P1
_symmetry_Int_Tables_number       1
loop_
    _symmetry_equiv_pos_site_id
    _symmetry_equiv_pos_as_xyz
    1  x,y,z
loop_
    _atom_site_type_symbol
    _atom_site_label
    _atom_site_fract_x
    _atom_site_fract_y
    _atom_site_fract_z
    _atom_type_partial_charge
    H   H1   0.373484  0.941049  0.987473  0.110929
    C   C1   0.278378  0.965196  0.078751  0.056922
    C   C2   0.203363  0.981371  0.079826  -0.227280
    H   H2   0.179464  0.998741  0.155262  0.135923
    C   C3   0.157678  0.974446  0.984750  0.214131
    C   C4   0.191721  0.958497  0.888334  -0.133139
    C   C5   0.271155  0.947757  0.889139  0.043021
    C   C6   0.310443  0.946336  0.983480  -0.071354
    C   C7   0.989628  0.913297  0.989253  0.122983
    C   C8   0.916117  0.931988  0.005426  -0.123169
    H   H3   0.848555  0.875574  0.000205  0.152262
    C   C9   0.925481  0.021351  0.023169  -0.066972
    C   C10  0.010879  0.094733  0.026313  0.160799
    C   C11  0.084530  0.076114  0.010574  -0.185241
    H   H4   0.152072  0.132354  0.015318  0.143978
    C   C12  0.074559  0.986287  0.990280  0.029859
    C   C13  0.803169  0.042294  0.117189  -0.078975
    C   C14  0.723726  0.052786  0.115444  0.039121
    C   C15  0.687182  0.057676  0.022011  -0.007677
    H   H5   0.623593  0.061798  0.017412  0.117073
    C   C16  0.723150  0.044950  0.928444  -0.039043
    C   C17  0.800293  0.031452  0.928337  -0.041753
    C   C18  0.841305  0.031746  0.023255  0.125613
    O   O1   0.593880  0.055552  0.190807  -0.564334
    C   C19  0.668101  0.045366  0.202524  0.529535
    O   O2   0.506510  0.838454  0.192541  -0.484978
    O   O3   0.681771  0.012961  0.278226  -0.385241
    O   O4   0.497311  0.922793  0.357219  -0.536419
    C   C20  0.504508  0.849700  0.295954  0.534629
    Fe  Fe1  0.500855  0.011282  0.281821  1.438914
    O   O5   0.378195  0.935758  0.182104  -0.576800
    O   O6   0.366594  0.070551  0.252620  -0.519446
    C   C21  0.336204  0.986680  0.179831  0.665127
    O   O7   0.529613  0.133508  0.397288  -0.611395
    O   O8   0.406707  0.038861  0.456635  -0.439472
    C   C22  0.475924  0.122204  0.470117  0.681975
    O   O9   0.471124  0.864598  0.610504  -0.594819
    O   O10  0.589033  0.958509  0.544468  -0.413391
    C   C23  0.523397  0.874495  0.536006  0.700437
    O   O11  0.612838  0.065231  0.829487  -0.519211
    O   O12  0.647818  0.948611  0.746089  -0.381091
    C   C24  0.665623  0.024571  0.827097  0.551032
    O   O13  0.313698  0.989277  0.727801  -0.394826
    O   O14  0.497325  0.072878  0.645842  -0.515681
    C   C25  0.495355  0.148493  0.709016  0.510646
    O   O15  0.396662  0.938389  0.809471  -0.546436
    C   C26  0.324695  0.952610  0.800223  0.548967
    O   O16  0.489155  0.155988  0.810928  -0.437517
    Fe  Fe2  0.493366  0.985823  0.723633  1.385681
    C   C27  0.483715  0.206471  0.553179  0.015451
    C   C28  0.482946  0.274902  0.514943  0.004915
    H   H6   0.474463  0.262075  0.428414  0.151346
    C   C29  0.495372  0.359891  0.584129  -0.359972
    C   C30  0.509476  0.377724  0.695202  0.133140
    C   C31  0.510463  0.309603  0.735643  -0.097799
    C   C32  0.496372  0.222057  0.665107  0.078797
    N   N1   0.566578  0.521433  0.581802  -0.225470
    N   N2   0.571013  0.585971  0.539699  -0.119831
    C   C33  0.509389  0.562750  0.452338  0.701739
    N   N3   0.444475  0.472353  0.406029  -0.193955
    N   N4   0.440481  0.407477  0.447663  -0.227503
    C   C34  0.500259  0.431713  0.537469  0.766210
    C   C35  0.506675  0.627820  0.302426  0.211235
    C   C36  0.504202  0.697976  0.268363  -0.132635
    H   H7   0.500564  0.689572  0.183002  0.150931
    C   C37  0.509041  0.779381  0.341060  0.145303
    C   C38  0.515571  0.789713  0.451790  -0.112314
    C   C39  0.513673  0.717027  0.485123  0.098340
    C   C40  0.510730  0.636949  0.411738  -0.437433
    N   N5   0.839035  0.020367  0.831821  0.584074
    O   O17  0.856225  0.949619  0.794020  -0.318348
    O   O18  0.848775  0.075716  0.775360  -0.310067
    N   N6   0.521757  0.465612  0.768598  0.432137
    O   O19  0.462200  0.495408  0.757016  -0.272123
    O   O20  0.591359  0.515393  0.848696  -0.234180
    N   N7   0.526686  0.331141  0.850553  0.520835
    O   O21  0.470157  0.350206  0.907926  -0.267430
    O   O22  0.605453  0.347864  0.899357  -0.285995
    N   N8   0.507848  0.548698  0.224110  0.444603
    O   O23  0.471745  0.523582  0.122950  -0.260948
    O   O24  0.560479  0.514587  0.248165  -0.284978
    N   N9   0.512454  0.723528  0.596294  0.585559
    O   O25  0.436322  0.672717  0.624181  -0.313477
    O   O26  0.589714  0.762361  0.663513  -0.323635
    N   N10  0.142936  0.948098  0.788915  0.612577
    O   O27  0.114799  0.008670  0.783987  -0.332433
    O   O28  0.125335  0.876644  0.702500  -0.296574
    N   N11  0.975745  0.819231  0.971728  0.512854
    O   O29  0.026377  0.787917  0.916467  -0.332550
    O   O30  0.903984  0.760167  0.998608  -0.315682
    N   N12  0.024703  0.188863  0.044721  0.526734
    O   O31  0.097488  0.248986  0.020530  -0.329102
    O   O32  0.972847  0.219074  0.098780  -0.345836
    N   N13  0.849059  0.048718  0.216135  0.570123
    O   O33  0.865074  0.980443  0.221962  -0.331088
    O   O34  0.871374  0.121544  0.302668  -0.289442
