# generated using pymatgen
data_ZnH16C32N3ClO4
_symmetry_space_group_name_H-M   'P 1'
_cell_length_a   9.40566300
_cell_length_b   13.56411000
_cell_length_c   16.17708700
_cell_angle_alpha   90.04713100
_cell_angle_beta   94.86720100
_cell_angle_gamma   90.59516500
_symmetry_Int_Tables_number   1
_chemical_formula_structural   ZnH16C32N3ClO4
_chemical_formula_sum   'Zn2 H32 C64 N6 Cl2 O8'
_cell_volume   2056.30763919
_cell_formula_units_Z   2
loop_
 _symmetry_equiv_pos_site_id
 _symmetry_equiv_pos_as_xyz
  1  'x, y, z'
loop_
 _atom_site_type_symbol
 _atom_site_label
 _atom_site_symmetry_multiplicity
 _atom_site_fract_x
 _atom_site_fract_y
 _atom_site_fract_z
 _atom_site_occupancy
  Zn  Zn1  1  0.15775100  0.49355000  0.49880400  1
  Zn  Zn2  1  0.83809800  0.50590600  0.49074800  1
  H  H1  1  0.84670800  0.30771100  0.97857200  1
  H  H2  1  0.14979700  0.69055900  0.01087600  1
  H  H3  1  0.95296300  0.98923600  0.27306800  1
  H  H4  1  0.04661100  0.01011700  0.71601500  1
  H  H5  1  0.90238400  0.03583900  0.03828400  1
  H  H6  1  0.09907500  0.96330400  0.95129300  1
  H  H7  1  0.12431400  0.60709900  0.89235600  1
  H  H8  1  0.86874300  0.39121200  0.09744000  1
  H  H9  1  0.99736600  0.83327200  0.65750700  1
  H  H10  1  0.00748400  0.16633000  0.33171800  1
  H  H11  1  0.05862300  0.17185400  0.66055000  1
  H  H12  1  0.93791700  0.82796500  0.32878900  1
  H  H13  1  0.89361400  0.45039100  0.72857800  1
  H  H14  1  0.09871800  0.54792400  0.26060600  1
  H  H15  1  0.84738400  0.38895900  0.86362300  1
  H  H16  1  0.14595800  0.60885800  0.12553700  1
  H  H17  1  0.09457100  0.54440200  0.75124900  1
  H  H18  1  0.89678200  0.45384000  0.23864200  1
  H  H19  1  0.24756000  0.30763600  0.49944700  1
  H  H20  1  0.74852700  0.69188400  0.49142100  1
  H  H21  1  0.37811200  0.16471500  0.50905300  1
  H  H22  1  0.62355500  0.83483500  0.50795000  1
  H  H23  1  0.75258600  0.31356700  0.48514500  1
  H  H24  1  0.24310200  0.68562000  0.50405600  1
  H  H25  1  0.45245100  0.88857100  0.63554800  1
  H  H26  1  0.13412300  0.08990100  0.54146500  1
  H  H27  1  0.09653000  0.99186300  0.41382400  1
  H  H28  1  0.22688900  0.83822900  0.39949100  1
  H  H29  1  0.60560200  0.12188600  0.63294000  1
  H  H30  1  0.87653000  0.91042800  0.53394000  1
  H  H31  1  0.85545400  0.99751600  0.40063300  1
  H  H32  1  0.72141200  0.15132900  0.38522200  1
  C  C1  1  0.97951500  0.18353300  0.78151800  1
  C  C2  1  0.01794200  0.81553000  0.20787400  1
  C  C3  1  0.92576000  0.24417300  0.83784600  1
  C  C4  1  0.07080400  0.75442900  0.15153800  1
  C  C5  1  0.91532100  0.19144300  0.90940600  1
  C  C6  1  0.08291700  0.80719900  0.08012800  1
  C  C7  1  0.99417200  0.09197200  0.81887700  1
  C  C8  1  0.00559100  0.90725100  0.17062100  1
  C  C9  1  0.87853800  0.23172100  0.98006700  1
  C  C10  1  0.11936200  0.76682700  0.00946400  1
  C  C11  1  0.90354700  0.18870300  0.06320000  1
  C  C12  1  0.09564700  0.81027200  0.92637600  1
  C  C13  1  0.91891500  0.24291000  0.13553700  1
  C  C14  1  0.07929900  0.75611000  0.85405600  1
  C  C15  1  0.95241200  0.17979100  0.19954600  1
  C  C16  1  0.04794800  0.81950100  0.78997400  1
  C  C17  1  0.95310300  0.08567200  0.16397500  1
  C  C18  1  0.04880000  0.91371400  0.82549300  1
  C  C19  1  0.96933400  0.99069300  0.20784100  1
  C  C20  1  0.03176500  0.00877000  0.78160800  1
  C  C21  1  0.09433200  0.65688100  0.84203500  1
  C  C22  1  0.90064000  0.34178400  0.14769600  1
  C  C23  1  0.07526000  0.62131000  0.76219900  1
  C  C24  1  0.91845300  0.37726500  0.22760700  1
  C  C25  1  0.03295800  0.68189600  0.69577500  1
  C  C26  1  0.96342900  0.31719500  0.29392000  1
  C  C27  1  0.02214500  0.78392200  0.70888100  1
  C  C28  1  0.97850100  0.21546600  0.28062800  1
  C  C29  1  0.01489000  0.21882400  0.70559400  1
  C  C30  1  0.98144500  0.78058300  0.28375000  1
  C  C31  1  0.98986500  0.31796000  0.68905500  1
  C  C32  1  0.00535100  0.68127400  0.30034300  1
  C  C33  1  0.92359700  0.37582500  0.74479200  1
  C  C34  1  0.07011200  0.62274200  0.24442200  1
  C  C35  1  0.89489800  0.34073900  0.82088000  1
  C  C36  1  0.09942400  0.65752200  0.16834100  1
  C  C37  1  0.01561600  0.63227300  0.61393500  1
  C  C38  1  0.98039500  0.36708600  0.37569000  1
  C  C39  1  0.00434500  0.36417800  0.60922700  1
  C  C40  1  0.99137900  0.63531500  0.38033100  1
  C  C41  1  0.35851700  0.31971600  0.49933500  1
  C  C42  1  0.63858600  0.67979700  0.49641600  1
  C  C43  1  0.43270700  0.23415700  0.50417300  1
  C  C44  1  0.56743800  0.76535500  0.50583300  1
  C  C45  1  0.57495400  0.23659200  0.49987200  1
  C  C46  1  0.42474700  0.76291800  0.50834100  1
  C  C47  1  0.64312400  0.32428400  0.48994600  1
  C  C48  1  0.35331900  0.67505200  0.50270000  1
  C  C49  1  0.57423300  0.41539200  0.49146500  1
  C  C50  1  0.42180900  0.58405600  0.49896900  1
  C  C51  1  0.42499700  0.41215600  0.49670100  1
  C  C52  1  0.57124700  0.58732800  0.49470500  1
  C  C53  1  0.34664100  0.85375400  0.51696900  1
  C  C54  1  0.37319100  0.91093400  0.58713900  1
  C  C55  1  0.29550300  0.99506800  0.59670900  1
  C  C56  1  0.19341700  0.02296900  0.53514600  1
  C  C57  1  0.17111500  0.96769100  0.46368500  1
  C  C58  1  0.24554600  0.88205000  0.45525200  1
  C  C59  1  0.65616100  0.14610800  0.50839100  1
  C  C60  1  0.66163600  0.09484900  0.58206900  1
  C  C61  1  0.74205600  0.01081600  0.59181400  1
  C  C62  1  0.81509800  0.97721800  0.52718100  1
  C  C63  1  0.80467800  0.02646400  0.45249500  1
  C  C64  1  0.72785700  0.11210100  0.44354000  1
  N  N1  1  0.95718700  0.09766000  0.89814100  1
  N  N2  1  0.04306400  0.90135300  0.09149400  1
  N  N3  1  0.92194200  0.09277300  0.08086000  1
  N  N4  1  0.07932400  0.90642200  0.90867600  1
  N  N5  1  0.64897200  0.50335200  0.48945900  1
  N  N6  1  0.34684600  0.49613900  0.49993300  1
  Cl  Cl1  1  0.32947800  0.06747900  0.68601500  1
  Cl  Cl2  1  0.74802600  0.94590900  0.68551700  1
  O  O1  1  0.88686000  0.60551000  0.58212900  1
  O  O2  1  0.10910400  0.39356900  0.40772300  1
  O  O3  1  0.13150200  0.59406600  0.58803100  1
  O  O4  1  0.86440300  0.40551500  0.40141400  1
  O  O5  1  0.13090600  0.39177400  0.58743900  1
  O  O6  1  0.86492900  0.60796200  0.40235700  1
  O  O7  1  0.88550000  0.40126500  0.57636200  1
  O  O8  1  0.11025700  0.59800100  0.41301500  1
