# generated using pymatgen
data_Cu3H18(C19O12)2
_symmetry_space_group_name_H-M   'P 1'
_cell_length_a   21.54743400
_cell_length_b   28.87067600
_cell_length_c   28.86499500
_cell_angle_alpha   90.00000000
_cell_angle_beta   90.00000000
_cell_angle_gamma   90.00000000
_symmetry_Int_Tables_number   1
_chemical_formula_structural   Cu3H18(C19O12)2
_chemical_formula_sum   'Cu12 H72 C152 O96'
_cell_volume   17956.59546021
_cell_formula_units_Z   4
loop_
 _symmetry_equiv_pos_site_id
 _symmetry_equiv_pos_as_xyz
  1  'x, y, z'
loop_
 _atom_site_type_symbol
 _atom_site_label
 _atom_site_symmetry_multiplicity
 _atom_site_fract_x
 _atom_site_fract_y
 _atom_site_fract_z
 _atom_site_occupancy
  Cu  Cu1  1  0.00101500  0.95684700  0.00285000  1
  Cu  Cu2  1  0.93820300  0.00608000  0.50325800  1
  Cu  Cu3  1  0.56190600  0.50489500  0.00359300  1
  Cu  Cu4  1  0.43820300  0.50608000  0.00325800  1
  Cu  Cu5  1  0.50101500  0.45684700  0.50285000  1
  Cu  Cu6  1  0.00115200  0.04917000  0.00409600  1
  Cu  Cu7  1  0.50115200  0.54917000  0.50409600  1
  Cu  Cu8  1  0.50292800  0.00523600  0.95513800  1
  Cu  Cu9  1  0.49795900  0.00586600  0.04739100  1
  Cu  Cu10  1  0.00292800  0.50523600  0.45513800  1
  Cu  Cu11  1  0.99795900  0.50586600  0.54739100  1
  Cu  Cu12  1  0.06190600  0.00489500  0.50359300  1
  H  H1  1  0.33632600  0.16330200  0.04731700  1
  H  H2  1  0.20527000  0.68207300  0.46710800  1
  H  H3  1  0.13683400  0.66777400  0.50048800  1
  H  H4  1  0.13316300  0.66852400  0.43778300  1
  H  H5  1  0.21181000  0.00956100  0.17952200  1
  H  H6  1  0.14151300  0.97537900  0.17617700  1
  H  H7  1  0.14016400  0.03612000  0.16033000  1
  H  H8  1  0.79544200  0.06279800  0.83444700  1
  H  H9  1  0.86409200  0.02752000  0.82689100  1
  H  H10  1  0.86815400  0.08036300  0.86062100  1
  H  H11  1  0.81036300  0.08178600  0.16703000  1
  H  H12  1  0.27192600  0.17375000  0.08628300  1
  H  H13  1  0.88193800  0.09344500  0.13620100  1
  H  H14  1  0.87700900  0.04464500  0.17549300  1
  H  H15  1  0.18237900  0.11780000  0.86162700  1
  H  H16  1  0.11551500  0.12155200  0.89951300  1
  H  H17  1  0.11355000  0.08389300  0.84936000  1
  H  H18  1  0.71181000  0.50956100  0.67952200  1
  H  H19  1  0.64151300  0.47537900  0.67617700  1
  H  H20  1  0.64016400  0.53612000  0.66033000  1
  H  H21  1  0.29544200  0.56279800  0.33444700  1
  H  H22  1  0.36409200  0.52752000  0.32689100  1
  H  H23  1  0.26763700  0.19293900  0.02661500  1
  H  H24  1  0.36815400  0.58036300  0.36062100  1
  H  H25  1  0.31036300  0.58178600  0.66703000  1
  H  H26  1  0.38193800  0.59344500  0.63620100  1
  H  H27  1  0.37700900  0.54464500  0.67549300  1
  H  H28  1  0.68237900  0.61780000  0.36162700  1
  H  H29  1  0.61551500  0.62155200  0.39951300  1
  H  H30  1  0.61355000  0.58389300  0.34936000  1
  H  H31  1  0.32539900  0.87683800  0.11448900  1
  H  H32  1  0.40128300  0.87080500  0.08813600  1
  H  H33  1  0.33794000  0.83398000  0.06959800  1
  H  H34  1  0.70527000  0.18207300  0.96710800  1
  H  H35  1  0.68775500  0.88116800  0.87618600  1
  H  H36  1  0.61899900  0.91730600  0.87616000  1
  H  H37  1  0.61937700  0.86329500  0.90807400  1
  H  H38  1  0.67650200  0.92763800  0.15935900  1
  H  H39  1  0.61300400  0.96809100  0.16670400  1
  H  H40  1  0.68782000  0.98009900  0.19272300  1
  H  H41  1  0.31582600  0.96921500  0.82702400  1
  H  H42  1  0.38285400  0.00693000  0.83045400  1
  H  H43  1  0.30894700  0.02964200  0.81094300  1
  H  H44  1  0.82539900  0.37683800  0.61448900  1
  H  H45  1  0.63683400  0.16777400  0.00048800  1
  H  H46  1  0.90128300  0.37080500  0.58813600  1
  H  H47  1  0.83794000  0.33398000  0.56959800  1
  H  H48  1  0.18775500  0.38116800  0.37618600  1
  H  H49  1  0.11899900  0.41730600  0.37616000  1
  H  H50  1  0.11937700  0.36329500  0.40807400  1
  H  H51  1  0.17650200  0.42763800  0.65935900  1
  H  H52  1  0.11300400  0.46809100  0.66666667  1
  H  H53  1  0.18782000  0.48009900  0.69272300  1
  H  H54  1  0.81582600  0.46921500  0.32702400  1
  H  H55  1  0.88285400  0.50693000  0.33045400  1
  H  H56  1  0.63316300  0.16852400  0.93778300  1
  H  H57  1  0.80894700  0.52964200  0.31094300  1
  H  H58  1  0.15541700  0.84204800  0.95788500  1
  H  H59  1  0.23021400  0.81348600  0.95591200  1
  H  H60  1  0.19556700  0.83551700  0.90314000  1
  H  H61  1  0.81489400  0.83283300  0.03221800  1
  H  H62  1  0.88063400  0.83541400  0.99319000  1
  H  H63  1  0.80555300  0.81675200  0.97196600  1
  H  H64  1  0.65541700  0.34204800  0.45788500  1
  H  H65  1  0.73021400  0.31348600  0.45591200  1
  H  H66  1  0.69556700  0.33551700  0.40314000  1
  H  H67  1  0.83632600  0.66330200  0.54731700  1
  H  H68  1  0.31489400  0.33283300  0.53221800  1
  H  H69  1  0.38063400  0.33541400  0.49319000  1
  H  H70  1  0.30555300  0.31675200  0.47196600  1
  H  H71  1  0.77192600  0.67375000  0.58628300  1
  H  H72  1  0.76763700  0.69293900  0.52661500  1
  C  C1  1  0.00305600  0.00153700  0.09228300  1
  C  C2  1  0.77111800  0.02235200  0.96740700  1
  C  C3  1  0.50346800  0.73467500  0.00265100  1
  C  C4  1  0.00297800  0.18577000  0.50281200  1
  C  C5  1  0.50297800  0.68577000  0.00281200  1
  C  C6  1  0.00241800  0.14403600  0.50293500  1
  C  C7  1  0.50241800  0.64403600  0.00293500  1
  C  C8  1  0.25733400  0.12019800  0.03662600  1
  C  C9  1  0.28506200  0.16544800  0.05007900  1
  C  C10  1  0.68045100  0.11063000  0.96705500  1
  C  C11  1  0.66277600  0.16043500  0.96814500  1
  C  C12  1  0.75733400  0.62019800  0.53662600  1
  C  C13  1  0.77336200  0.02782800  0.04084200  1
  C  C14  1  0.78506200  0.66544800  0.55007900  1
  C  C15  1  0.18045100  0.61063000  0.46705500  1
  C  C16  1  0.16277600  0.66043500  0.46814500  1
  C  C17  1  0.18331400  0.99141200  0.11121600  1
  C  C18  1  0.16820200  0.00391500  0.15992700  1
  C  C19  1  0.82255500  0.02388100  0.89379100  1
  C  C20  1  0.83862400  0.05034100  0.85122200  1
  C  C21  1  0.82993300  0.03587700  0.11116000  1
  C  C22  1  0.85121600  0.06586200  0.14994000  1
  C  C23  1  0.16842300  0.05954900  0.90571800  1
  C  C24  1  0.22852000  0.03439800  0.97007200  1
  C  C25  1  0.14337500  0.09818400  0.87721900  1
  C  C26  1  0.68331400  0.49141200  0.61121600  1
  C  C27  1  0.66820200  0.50391500  0.65992700  1
  C  C28  1  0.32255500  0.52388100  0.39379100  1
  C  C29  1  0.33862400  0.55034100  0.35122200  1
  C  C30  1  0.32993300  0.53587700  0.61116000  1
  C  C31  1  0.35121600  0.56586200  0.64994000  1
  C  C32  1  0.66842300  0.55954900  0.40571800  1
  C  C33  1  0.64337500  0.59818400  0.37721900  1
  C  C34  1  0.33318100  0.90382200  0.04603800  1
  C  C35  1  0.73293000  0.51091600  0.54010900  1
  C  C36  1  0.35055300  0.86913900  0.08187100  1
  C  C37  1  0.67112100  0.91811700  0.93884500  1
  C  C38  1  0.64783300  0.89337700  0.89713000  1
  C  C39  1  0.68348100  0.98957700  0.11959500  1
  C  C40  1  0.66394100  0.96476700  0.16234100  1
  C  C41  1  0.31530500  0.01674100  0.88345900  1
  C  C42  1  0.33180200  0.00488100  0.83484900  1
  C  C43  1  0.83318100  0.40382200  0.54603800  1
  C  C44  1  0.85055300  0.36913900  0.58187100  1
  C  C45  1  0.17112100  0.41811700  0.43884500  1
  C  C46  1  0.27111800  0.52235200  0.46740700  1
  C  C47  1  0.14783300  0.39337700  0.39713000  1
  C  C48  1  0.18348100  0.48957700  0.61959500  1
  C  C49  1  0.16394100  0.46476700  0.66234100  1
  C  C50  1  0.81530500  0.51674100  0.38345900  1
  C  C51  1  0.83180200  0.50488100  0.33484900  1
  C  C52  1  0.23289400  0.88686200  0.94827800  1
  C  C53  1  0.20151900  0.84157300  0.94081500  1
  C  C54  1  0.81390000  0.88919200  0.98459500  1
  C  C55  1  0.82977100  0.84041700  0.99623100  1
  C  C56  1  0.73289400  0.38686200  0.44827800  1
  C  C57  1  0.27336200  0.52782800  0.54084200  1
  C  C58  1  0.70151900  0.34157300  0.44081500  1
  C  C59  1  0.31390000  0.38919200  0.48459500  1
  C  C60  1  0.32977100  0.34041700  0.49623100  1
  C  C61  1  0.72852000  0.53439800  0.47007200  1
  C  C62  1  0.27162600  0.04273400  0.01054100  1
  C  C63  1  0.73214000  0.04706000  0.00307000  1
  C  C64  1  0.77162600  0.54273400  0.51054100  1
  C  C65  1  0.00028500  0.00453200  0.91466900  1
  C  C66  1  0.23214000  0.54706000  0.50307000  1
  C  C67  1  0.31249200  0.00254400  0.99578500  1
  C  C68  1  0.68861900  0.00583900  0.00692800  1
  C  C69  1  0.81249200  0.50254400  0.49578500  1
  C  C70  1  0.18861900  0.50583900  0.50692800  1
  C  C71  1  0.27270000  0.97047500  0.02533000  1
  C  C72  1  0.72829400  0.98074300  0.97128200  1
  C  C73  1  0.73045300  0.98674300  0.04475400  1
  C  C74  1  0.26865400  0.99430600  0.95499000  1
  C  C75  1  0.77270000  0.47047500  0.52533000  1
  C  C76  1  0.50305600  0.50153700  0.59228300  1
  C  C77  1  0.22829400  0.48074300  0.47128200  1
  C  C78  1  0.23045300  0.48674300  0.54475400  1
  C  C79  1  0.76865400  0.49430600  0.45499000  1
  C  C80  1  0.22951800  0.96209200  0.98474300  1
  C  C81  1  0.76961400  0.96155000  0.00911700  1
  C  C82  1  0.72951800  0.46209200  0.48474300  1
  C  C83  1  0.26961400  0.46155000  0.50911700  1
  C  C84  1  0.18912500  0.00268800  0.99992300  1
  C  C85  1  0.81302000  0.00312000  0.00525100  1
  C  C86  1  0.68912500  0.50268800  0.49992300  1
  C  C87  1  0.50028500  0.50453200  0.41466900  1
  C  C88  1  0.31302000  0.50312000  0.50525100  1
  C  C89  1  0.00269500  0.00110500  0.14193900  1
  C  C90  1  0.99978100  0.00518800  0.86500400  1
  C  C91  1  0.50269500  0.50110500  0.64193900  1
  C  C92  1  0.49978100  0.50518800  0.36500400  1
  C  C93  1  0.00237800  0.00126600  0.18366300  1
  C  C94  1  0.99959000  0.00566600  0.82327800  1
  C  C95  1  0.50237800  0.50126600  0.68366300  1
  C  C96  1  0.49959000  0.50566600  0.32327800  1
  C  C97  1  0.00203200  0.00192200  0.23254400  1
  C  C98  1  0.12017200  0.00287900  0.00208400  1
  C  C99  1  0.99932800  0.00607900  0.77438100  1
  C  C100  1  0.50203200  0.50192200  0.73254400  1
  C  C101  1  0.49932800  0.50607900  0.27438100  1
  C  C102  1  0.00173500  0.00267000  0.27427000  1
  C  C103  1  0.99914200  0.00624300  0.73264100  1
  C  C104  1  0.50173500  0.50267000  0.77427000  1
  C  C105  1  0.49914200  0.50624300  0.23264100  1
  C  C106  1  0.00140000  0.00358300  0.32316400  1
  C  C107  1  0.99902300  0.00620000  0.68372900  1
  C  C108  1  0.50140000  0.50358300  0.82316400  1
  C  C109  1  0.88203800  0.00306400  0.00444800  1
  C  C110  1  0.49902300  0.50620000  0.18372900  1
  C  C111  1  0.00114800  0.00422200  0.36489500  1
  C  C112  1  0.99902700  0.00596300  0.64198700  1
  C  C113  1  0.50114800  0.50422200  0.86489500  1
  C  C114  1  0.49902700  0.50596300  0.14198700  1
  C  C115  1  0.49815200  0.09438000  0.00095300  1
  C  C116  1  0.99815200  0.59438000  0.50095300  1
  C  C117  1  0.38148700  0.00405500  0.99730100  1
  C  C118  1  0.61949400  0.00695000  0.00522800  1
  C  C119  1  0.88148700  0.50405500  0.49730100  1
  C  C120  1  0.62017200  0.50287900  0.50208400  1
  C  C121  1  0.11949400  0.50695000  0.50522800  1
  C  C122  1  0.50285500  0.91669400  0.00158900  1
  C  C123  1  0.00285500  0.41669400  0.50158900  1
  C  C124  1  0.00159600  0.09434900  0.50308400  1
  C  C125  1  0.50159600  0.59434900  0.00308400  1
  C  C126  1  0.00092100  0.00463800  0.41458200  1
  C  C127  1  0.99917900  0.00544400  0.59229100  1
  C  C128  1  0.50092100  0.50463800  0.91458200  1
  C  C129  1  0.49917900  0.50544400  0.09229100  1
  C  C130  1  0.99851000  0.91661600  0.50366000  1
  C  C131  1  0.38203800  0.50306400  0.50444800  1
  C  C132  1  0.49851000  0.41661600  0.00366000  1
  C  C133  1  0.49697500  0.14402700  0.00069500  1
  C  C134  1  0.99697500  0.64402700  0.50069500  1
  C  C135  1  0.49638800  0.18574300  0.00085200  1
  C  C136  1  0.99638800  0.68574300  0.50085200  1
  C  C137  1  0.49625800  0.23462000  0.00134700  1
  C  C138  1  0.99625800  0.73462000  0.50134700  1
  C  C139  1  0.99647300  0.77634100  0.50192600  1
  C  C140  1  0.49647300  0.27634100  0.00192600  1
  C  C141  1  0.99700900  0.82522500  0.50266400  1
  C  C142  1  0.23293000  0.01091600  0.04010900  1
  C  C143  1  0.49700900  0.32522500  0.00266400  1
  C  C144  1  0.99763300  0.86694600  0.50322000  1
  C  C145  1  0.49763300  0.36694600  0.00322000  1
  C  C146  1  0.50357900  0.86702700  0.00196500  1
  C  C147  1  0.00357900  0.36702700  0.50196500  1
  C  C148  1  0.50379500  0.82530500  0.00222800  1
  C  C149  1  0.00379500  0.32530500  0.50222800  1
  C  C150  1  0.50372400  0.77640900  0.00248000  1
  C  C151  1  0.00372400  0.27640900  0.50248000  1
  C  C152  1  0.00346800  0.23467500  0.50265100  1
  O  O1  1  0.00043500  0.96184700  0.07032200  1
  O  O2  1  0.91090100  0.96313100  0.00613200  1
  O  O3  1  0.59124500  0.46301600  0.50349700  1
  O  O4  1  0.41090100  0.46313100  0.50613200  1
  O  O5  1  0.09134000  0.04285600  0.00169700  1
  O  O6  1  0.91089900  0.04305800  0.00248000  1
  O  O7  1  0.59134000  0.54285600  0.50169700  1
  O  O8  1  0.41089900  0.54305800  0.50248000  1
  O  O9  1  0.49781900  0.07251600  0.96112900  1
  O  O10  1  0.49979100  0.07319000  0.04108400  1
  O  O11  1  0.99781900  0.57251600  0.46112900  1
  O  O12  1  0.99701400  0.96433900  0.93567300  1
  O  O13  1  0.99979100  0.57319000  0.54108400  1
  O  O14  1  0.41252900  0.00167200  0.95834100  1
  O  O15  1  0.58841800  0.00849000  0.04420900  1
  O  O16  1  0.59267900  0.00501500  0.96448800  1
  O  O17  1  0.40820800  0.00696400  0.03802300  1
  O  O18  1  0.91252900  0.50167200  0.45834100  1
  O  O19  1  0.08841800  0.50849000  0.54420900  1
  O  O20  1  0.09267900  0.50501500  0.46448800  1
  O  O21  1  0.90820800  0.50696400  0.53802300  1
  O  O22  1  0.50226300  0.93789400  0.96143900  1
  O  O23  1  0.50043500  0.46184700  0.57032200  1
  O  O24  1  0.50192800  0.93854700  0.04140700  1
  O  O25  1  0.00226300  0.43789400  0.46143900  1
  O  O26  1  0.00192800  0.43854700  0.54140700  1
  O  O27  1  0.05480700  0.07230100  0.50144400  1
  O  O28  1  0.94764900  0.07333900  0.50489000  1
  O  O29  1  0.55480700  0.57230100  0.00144400  1
  O  O30  1  0.44764900  0.57333900  0.00489000  1
  O  O31  1  0.05436300  0.00647300  0.43619400  1
  O  O32  1  0.94581200  0.00803500  0.57064600  1
  O  O33  1  0.94735500  0.00740500  0.43595500  1
  O  O34  1  0.49701400  0.46433900  0.43567300  1
  O  O35  1  0.05280600  0.00691700  0.57088100  1
  O  O36  1  0.55436300  0.50647300  0.93619400  1
  O  O37  1  0.44581200  0.50803500  0.07064600  1
  O  O38  1  0.44735500  0.50740500  0.93595500  1
  O  O39  1  0.55280600  0.50691700  0.07088100  1
  O  O40  1  0.05234200  0.93765100  0.50185400  1
  O  O41  1  0.94543400  0.93868800  0.50547900  1
  O  O42  1  0.55234200  0.43765100  0.00185400  1
  O  O43  1  0.44543400  0.43868800  0.00547900  1
  O  O44  1  0.29468700  0.08499600  0.02383100  1
  O  O45  1  0.99936600  0.04167900  0.07128300  1
  O  O46  1  0.20114600  0.11526900  0.03719100  1
  O  O47  1  0.71518300  0.09287800  0.00162400  1
  O  O48  1  0.66372600  0.08632300  0.93486800  1
  O  O49  1  0.79468700  0.58499600  0.52383100  1
  O  O50  1  0.70114600  0.61526900  0.53719100  1
  O  O51  1  0.21518300  0.59287800  0.50162400  1
  O  O52  1  0.16372600  0.58632300  0.43486800  1
  O  O53  1  0.21640100  0.02106600  0.08490400  1
  O  O54  1  0.16620600  0.95432800  0.09557200  1
  O  O55  1  0.78912800  0.04445500  0.92743800  1
  O  O56  1  0.99830800  0.04419500  0.93669600  1
  O  O57  1  0.83946400  0.98387000  0.89780000  1
  O  O58  1  0.79510800  0.05420000  0.07693400  1
  O  O59  1  0.84326100  0.99483800  0.11091900  1
  O  O60  1  0.20608600  0.06887100  0.94188000  1
  O  O61  1  0.15468000  0.01969500  0.89625100  1
  O  O62  1  0.71640100  0.52106600  0.58490400  1
  O  O63  1  0.66620600  0.45432800  0.59557200  1
  O  O64  1  0.28912800  0.54445500  0.42743800  1
  O  O65  1  0.33946400  0.48387000  0.39780000  1
  O  O66  1  0.29510800  0.55420000  0.57693400  1
  O  O67  1  0.49936600  0.54167900  0.57128300  1
  O  O68  1  0.34326100  0.49483800  0.61091900  1
  O  O69  1  0.70608600  0.56887100  0.44188000  1
  O  O70  1  0.65468000  0.51969500  0.39625100  1
  O  O71  1  0.29309800  0.93805800  0.05675400  1
  O  O72  1  0.35644700  0.90163200  0.00768100  1
  O  O73  1  0.70676600  0.95621800  0.93380600  1
  O  O74  1  0.65762800  0.90391400  0.97732400  1
  O  O75  1  0.71198500  0.96600200  0.08531000  1
  O  O76  1  0.67405500  0.03106200  0.11601500  1
  O  O77  1  0.28527200  0.98540900  0.90990600  1
  O  O78  1  0.49830800  0.54419500  0.43669600  1
  O  O79  1  0.32880300  0.05470600  0.89897700  1
  O  O80  1  0.79309800  0.43805800  0.55675400  1
  O  O81  1  0.85644700  0.40163200  0.50768100  1
  O  O82  1  0.20676600  0.45621800  0.43380600  1
  O  O83  1  0.15762800  0.40391400  0.47732400  1
  O  O84  1  0.21198500  0.46600200  0.58531000  1
  O  O85  1  0.17405500  0.53106200  0.61601500  1
  O  O86  1  0.78527200  0.48540900  0.40990600  1
  O  O87  1  0.82880300  0.55470600  0.39897700  1
  O  O88  1  0.20347600  0.92034600  0.97241200  1
  O  O89  1  0.09124500  0.96301600  0.00349700  1
  O  O90  1  0.28407900  0.89352200  0.93167100  1
  O  O91  1  0.78542400  0.91596900  0.01641200  1
  O  O92  1  0.82622200  0.90436500  0.94635200  1
  O  O93  1  0.70347600  0.42034600  0.47241200  1
  O  O94  1  0.78407900  0.39352200  0.43167100  1
  O  O95  1  0.28542400  0.41596900  0.51641200  1
  O  O96  1  0.32622200  0.40436500  0.44635200  1
