# generated using pymatgen
data_Zn2H13C27S2N3O8
_symmetry_space_group_name_H-M   'P 1'
_cell_length_a   12.37004600
_cell_length_b   14.43003400
_cell_length_c   6.55540500
_cell_angle_alpha   90.00000000
_cell_angle_beta   80.12215600
_cell_angle_gamma   90.00000000
_symmetry_Int_Tables_number   1
_chemical_formula_structural   Zn2H13C27S2N3O8
_chemical_formula_sum   'Zn2 H13 C27 S2 N3 O8'
_cell_volume   1152.79452271
_cell_formula_units_Z   1
loop_
 _symmetry_equiv_pos_site_id
 _symmetry_equiv_pos_as_xyz
  1  'x, y, z'
loop_
 _atom_site_type_symbol
 _atom_site_label
 _atom_site_symmetry_multiplicity
 _atom_site_fract_x
 _atom_site_fract_y
 _atom_site_fract_z
 _atom_site_occupancy
  Zn  Zn1  1  0.49541600  0.10194200  0.51036000  1
  Zn  Zn2  1  0.50134200  0.89447600  0.53854400  1
  H  H1  1  0.14930900  0.94599000  0.49995400  1
  H  H2  1  0.85519400  0.04184100  0.54976000  1
  H  H3  1  0.97637100  0.95217000  0.37856000  1
  H  H4  1  0.84334800  0.97387900  0.28542100  1
  H  H5  1  0.05007700  0.05502500  0.50077600  1
  H  H6  1  0.38684800  0.40838600  0.80311700  1
  H  H7  1  0.39214900  0.57846600  0.82510100  1
  H  H8  1  0.54621400  0.58366600  0.88081600  1
  H  H9  1  0.51556300  0.69817400  0.99157300  1
  H  H10  1  0.45279700  0.59683000  0.12354400  1
  H  H11  1  0.55406000  0.39008400  0.82892600  1
  H  H12  1  0.48274700  0.46943300  0.01820600  1
  H  H13  1  0.46171800  0.34536300  0.05181300  1
  C  C1  1  0.24489600  0.98230400  0.20944100  1
  C  C2  1  0.14811400  0.96334200  0.34009500  1
  C  C3  1  0.04965500  0.96791700  0.27029900  1
  C  C4  1  0.24359900  0.00294400  0.00419700  1
  C  C5  1  0.14436600  0.00957600  0.93476200  1
  C  C6  1  0.04686200  0.99303200  0.06776800  1
  C  C7  1  0.94849500  0.99969100  0.99422400  1
  C  C8  1  0.84885700  0.98640300  0.12226500  1
  C  C9  1  0.75204400  0.99348800  0.04669700  1
  C  C10  1  0.04875600  0.03714900  0.66118000  1
  C  C11  1  0.94993300  0.02169600  0.78949400  1
  C  C12  1  0.85297200  0.02748900  0.71223000  1
  C  C13  1  0.75340900  0.01295100  0.84007600  1
  C  C14  1  0.34442900  0.98786600  0.29958500  1
  C  C15  1  0.34425600  0.00289100  0.85056600  1
  C  C16  1  0.65364800  0.00831800  0.74818000  1
  C  C17  1  0.65130600  0.99356300  0.19789300  1
  C  C18  1  0.43903500  0.54321500  0.69341500  1
  C  C19  1  0.43577200  0.44789000  0.68070100  1
  C  C20  1  0.50191100  0.59353800  0.53778800  1
  C  C21  1  0.49508500  0.40289300  0.51214700  1
  C  C22  1  0.56121900  0.54854300  0.36922400  1
  C  C23  1  0.55796500  0.45321900  0.35653700  1
  C  C24  1  0.50353300  0.69286100  0.54798100  1
  C  C25  1  0.49339900  0.30357300  0.50182500  1
  C  C26  1  0.52834100  0.62417700  0.02647300  1
  C  C27  1  0.52227300  0.40033700  0.99611800  1
  S  S1  1  0.64199800  0.61381400  0.16690800  1
  S  S2  1  0.63540400  0.39497700  0.13894500  1
  N  N1  1  0.14355000  0.03083600  0.73506800  1
  N  N2  1  0.49264500  0.22343000  0.49678400  1
  N  N3  1  0.50423300  0.77300900  0.55282100  1
  O  O1  1  0.38264400  0.91112400  0.36688100  1
  O  O2  1  0.37918100  0.07050900  0.34129700  1
  O  O3  1  0.37848300  0.08144300  0.76100100  1
  O  O4  1  0.38467500  0.92188300  0.78558300  1
  O  O5  1  0.61426000  0.08518700  0.68291100  1
  O  O6  1  0.61762000  0.92593900  0.70839300  1
  O  O7  1  0.61832500  0.91496900  0.28878200  1
  O  O8  1  0.61212600  0.07465800  0.26419800  1
