# generated using pymatgen
data_Cd2H19C29N5O8
_symmetry_space_group_name_H-M   'P 1'
_cell_length_a   18.65186100
_cell_length_b   18.82388600
_cell_length_c   18.80696000
_cell_angle_alpha   91.04776900
_cell_angle_beta   119.32541300
_cell_angle_gamma   119.29561200
_symmetry_Int_Tables_number   1
_chemical_formula_structural   Cd2H19C29N5O8
_chemical_formula_sum   'Cd4 H38 C58 N10 O16'
_cell_volume   4722.95943325
_cell_formula_units_Z   2
loop_
 _symmetry_equiv_pos_site_id
 _symmetry_equiv_pos_as_xyz
  1  'x, y, z'
loop_
 _atom_site_type_symbol
 _atom_site_label
 _atom_site_symmetry_multiplicity
 _atom_site_fract_x
 _atom_site_fract_y
 _atom_site_fract_z
 _atom_site_occupancy
  Cd  Cd1  1  0.82482900  0.86405700  0.46406500  1
  Cd  Cd2  1  0.17517100  0.13594200  0.53593500  1
  Cd  Cd3  1  0.89944900  0.03835900  0.36380800  1
  Cd  Cd4  1  0.10055100  0.96164100  0.63619200  1
  H  H1  1  0.61847400  0.79405000  0.09990200  1
  H  H2  1  0.38152600  0.20595000  0.90009900  1
  H  H3  1  0.21796800  0.27348500  0.69555000  1
  H  H4  1  0.78203200  0.72651500  0.30445000  1
  H  H5  1  0.41675000  0.51244400  0.94270200  1
  H  H6  1  0.58325000  0.48755600  0.05729800  1
  H  H7  1  0.68555100  0.58187300  0.20431700  1
  H  H8  1  0.31444900  0.41812600  0.79568300  1
  H  H9  1  0.47421000  0.34770100  0.00097500  1
  H  H10  1  0.52578900  0.65229900  0.99902500  1
  H  H11  1  0.19404900  0.40225500  0.51912500  1
  H  H12  1  0.80595100  0.59774400  0.48087500  1
  H  H13  1  0.13224300  0.70188300  0.53536400  1
  H  H14  1  0.86775600  0.29811700  0.46463600  1
  H  H15  1  0.08110400  0.80004300  0.52506200  1
  H  H16  1  0.91889500  0.19995700  0.47493800  1
  H  H17  1  0.49995700  0.00107500  0.63231700  1
  H  H18  1  0.50004300  0.99892500  0.36768300  1
  H  H19  1  0.68534300  0.98465300  0.61058700  1
  H  H20  1  0.31465700  0.01534700  0.38941300  1
  H  H21  1  0.78863700  0.98933100  0.56464100  1
  H  H22  1  0.21136300  0.01066900  0.43535900  1
  H  H23  1  0.19314700  0.16678100  0.28683500  1
  H  H24  1  0.80685200  0.83321900  0.71316500  1
  H  H25  1  0.14551600  0.12299800  0.14082600  1
  H  H26  1  0.85448400  0.87700200  0.85917400  1
  H  H27  1  0.13592600  0.10031300  0.93006700  1
  H  H28  1  0.86407400  0.89968700  0.06993400  1
  H  H29  1  0.08557600  0.05590200  0.78177300  1
  H  H30  1  0.91442400  0.94409700  0.21822700  1
  H  H31  1  0.40471100  0.94258000  0.70204200  1
  H  H32  1  0.47897800  0.05206100  0.74317300  1
  H  H33  1  0.59528900  0.05742000  0.29795800  1
  H  H34  1  0.52102100  0.94793900  0.25682700  1
  H  H35  1  0.22933600  0.54994300  0.57021000  1
  H  H36  1  0.17223400  0.51771900  0.46167700  1
  H  H37  1  0.77066400  0.45005700  0.42979000  1
  H  H38  1  0.82776600  0.48228100  0.53832400  1
  C  C1  1  0.90870000  0.76520600  0.49547000  1
  C  C2  1  0.09130000  0.23479400  0.50453100  1
  C  C3  1  0.08872500  0.08466700  0.35338900  1
  C  C4  1  0.91127500  0.91533300  0.64661100  1
  C  C5  1  0.76711000  0.85723800  0.26736700  1
  C  C6  1  0.23289000  0.14276200  0.73263300  1
  C  C7  1  0.23114100  0.99528300  0.58374000  1
  C  C8  1  0.76885900  0.00471600  0.41626000  1
  C  C9  1  0.70403700  0.76875100  0.20947900  1
  C  C10  1  0.29596300  0.23124800  0.79052100  1
  C  C11  1  0.63201400  0.74704100  0.12356400  1
  C  C12  1  0.36798600  0.25295900  0.87643600  1
  C  C13  1  0.57844300  0.66572700  0.06650200  1
  C  C14  1  0.42155600  0.33427300  0.93349800  1
  C  C15  1  0.59672700  0.60553700  0.09555800  1
  C  C16  1  0.40327300  0.39446200  0.90444200  1
  C  C17  1  0.66941700  0.62789900  0.18142800  1
  C  C18  1  0.33058300  0.37210100  0.81857200  1
  C  C19  1  0.72283800  0.70917800  0.23831800  1
  C  C20  1  0.27716100  0.29082100  0.76168300  1
  C  C21  1  0.54511000  0.51933600  0.03721400  1
  C  C22  1  0.45489000  0.48066400  0.96278600  1
  C  C23  1  0.94053600  0.70620600  0.50350500  1
  C  C24  1  0.05946400  0.29379300  0.49649500  1
  C  C25  1  0.87764900  0.62072500  0.49244200  1
  C  C26  1  0.12235100  0.37927500  0.50755800  1
  C  C27  1  0.90544800  0.56386100  0.49711100  1
  C  C28  1  0.09455200  0.43613800  0.50288900  1
  C  C29  1  0.99800100  0.59270300  0.51191500  1
  C  C30  1  0.00199800  0.40729600  0.48808500  1
  C  C31  1  0.06042300  0.67851600  0.52372200  1
  C  C32  1  0.93957600  0.32148400  0.47627800  1
  C  C33  1  0.03199900  0.73450500  0.51892000  1
  C  C34  1  0.96800100  0.26549500  0.48108000  1
  C  C35  1  0.70207800  0.99564300  0.44040500  1
  C  C36  1  0.29792100  0.00435600  0.55959500  1
  C  C37  1  0.62047300  0.99822300  0.38595300  1
  C  C38  1  0.37952700  0.00177700  0.61404800  1
  C  C39  1  0.56289100  0.99665600  0.41248100  1
  C  C40  1  0.43710900  0.00334400  0.58751900  1
  C  C41  1  0.58678100  0.99257500  0.49400100  1
  C  C42  1  0.41321900  0.00742400  0.50600000  1
  C  C43  1  0.66645900  0.98773300  0.54697700  1
  C  C44  1  0.33354100  0.01226700  0.45302300  1
  C  C45  1  0.72403900  0.98946400  0.52055000  1
  C  C46  1  0.27596100  0.01053600  0.47945000  1
  C  C47  1  0.94367100  0.94031200  0.73723800  1
  C  C48  1  0.05632900  0.05968800  0.26276200  1
  C  C49  1  0.87970000  0.89175100  0.76063400  1
  C  C50  1  0.12030000  0.10824900  0.23936600  1
  C  C51  1  0.90746800  0.91737800  0.84457000  1
  C  C52  1  0.09253200  0.08262200  0.15543000  1
  C  C53  1  0.00031600  0.99294100  0.90649700  1
  C  C54  1  0.99968400  0.00705800  0.09350300  1
  C  C55  1  0.06385400  0.04100700  0.88276400  1
  C  C56  1  0.93614500  0.95899200  0.11723600  1
  C  C57  1  0.03581500  0.01527600  0.79898000  1
  C  C58  1  0.96418500  0.98472300  0.20102000  1
  N  N1  1  0.03340800  0.53957400  0.51729000  1
  N  N2  1  0.96659200  0.46042600  0.48271000  1
  N  N3  1  0.53237600  0.99430100  0.52523600  1
  N  N4  1  0.46762400  0.00569900  0.47476400  1
  N  N5  1  0.03205300  0.02328900  0.99311400  1
  N  N6  1  0.96794600  0.97671100  0.00688700  1
  N  N7  1  0.40571400  0.99829100  0.69823700  1
  N  N8  1  0.59428500  0.00170900  0.30176300  1
  N  N9  1  0.16086600  0.52208200  0.51024200  1
  N  N10  1  0.83913400  0.47791700  0.48975800  1
  O  O1  1  0.96739700  0.84734500  0.51028300  1
  O  O2  1  0.03260300  0.15265500  0.48971700  1
  O  O3  1  0.81342000  0.73612500  0.45313400  1
  O  O4  1  0.18658000  0.26387500  0.54686600  1
  O  O5  1  0.03060600  0.04227500  0.37837200  1
  O  O6  1  0.96939400  0.95772500  0.62162800  1
  O  O7  1  0.18435300  0.13588700  0.41792400  1
  O  O8  1  0.81564700  0.86411200  0.58207600  1
  O  O9  1  0.83579700  0.88075200  0.34892500  1
  O  O10  1  0.16420200  0.11924800  0.65107500  1
  O  O11  1  0.78015900  0.92152100  0.23674200  1
  O  O12  1  0.21984100  0.07847800  0.76325800  1
  O  O13  1  0.16236800  0.00912000  0.54011700  1
  O  O14  1  0.83763200  0.99088000  0.45988300  1
  O  O15  1  0.21753200  0.95079500  0.63440600  1
  O  O16  1  0.78246800  0.04920500  0.36559400  1
