data_DB0-m3_o17_o25_f0_pcu.sym.33_repeat
_audit_creation_date              2024-02-23
_audit_creation_method            'Materials Studio'
_symmetry_space_group_name_H-M    'P1'
_symmetry_Int_Tables_number       1
_symmetry_cell_setting            triclinic
loop_
_symmetry_equiv_pos_as_xyz
  x,y,z
_cell_length_a                    16.0600
_cell_length_b                    15.1456
_cell_length_c                    13.8895
_cell_angle_alpha                 90.0054
_cell_angle_beta                  90.0023
_cell_angle_gamma                 89.9945
loop_
_atom_site_label
_atom_site_type_symbol
_atom_site_fract_x
_atom_site_fract_y
_atom_site_fract_z
_atom_site_U_iso_or_equiv
_atom_site_adp_type
_atom_site_occupancy
O1     O     0.50093   0.36591   0.57991   0.00000  Uiso   1.00
O2     O     0.49907   0.63409   0.42009   0.00000  Uiso   1.00
O3     O     0.50187   0.37108   0.41431   0.00000  Uiso   1.00
O4     O     0.49813   0.62891   0.58569   0.00000  Uiso   1.00
C1     C     0.50239   0.32678   0.49543   0.00000  Uiso   1.00
C2     C     0.49761   0.67322   0.50456   0.00000  Uiso   1.00
O5     O     0.37552   0.49589   0.58198   0.00000  Uiso   1.00
O6     O     0.62448   0.50410   0.41802   0.00000  Uiso   1.00
O7     O     0.37636   0.50127   0.41595   0.00000  Uiso   1.00
O8     O     0.62364   0.49873   0.58405   0.00000  Uiso   1.00
C3     C     0.33724   0.49821   0.49869   0.00000  Uiso   1.00
C4     C     0.66276   0.50179   0.50131   0.00000  Uiso   1.00
Zn1    Zn    0.49942   0.49696   0.60937   0.00000  Uiso   1.00
Zn2    Zn    0.50058   0.50304   0.39063   0.00000  Uiso   1.00
C5     C     0.97327   0.42711   0.54752   0.00000  Uiso   1.00
C6     C     0.02673   0.57289   0.45248   0.00000  Uiso   1.00
C7     C     0.02673   0.43023   0.45720   0.00000  Uiso   1.00
C8     C     0.97327   0.56977   0.54280   0.00000  Uiso   1.00
H1     H     0.95302   0.36706   0.58670   0.00000  Uiso   1.00
H2     H     0.04698   0.63294   0.41329   0.00000  Uiso   1.00
C9     C     0.24790   0.49876   0.49816   0.00000  Uiso   1.00
C10    C     0.75210   0.50124   0.50184   0.00000  Uiso   1.00
C11    C     0.02810   0.50070   0.58668   0.00000  Uiso   1.00
C12    C     0.97190   0.49930   0.41332   0.00000  Uiso   1.00
C13    C     0.08181   0.50161   0.49777   0.00000  Uiso   1.00
C14    C     0.91819   0.49839   0.50223   0.00000  Uiso   1.00
C15    C     0.17288   0.49983   0.49790   0.00000  Uiso   1.00
C16    C     0.82712   0.50017   0.50210   0.00000  Uiso   1.00
C17    C     0.46915   0.81961   0.58617   0.00000  Uiso   1.00
C18    C     0.53085   0.18039   0.41383   0.00000  Uiso   1.00
C19    C     0.49708   0.77073   0.50710   0.00000  Uiso   1.00
C20    C     0.50292   0.22927   0.49290   0.00000  Uiso   1.00
C21    C     0.52479   0.81523   0.42633   0.00000  Uiso   1.00
C22    C     0.47521   0.18477   0.57367   0.00000  Uiso   1.00
C23    C     0.52617   0.90611   0.42379   0.00000  Uiso   1.00
C24    C     0.47383   0.09389   0.57621   0.00000  Uiso   1.00
C25    C     0.49922   0.95434   0.50170   0.00000  Uiso   1.00
C26    C     0.50078   0.04566   0.49830   0.00000  Uiso   1.00
C27    C     0.47053   0.91126   0.58282   0.00000  Uiso   1.00
C28    C     0.52947   0.08874   0.41718   0.00000  Uiso   1.00
C29    C     0.55495   0.94873   0.34278   0.00000  Uiso   1.00
C30    C     0.44505   0.05127   0.65722   0.00000  Uiso   1.00
C31    C     0.55677   0.03950   0.33926   0.00000  Uiso   1.00
C32    C     0.44323   0.96050   0.66074   0.00000  Uiso   1.00
H3     H     0.54707   0.77905   0.36445   0.00000  Uiso   1.00
H4     H     0.45293   0.22095   0.63555   0.00000  Uiso   1.00
H5     H     0.57629   0.91121   0.28134   0.00000  Uiso   1.00
H6     H     0.42371   0.08878   0.71866   0.00000  Uiso   1.00
H7     H     0.57962   0.07018   0.27425   0.00000  Uiso   1.00
H8     H     0.42037   0.92982   0.72575   0.00000  Uiso   1.00
C33    C     0.44455   0.54687   0.80045   0.00000  Uiso   1.00
C34    C     0.55545   0.45313   0.19955   0.00000  Uiso   1.00
N1     N     0.49859   0.49449   0.75334   0.00000  Uiso   1.00
N2     N     0.50141   0.50551   0.24666   0.00000  Uiso   1.00
C35    C     0.55327   0.44377   0.80171   0.00000  Uiso   1.00
C36    C     0.44673   0.55623   0.19829   0.00000  Uiso   1.00
C37    C     0.55521   0.44518   0.90152   0.00000  Uiso   1.00
C38    C     0.44479   0.55482   0.09848   0.00000  Uiso   1.00
C39    C     0.49990   0.49861   0.95042   0.00000  Uiso   1.00
C40    C     0.50010   0.50138   0.04958   0.00000  Uiso   1.00
C41    C     0.44437   0.54958   0.89961   0.00000  Uiso   1.00
C42    C     0.55563   0.45042   0.10039   0.00000  Uiso   1.00
C43    C     0.61145   0.39396   0.95283   0.00000  Uiso   1.00
C44    C     0.38855   0.60603   0.04717   0.00000  Uiso   1.00
C45    C     0.61106   0.39662   0.05235   0.00000  Uiso   1.00
C46    C     0.38894   0.60338   0.94765   0.00000  Uiso   1.00
H9     H     0.40154   0.58734   0.76007   0.00000  Uiso   1.00
H10    H     0.59846   0.41266   0.23993   0.00000  Uiso   1.00
H11    H     0.59559   0.40275   0.76110   0.00000  Uiso   1.00
H12    H     0.40441   0.59724   0.23890   0.00000  Uiso   1.00
H13    H     0.65447   0.35711   0.09337   0.00000  Uiso   1.00
H14    H     0.34553   0.64289   0.90663   0.00000  Uiso   1.00
N3     N     0.05700   0.35342   0.40549   0.00000  Uiso   1.00
H15    H     0.00520   0.31601   0.38553   0.00000  Uiso   1.00
H16    H     0.09209   0.31587   0.45373   0.00000  Uiso   1.00
N4     N     0.94300   0.64658   0.59451   0.00000  Uiso   1.00
H17    H     0.99479   0.68399   0.61447   0.00000  Uiso   1.00
H18    H     0.90791   0.68413   0.54627   0.00000  Uiso   1.00
N5     N     0.66972   0.33882   0.90379   0.00000  Uiso   1.00
H19    H     0.71298   0.37985   0.86989   0.00000  Uiso   1.00
H20    H     0.70193   0.30115   0.95445   0.00000  Uiso   1.00
N6     N     0.33028   0.66118   0.09621   0.00000  Uiso   1.00
H21    H     0.28703   0.62015   0.13011   0.00000  Uiso   1.00
H22    H     0.29807   0.69885   0.04555   0.00000  Uiso   1.00
N7     N     0.94002   0.49488   0.31570   0.00000  Uiso   1.00
H23    H     0.99111   0.49613   0.26923   0.00000  Uiso   1.00
H24    H     0.90535   0.55213   0.30363   0.00000  Uiso   1.00
N8     N     0.05997   0.50512   0.68430   0.00000  Uiso   1.00
H25    H     0.00889   0.50387   0.73077   0.00000  Uiso   1.00
H26    H     0.09465   0.44787   0.69637   0.00000  Uiso   1.00
N9     N     0.43593   0.77777   0.66986   0.00000  Uiso   1.00
H27    H     0.48338   0.74422   0.70588   0.00000  Uiso   1.00
H28    H     0.38811   0.73495   0.64954   0.00000  Uiso   1.00
N10    N     0.56407   0.22223   0.33014   0.00000  Uiso   1.00
H29    H     0.51662   0.25578   0.29412   0.00000  Uiso   1.00
H30    H     0.61190   0.26505   0.35046   0.00000  Uiso   1.00
