# generated using pymatgen
data_Zn2H14C26N2O9
_symmetry_space_group_name_H-M   'P 1'
_cell_length_a   11.10550500
_cell_length_b   9.26332400
_cell_length_c   8.59339600
_cell_angle_alpha   90.00000000
_cell_angle_beta   102.45448900
_cell_angle_gamma   90.00000000
_symmetry_Int_Tables_number   1
_chemical_formula_structural   Zn2H14C26N2O9
_chemical_formula_sum   'Zn2 H14 C26 N2 O9'
_cell_volume   863.23261101
_cell_formula_units_Z   1
loop_
 _symmetry_equiv_pos_site_id
 _symmetry_equiv_pos_as_xyz
  1  'x, y, z'
loop_
 _atom_site_type_symbol
 _atom_site_label
 _atom_site_symmetry_multiplicity
 _atom_site_fract_x
 _atom_site_fract_y
 _atom_site_fract_z
 _atom_site_occupancy
  Zn  Zn1  1  0.51139400  0.84190300  0.50176700  1
  Zn  Zn2  1  0.50208800  0.16085000  0.49987700  1
  H  H1  1  0.42172200  0.99160000  0.98953900  1
  H  H2  1  0.09035600  0.96969600  0.64062200  1
  H  H3  1  0.59711400  0.07233700  0.01295000  1
  H  H4  1  0.90888600  0.94588300  0.35867200  1
  H  H5  1  0.89814200  0.97975800  0.71843200  1
  H  H6  1  0.69403800  0.35725900  0.53916900  1
  H  H7  1  0.70651200  0.62299200  0.54226500  1
  H  H8  1  0.24480400  0.65477600  0.55359500  1
  H  H9  1  0.23169600  0.39673000  0.55875600  1
  H  H10  1  0.23663500  0.65023100  0.33157600  1
  H  H11  1  0.22196500  0.38959000  0.33487900  1
  H  H12  1  0.06756500  0.22253000  0.29956900  1
  H  H13  1  0.17745200  0.17672100  0.48166100  1
  H  H14  1  0.01727900  0.13467300  0.45956200  1
  C  C1  1  0.25985000  0.99145600  0.07841600  1
  C  C2  1  0.32360200  0.99241500  0.95807400  1
  C  C3  1  0.26563500  0.99015000  0.80035800  1
  C  C4  1  0.13853700  0.97775400  0.76286400  1
  C  C5  1  0.07202200  0.97497100  0.88276200  1
  C  C6  1  0.13219800  0.97965500  0.04187600  1
  C  C7  1  0.94446500  0.97580100  0.84258200  1
  C  C8  1  0.87715900  0.98398600  0.96034600  1
  C  C9  1  0.93636500  0.97647400  0.11855600  1
  C  C10  1  0.06345900  0.97556900  0.15943500  1
  C  C11  1  0.75170200  0.00916000  0.92338700  1
  C  C12  1  0.69071900  0.03694900  0.04354900  1
  C  C13  1  0.74484000  0.00847300  0.19969300  1
  C  C14  1  0.86797000  0.97325200  0.23673000  1
  C  C15  1  0.67808400  0.00602400  0.76107700  1
  C  C16  1  0.34291100  0.99599200  0.67993900  1
  C  C17  1  0.33518000  0.99659200  0.24013600  1
  C  C18  1  0.66832400  0.00594500  0.31994100  1
  C  C19  1  0.40109500  0.43717500  0.48113800  1
  C  C20  1  0.40836100  0.57871000  0.48058600  1
  C  C21  1  0.61001000  0.41974100  0.52202700  1
  C  C22  1  0.61738900  0.57105700  0.52387600  1
  C  C23  1  0.27389500  0.60353000  0.45105300  1
  C  C24  1  0.26483000  0.43471000  0.45313500  1
  C  C25  1  0.11992000  0.00202600  0.32587300  1
  C  C26  1  0.09397600  0.14230900  0.39655400  1
  N  N1  1  0.49983200  0.35078900  0.49975200  1
  N  N2  1  0.51398200  0.65220300  0.50221900  1
  O  O1  1  0.63246300  0.12840000  0.69831100  1
  O  O2  1  0.64137600  0.87962000  0.69941800  1
  O  O3  1  0.38691700  0.87405500  0.63748100  1
  O  O4  1  0.37898000  0.12264600  0.63640000  1
  O  O5  1  0.38109200  0.87398200  0.30271500  1
  O  O6  1  0.37072200  0.12353000  0.30278000  1
  O  O7  1  0.62483600  0.12839600  0.36216300  1
  O  O8  1  0.63458000  0.87993300  0.36615900  1
  O  O9  1  0.17698500  0.90709400  0.40851900  1
