# generated using pymatgen
data_ZnH13C16NO4
_symmetry_space_group_name_H-M   'P 1'
_cell_length_a   8.94871900
_cell_length_b   15.17507200
_cell_length_c   14.01446300
_cell_angle_alpha   90.00494000
_cell_angle_beta   97.72222000
_cell_angle_gamma   89.99785000
_symmetry_Int_Tables_number   1
_chemical_formula_structural   ZnH13C16NO4
_chemical_formula_sum   'Zn2 H26 C32 N2 O8'
_cell_volume   1885.86924283
_cell_formula_units_Z   2
loop_
 _symmetry_equiv_pos_site_id
 _symmetry_equiv_pos_as_xyz
  1  'x, y, z'
loop_
 _atom_site_type_symbol
 _atom_site_label
 _atom_site_symmetry_multiplicity
 _atom_site_fract_x
 _atom_site_fract_y
 _atom_site_fract_z
 _atom_site_occupancy
  Zn  Zn1  1  0.50664800  0.50011400  0.60846400  1
  Zn  Zn2  1  0.49340100  0.49953100  0.39040900  1
  H  H1  1  0.57431200  0.06236300  0.65039900  1
  H  H2  1  0.56433300  0.94096700  0.35640300  1
  H  H3  1  0.55631100  0.22096700  0.65068900  1
  H  H4  1  0.57111900  0.78131600  0.35600400  1
  H  H5  1  0.40737000  0.21892100  0.34798900  1
  H  H6  1  0.46432200  0.77818500  0.64411900  1
  H  H7  1  0.41445100  0.05935900  0.34826900  1
  H  H8  1  0.44645800  0.93667600  0.64266200  1
  H  H9  1  0.69558200  0.41957700  0.08616300  1
  H  H10  1  0.41665500  0.63111500  0.92519700  1
  H  H11  1  0.68244900  0.41927000  0.25825900  1
  H  H12  1  0.42182100  0.62889300  0.75203400  1
  H  H13  1  0.29433900  0.57789700  0.21851900  1
  H  H14  1  0.59988100  0.37219200  0.76850200  1
  H  H15  1  0.29621900  0.57755400  0.04489300  1
  H  H16  1  0.59094000  0.36824100  0.94127800  1
  H  H17  1  0.15078600  0.68309300  0.44794000  1
  H  H18  1  0.14330000  0.63892400  0.32639800  1
  H  H19  1  0.01181800  0.72143400  0.35214800  1
  H  H20  1  0.91113300  0.56253400  0.33744600  1
  H  H21  1  0.87990600  0.62832200  0.44105500  1
  H  H22  1  0.86525100  0.37219000  0.68656500  1
  H  H23  1  0.84251600  0.32051200  0.56761800  1
  H  H24  1  0.98794800  0.28494200  0.66069700  1
  H  H25  1  0.11497800  0.36956300  0.55942200  1
  H  H26  1  0.09643300  0.44112000  0.66093600  1
  C  C1  1  0.48030800  0.32773700  0.49910600  1
  C  C2  1  0.51951100  0.67191900  0.49980200  1
  C  C3  1  0.20553800  0.51241200  0.48015700  1
  C  C4  1  0.79440900  0.48713100  0.51892900  1
  C  C5  1  0.04063600  0.52340700  0.47164300  1
  C  C6  1  0.95928700  0.47647800  0.52810800  1
  C  C7  1  0.53286400  0.09530200  0.58381700  1
  C  C8  1  0.53904100  0.90613700  0.41946500  1
  C  C9  1  0.52388100  0.18595600  0.58397600  1
  C  C10  1  0.54492900  0.81523500  0.41951300  1
  C  C11  1  0.48008800  0.23121200  0.49941900  1
  C  C12  1  0.51950000  0.76845400  0.50025500  1
  C  C13  1  0.44291500  0.18476300  0.41485700  1
  C  C14  1  0.48751100  0.81339600  0.58072500  1
  C  C15  1  0.44896700  0.09389200  0.41494300  1
  C  C16  1  0.47865100  0.90403000  0.58009200  1
  C  C17  1  0.49529600  0.04832100  0.49933900  1
  C  C18  1  0.50459000  0.95136500  0.49954800  1
  C  C19  1  0.60359300  0.45346900  0.11294700  1
  C  C20  1  0.45572000  0.57254200  0.89243300  1
  C  C21  1  0.59731800  0.45404600  0.21064600  1
  C  C22  1  0.46086600  0.57196900  0.79454500  1
  C  C23  1  0.38180500  0.54255100  0.18867600  1
  C  C24  1  0.56037000  0.42932800  0.80374300  1
  C  C25  1  0.38438900  0.54319300  0.09041700  1
  C  C26  1  0.55641200  0.42755500  0.90178400  1
  C  C27  1  0.49668400  0.49864100  0.05153200  1
  C  C28  1  0.50303800  0.49959100  0.94720900  1
  C  C29  1  0.96554400  0.59303200  0.40525600  1
  C  C30  1  0.07631700  0.66292800  0.38182700  1
  C  C31  1  0.03504900  0.40847300  0.59649700  1
  C  C32  1  0.92407200  0.34307800  0.62942100  1
  N  N1  1  0.48785000  0.49851500  0.24721700  1
  N  N2  1  0.51257500  0.50091100  0.75167000  1
  O  O1  1  0.49047100  0.36899200  0.58196700  1
  O  O2  1  0.51046000  0.63069200  0.41684900  1
  O  O3  1  0.47826800  0.36872900  0.41651600  1
  O  O4  1  0.52055700  0.63091600  0.58227200  1
  O  O5  1  0.28154200  0.50888800  0.56680200  1
  O  O6  1  0.71848900  0.49019500  0.43219800  1
  O  O7  1  0.27039500  0.50934400  0.40137200  1
  O  O8  1  0.72957100  0.49078100  0.59746700  1
