# generated using pymatgen
data_ZnH3C15NO4F9
_symmetry_space_group_name_H-M   'P 1'
_cell_length_a   9.28289400
_cell_length_b   13.48405200
_cell_length_c   8.55008900
_cell_angle_alpha   90.00000000
_cell_angle_beta   90.01053500
_cell_angle_gamma   90.00000000
_symmetry_Int_Tables_number   1
_chemical_formula_structural   ZnH3C15NO4F9
_chemical_formula_sum   'Zn2 H6 C30 N2 O8 F18'
_cell_volume   1070.22338936
_cell_formula_units_Z   2
loop_
 _symmetry_equiv_pos_site_id
 _symmetry_equiv_pos_as_xyz
  1  'x, y, z'
loop_
 _atom_site_type_symbol
 _atom_site_label
 _atom_site_symmetry_multiplicity
 _atom_site_fract_x
 _atom_site_fract_y
 _atom_site_fract_z
 _atom_site_occupancy
  Zn  Zn1  1  0.83894600  0.49651200  0.49854300  1
  Zn  Zn2  1  0.16109500  0.50339100  0.50144400  1
  H  H1  1  0.98292700  0.16077800  0.74979100  1
  H  H2  1  0.01729200  0.83911500  0.25016900  1
  H  H3  1  0.99507300  0.16380500  0.24991400  1
  H  H4  1  0.00513700  0.83609000  0.75007000  1
  H  H5  1  0.04662800  0.43015100  0.99357800  1
  H  H6  1  0.95365700  0.56970800  0.00636700  1
  C  C1  1  0.00484100  0.30296500  0.85753800  1
  C  C2  1  0.99524000  0.69693300  0.14244200  1
  C  C3  1  0.01263100  0.30494100  0.13716700  1
  C  C4  1  0.98743700  0.69495800  0.86282700  1
  C  C5  1  0.99144100  0.20124700  0.85853700  1
  C  C6  1  0.00877800  0.79864400  0.14142800  1
  C  C7  1  0.99918100  0.20298900  0.13970000  1
  C  C8  1  0.00102300  0.79690600  0.86028200  1
  C  C9  1  0.99528200  0.15103100  0.99972300  1
  C  C10  1  0.00500500  0.84886500  0.00024700  1
  C  C11  1  0.02486600  0.35239500  0.99599200  1
  C  C12  1  0.97522300  0.64749500  0.00399300  1
  C  C13  1  0.99799500  0.04461200  0.00019800  1
  C  C14  1  0.00222500  0.95528400  0.99977100  1
  C  C15  1  0.54466900  0.43962900  0.39850700  1
  C  C16  1  0.45535500  0.56029000  0.60144700  1
  C  C17  1  0.44383600  0.41774200  0.53090800  1
  C  C18  1  0.55617900  0.58216500  0.46903700  1
  C  C19  1  0.44844000  0.52733400  0.37161700  1
  C  C20  1  0.55156700  0.47257500  0.62835500  1
  C  C21  1  0.00170900  0.36203300  0.71436000  1
  C  C22  1  0.99834000  0.63787400  0.28562900  1
  C  C23  1  0.00858600  0.36621100  0.27870000  1
  C  C24  1  0.99147000  0.63368200  0.72130200  1
  C  C25  1  0.58373800  0.36472100  0.27185400  1
  C  C26  1  0.41631900  0.63533000  0.72792900  1
  C  C27  1  0.39341400  0.31341700  0.57662600  1
  C  C28  1  0.60661400  0.68646100  0.42316500  1
  C  C29  1  0.40011400  0.56515100  0.21181700  1
  C  C30  1  0.59983500  0.43484800  0.78822500  1
  N  N1  1  0.35120200  0.50561200  0.50378800  1
  N  N2  1  0.64882800  0.49430000  0.49618100  1
  O  O1  1  0.12388500  0.40044600  0.66747800  1
  O  O2  1  0.87617400  0.59944700  0.33249500  1
  O  O3  1  0.88252900  0.39782500  0.32763500  1
  O  O4  1  0.11752700  0.60206200  0.67238000  1
  O  O5  1  0.87590200  0.38992200  0.65874900  1
  O  O6  1  0.12412500  0.60999200  0.34126000  1
  O  O7  1  0.13072500  0.39979100  0.33484700  1
  O  O8  1  0.86931800  0.60012000  0.66513400  1
  F  F1  1  0.66190900  0.40977400  0.15422300  1
  F  F2  1  0.45812800  0.32692100  0.20878100  1
  F  F3  1  0.66303300  0.28750200  0.33395100  1
  F  F4  1  0.33829100  0.59043100  0.84581700  1
  F  F5  1  0.33690800  0.71244500  0.66570300  1
  F  F6  1  0.54197300  0.67325000  0.79070100  1
  F  F7  1  0.34989600  0.31128700  0.73091500  1
  F  F8  1  0.50610700  0.24749000  0.56074200  1
  F  F9  1  0.28254700  0.28171200  0.48203100  1
  F  F10  1  0.65012400  0.68849100  0.26887200  1
  F  F11  1  0.71752100  0.71817600  0.51768900  1
  F  F12  1  0.49397400  0.75244500  0.43896600  1
  F  F13  1  0.51464900  0.56239400  0.10939000  1
  F  F14  1  0.35462000  0.66240800  0.22240000  1
  F  F15  1  0.29089100  0.50649000  0.15314800  1
  F  F16  1  0.70905000  0.49355500  0.84679700  1
  F  F17  1  0.64530700  0.33758400  0.77779600  1
  F  F18  1  0.48528200  0.43764900  0.89064200  1
