# Generated by REPEAT Assigner based on pymatgen
data_DB0-m29_o89_o102_f0_pts.sym.4
_audit_creation_date              2022-05-24
_audit_creation_method            REPEAT_Assigner
_cell_length_a                    14.202910
_cell_length_b                    14.438934
_cell_length_c                    11.427178
_cell_angle_alpha                 94.403711
_cell_angle_beta                  94.243212
_cell_angle_gamma                 109.354235
_cell_volume                      2192.116680
_symmetry_space_group_name_H-M    P1
_symmetry_Int_Tables_number       1
loop_
    _symmetry_equiv_pos_site_id
    _symmetry_equiv_pos_as_xyz
    1  x,y,z
loop_
    _atom_site_type_symbol
    _atom_site_label
    _atom_site_fract_x
    _atom_site_fract_y
    _atom_site_fract_z
    _atom_type_partial_charge
    C   C1   0.844474  0.000603  0.145543  -0.177947
    C   C2   0.752148  0.999048  0.095205  0.002387
    C   C3   0.737767  0.001195  0.973221  0.035971
    C   C4   0.815337  0.003918  0.905972  -0.210638
    C   C5   0.905419  0.001010  0.956615  0.177929
    C   C6   0.920932  0.000072  0.076875  0.116484
    C   C7   0.979752  0.998908  0.886248  -0.300184
    C   C8   0.070173  0.995749  0.935504  0.204458
    C   C9   0.086799  0.995370  0.055691  0.154160
    C   C10  0.012845  0.999253  0.127241  -0.201057
    C   C11  0.144401  0.994803  0.864080  -0.225904
    C   C12  0.237603  0.996091  0.911471  0.005917
    C   C13  0.253481  0.994188  0.033157  0.082814
    C   C14  0.177947  0.991958  0.103120  -0.292071
    H   H1   0.855000  0.000650  0.239799  0.119189
    H   H2   0.803381  0.003474  0.811386  0.171179
    H   H3   0.967018  0.999776  0.791968  0.155768
    H   H4   0.129030  0.994559  0.770152  0.163309
    H   H5   0.194579  0.991416  0.196656  0.176587
    N   N1   0.002625  0.936518  0.324386  -0.242218
    C   C15  0.034485  0.975900  0.436900  -0.210529
    C   C16  0.087067  0.075458  0.439190  0.284109
    C   C17  0.087452  0.097590  0.324130  -0.407325
    C   C18  0.034633  0.010142  0.255778  0.347757
    H   H6   0.960293  0.863059  0.295887  0.307522
    H   H7   0.019606  0.934700  0.512551  0.155743
    H   H8   0.121010  0.169152  0.293734  0.184073
    O   O1   0.589657  0.007684  0.135943  -0.466594
    C   C19  0.673994  0.996727  0.174753  0.548782
    O   O2   0.495673  0.801050  0.225523  -0.523404
    O   O3   0.689141  0.984805  0.286427  -0.520082
    O   O4   0.484836  0.903384  0.379837  -0.482088
    C   C20  0.489542  0.817519  0.338782  0.544878
    Fe  Fe1  0.495671  0.995715  0.257906  1.439482
    O   O5   0.356567  0.943515  0.173421  -0.600833
    O   O6   0.427778  0.083830  0.089216  -0.492231
    C   C21  0.350581  0.003835  0.094929  0.614544
    O   O7   0.547138  0.132784  0.342200  -0.597391
    O   O8   0.393653  0.072289  0.407705  -0.521789
    C   C22  0.478104  0.145403  0.405545  0.591385
    O   O9   0.437904  0.869843  0.657624  -0.608810
    O   O10  0.595962  0.921366  0.602909  -0.532672
    C   C23  0.507587  0.852560  0.598903  0.694176
    O   O11  0.635404  0.050438  0.828957  -0.588680
    O   O12  0.561040  0.916441  0.922785  -0.497949
    C   C24  0.640720  0.991815  0.909917  0.598125
    O   O13  0.295859  0.003508  0.717605  -0.510961
    O   O14  0.510267  0.100820  0.627617  -0.500000
    C   C25  0.495175  0.182048  0.667051  0.536542
    O   O15  0.403165  0.995078  0.869724  -0.464499
    C   C26  0.315042  0.998158  0.830511  0.525838
    O   O16  0.481047  0.195534  0.778353  -0.528418
    Fe  Fe2  0.495632  0.005244  0.746092  1.435642
    C   C27  0.483898  0.647898  0.365160  -0.314519
    C   C28  0.488063  0.739271  0.417155  0.117166
    C   C29  0.491782  0.754141  0.539841  -0.166844
    C   C30  0.491420  0.677604  0.608014  0.169008
    C   C31  0.490188  0.587198  0.553766  -0.056491
    C   C32  0.486154  0.572103  0.432241  0.256326
    C   C33  0.494115  0.511585  0.620306  -0.157851
    C   C34  0.494554  0.422970  0.567556  0.081682
    C   C35  0.490813  0.407258  0.446986  0.282663
    C   C36  0.485433  0.481494  0.378601  -0.279335
    C   C37  0.497467  0.349766  0.637433  -0.206626
    C   C38  0.494768  0.258476  0.588152  -0.003275
    C   C39  0.491192  0.242281  0.466107  0.170909
    C   C40  0.490565  0.316499  0.396839  -0.385770
    H   H9   0.480812  0.637652  0.270467  0.136596
    H   H10  0.497118  0.518748  0.715084  0.148228
    H   H11  0.501163  0.364320  0.731972  0.170935
    H   H12  0.485898  0.299257  0.302555  0.165366
    C   C41  0.382344  0.428587  0.186785  0.451706
    H   H13  0.315637  0.414266  0.232163  0.038532
    N   N2   0.374372  0.413306  0.068379  -0.723957
    C   C42  0.457108  0.431326  0.011166  0.803686
    H   H14  0.449537  0.419020  0.916038  -0.041410
    N   N3   0.549107  0.464805  0.071621  -0.751805
    C   C43  0.559777  0.480886  0.190130  0.530142
    H   H15  0.633820  0.508079  0.238103  0.020843
    C   C44  0.475858  0.463010  0.249850  -0.107154
    C   C45  0.496940  0.692210  0.740666  -0.204459
    H   H16  0.496773  0.764506  0.777677  0.100719
    H   H17  0.430760  0.637024  0.770863  0.080063
    H   H18  0.567125  0.683974  0.780113  0.046545
    C   C46  0.133228  0.146677  0.545585  -0.395822
    H   H19  0.100162  0.206343  0.548397  0.101540
    H   H20  0.118595  0.108196  0.625989  0.121545
    H   H21  0.215336  0.179057  0.541715  0.130644
