# Generated by REPEAT Assigner based on pymatgen
data_DB0-m15_o14_o137_f0_fsc
_audit_creation_date              2022-05-24
_audit_creation_method            REPEAT_Assigner
_cell_length_a                    6.697663
_cell_length_b                    9.229842
_cell_length_c                    16.123570
_cell_angle_alpha                 96.136949
_cell_angle_beta                  98.561367
_cell_angle_gamma                 90.061647
_cell_volume                      979.831376
_symmetry_space_group_name_H-M    P1
_symmetry_Int_Tables_number       1
loop_
    _symmetry_equiv_pos_site_id
    _symmetry_equiv_pos_as_xyz
    1  x,y,z
loop_
    _atom_site_type_symbol
    _atom_site_label
    _atom_site_fract_x
    _atom_site_fract_y
    _atom_site_fract_z
    _atom_type_partial_charge
    Co  Co1  0.997212  0.146237  0.005460  0.784960
    Co  Co2  0.006505  0.856542  0.002999  0.767275
    O   O1   0.243856  0.143542  0.094318  -0.686807
    O   O2   0.749611  0.106348  0.916931  -0.540179
    O   O3   0.163769  0.112882  0.911358  -0.633671
    O   O4   0.821516  0.136228  0.096010  -0.548699
    O   O5   0.761369  0.858500  0.912914  -0.534194
    O   O6   0.250733  0.897140  0.092626  -0.683068
    O   O7   0.178976  0.867288  0.911103  -0.636955
    O   O8   0.828994  0.888938  0.093169  -0.563049
    C   C1   0.326495  0.026494  0.122843  0.950487
    C   C2   0.675733  0.976230  0.885683  0.669351
    C   C3   0.231957  0.987576  0.883116  0.810031
    C   C4   0.765573  0.015349  0.122905  0.621619
    H   H1   0.731658  0.648134  0.049886  0.154321
    C   C5   0.346291  0.637371  0.973042  -0.120576
    H   H2   0.364935  0.753695  0.981938  0.141183
    C   C6   0.502839  0.555086  0.948338  -0.113262
    H   H3   0.631257  0.607219  0.929670  0.106604
    C   C7   0.499598  0.406960  0.951159  -0.092057
    H   H4   0.624828  0.342117  0.934272  0.110652
    C   C8   0.340128  0.342515  0.978953  -0.063331
    H   H5   0.354721  0.231814  0.993800  0.106659
    C   C9   0.169344  0.421274  0.991174  0.053184
    C   C10  0.172688  0.570466  0.988581  0.072478
    N   N1   0.010473  0.649526  0.004420  0.051771
    C   C11  0.853633  0.583498  0.029524  -0.093745
    H   H6   0.725582  0.382823  0.053751  0.139523
    C   C12  0.849936  0.434272  0.031649  -0.118159
    N   N2   0.003801  0.353842  0.008586  0.058273
    C   C13  0.324515  0.979141  0.806907  0.017190
    C   C14  0.198425  0.988553  0.732083  -0.289901
    H   H7   0.039833  0.003143  0.733973  0.200414
    C   C15  0.271932  0.976951  0.656358  0.206497
    C   C16  0.475103  0.952533  0.656115  -0.217898
    H   H8   0.537230  0.943269  0.597754  0.145315
    C   C17  0.602780  0.946577  0.731312  -0.028425
    H   H9   0.762354  0.932584  0.730661  0.072502
    C   C18  0.529795  0.962817  0.807452  -0.130868
    C   C19  0.191726  0.943915  0.500585  -0.086567
    C   C20  0.061583  0.956047  0.426848  -0.072628
    C   C21  0.872737  0.015520  0.429200  -0.056627
    C   C22  0.816023  0.062735  0.506282  -0.067872
    C   C23  0.946072  0.050624  0.579956  -0.095623
    C   C24  0.134529  0.990560  0.577670  -0.036265
    C   C25  0.530775  0.051666  0.351813  -0.216687
    H   H10  0.469914  0.061076  0.410446  0.144890
    C   C26  0.401319  0.056859  0.277087  0.001909
    H   H11  0.241973  0.070699  0.278396  0.052505
    C   C27  0.472568  0.040364  0.200644  -0.180115
    C   C28  0.676871  0.023751  0.200074  0.016257
    C   C29  0.805236  0.015207  0.274483  -0.268809
    H   H12  0.963533  0.000329  0.271920  0.217720
    C   C30  0.733850  0.027809  0.350732  0.198661
    H   H13  0.337052  0.895010  0.497273  0.081219
    H   H14  0.108365  0.915432  0.367625  0.065898
    H   H15  0.671002  0.111949  0.509755  0.075514
    H   H16  0.899214  0.091638  0.639082  0.081176
