# generated using pymatgen
data_Cu3H27C54O12F
_symmetry_space_group_name_H-M   'P 1'
_cell_length_a   21.51161800
_cell_length_b   21.60258100
_cell_length_c   20.96368300
_cell_angle_alpha   121.00067200
_cell_angle_beta   120.86266000
_cell_angle_gamma   90.00188100
_symmetry_Int_Tables_number   1
_chemical_formula_structural   Cu3H27C54O12F
_chemical_formula_sum   'Cu6 H54 C108 O24 F2'
_cell_volume   6689.80843474
_cell_formula_units_Z   2
loop_
 _symmetry_equiv_pos_site_id
 _symmetry_equiv_pos_as_xyz
  1  'x, y, z'
loop_
 _atom_site_type_symbol
 _atom_site_label
 _atom_site_symmetry_multiplicity
 _atom_site_fract_x
 _atom_site_fract_y
 _atom_site_fract_z
 _atom_site_occupancy
  Cu  Cu1  1  0.99334800  0.42683000  0.49908900  1
  Cu  Cu2  1  0.99545600  0.54576400  0.49530300  1
  Cu  Cu3  1  0.44902000  0.45438600  0.40608200  1
  Cu  Cu4  1  0.54097800  0.54517800  0.58822900  1
  Cu  Cu5  1  0.56076100  0.00139300  0.49987100  1
  Cu  Cu6  1  0.43526500  0.99898900  0.49661200  1
  H  H1  1  0.91440500  0.20594000  0.08648200  1
  H  H2  1  0.96484400  0.20857700  0.22329400  1
  H  H3  1  0.08346500  0.31377200  0.37458500  1
  H  H4  1  0.10060900  0.41548000  0.25298200  1
  H  H5  1  0.98233100  0.30971300  0.10173700  1
  H  H6  1  0.23301400  0.40299900  0.35371500  1
  H  H7  1  0.25268500  0.56990700  0.63855000  1
  H  H8  1  0.38655600  0.55819300  0.74055900  1
  H  H9  1  0.50501100  0.66391700  0.89204600  1
  H  H10  1  0.57232500  0.76859700  0.90799000  1
  H  H11  1  0.52009500  0.76808000  0.77222500  1
  H  H12  1  0.40116800  0.66314300  0.62094000  1
  H  H13  1  0.02029400  0.45650300  0.80669500  1
  H  H14  1  0.93741800  0.34902700  0.64177700  1
  H  H15  1  0.83753100  0.36557600  0.52861000  1
  H  H16  1  0.90722000  0.60171000  0.74550600  1
  H  H17  1  0.73998000  0.50127400  0.61338500  1
  H  H18  1  0.75355500  0.50232900  0.38722500  1
  H  H19  1  0.60799300  0.40988800  0.24955000  1
  H  H20  1  0.50433000  0.42158000  0.13370000  1
  H  H21  1  0.46008300  0.53097400  0.18310600  1
  H  H22  1  0.52079500  0.62941100  0.34902200  1
  H  H23  1  0.62477100  0.61832400  0.46531000  1
  H  H24  1  0.14607700  0.47015200  0.19167100  1
  H  H25  1  0.21087700  0.50181900  0.13834800  1
  H  H26  1  0.34037500  0.60287200  0.25202100  1
  H  H27  1  0.34082800  0.63996100  0.47257900  1
  H  H28  1  0.21088800  0.54026700  0.35905800  1
  H  H29  1  0.37711300  0.75724600  0.39207300  1
  H  H30  1  0.61218600  0.74156100  0.60581100  1
  H  H31  1  0.69001100  0.79451800  0.56320800  1
  H  H32  1  0.82041900  0.89346100  0.67513700  1
  H  H33  1  0.84678900  0.02421900  0.80094100  1
  H  H34  1  0.74288300  0.05557400  0.81518200  1
  H  H35  1  0.61178800  0.95713200  0.70267800  1
  H  H36  1  0.44023000  0.15227300  0.15012500  1
  H  H37  1  0.41892600  0.15653800  0.25568000  1
  H  H38  1  0.63433100  0.34436100  0.48773600  1
  H  H39  1  0.65660900  0.34071900  0.38315800  1
  H  H40  1  0.52009900  0.14190100  0.39917500  1
  H  H41  1  0.48126200  0.36261100  0.60013900  1
  H  H42  1  0.36445200  0.26468000  0.55771300  1
  H  H43  1  0.34460100  0.27463100  0.66746300  1
  H  H44  1  0.44444900  0.27068600  0.79403900  1
  H  H45  1  0.56451800  0.25768600  0.81128400  1
  H  H46  1  0.58460500  0.24694700  0.70121600  1
  H  H47  1  0.12228200  0.57514200  0.91725800  1
  H  H48  1  0.20124700  0.67979800  0.08328300  1
  H  H49  1  0.00874500  0.75058500  0.04977400  1
  H  H50  1  0.92752600  0.64421800  0.88422200  1
  H  H51  1  0.44385500  0.22737200  0.09936900  1
  H  H52  1  0.46525500  0.22594800  0.99508600  1
  H  H53  1  0.70383600  0.26447700  0.17316900  1
  H  H54  1  0.68352900  0.26451900  0.27739900  1
  C  C1  1  0.08481600  0.57648900  0.67299900  1
  C  C2  1  0.10943800  0.47944700  0.49210300  1
  C  C3  1  0.90404600  0.39637500  0.32155800  1
  C  C4  1  0.87874900  0.49213600  0.50117700  1
  C  C5  1  0.99441300  0.25443800  0.23008400  1
  C  C6  1  0.06062300  0.31415200  0.31536000  1
  C  C7  1  0.09875100  0.37280900  0.32436000  1
  C  C8  1  0.07073800  0.37053500  0.24707700  1
  C  C9  1  0.00429200  0.31102500  0.16194100  1
  C  C10  1  0.96625700  0.25283200  0.15335600  1
  C  C11  1  0.23791100  0.44101500  0.41664500  1
  C  C12  1  0.30960800  0.49412700  0.49964100  1
  C  C13  1  0.31505300  0.54068900  0.58062300  1
  C  C14  1  0.24927800  0.53212400  0.57660100  1
  C  C15  1  0.17814000  0.47927700  0.49371400  1
  C  C16  1  0.17234900  0.43299600  0.41314200  1
  C  C17  1  0.41578200  0.60409600  0.74711100  1
  C  C18  1  0.48239900  0.66340600  0.83225000  1
  C  C19  1  0.52013600  0.72208300  0.84120500  1
  C  C20  1  0.49093900  0.72172200  0.76510000  1
  C  C21  1  0.42432300  0.66247000  0.67995800  1
  C  C22  1  0.38716200  0.60275100  0.67031200  1
  C  C23  1  0.13590200  0.62799800  0.77272500  1
  C  C24  1  0.17884000  0.67169800  0.85642600  1
  C  C25  1  0.22904600  0.72313800  0.95452600  1
  C  C26  1  0.27150200  0.76685900  0.03824100  1
  C  C27  1  0.32064500  0.81765900  0.13639200  1
  C  C28  1  0.36209600  0.86058600  0.22014200  1
  C  C29  1  0.93150600  0.40488900  0.66483200  1
  C  C30  1  0.87577300  0.41430000  0.60130300  1
  C  C31  1  0.86802600  0.48544700  0.63052400  1
  C  C32  1  0.91436200  0.54648200  0.72392200  1
  C  C33  1  0.97020300  0.53729800  0.78838200  1
  C  C34  1  0.97869200  0.46607100  0.75796500  1
  C  C35  1  0.74316100  0.50238900  0.56415500  1
  C  C36  1  0.68142400  0.50598800  0.49838700  1
  C  C37  1  0.68459600  0.50533700  0.43365000  1
  C  C38  1  0.74968300  0.50091500  0.43590000  1
  C  C39  1  0.81017300  0.49464900  0.49972900  1
  C  C40  1  0.80642900  0.49439800  0.56352600  1
  C  C41  1  0.58885100  0.45805300  0.27176400  1
  C  C42  1  0.53052400  0.46454100  0.20655900  1
  C  C43  1  0.50571700  0.52581100  0.23422700  1
  C  C44  1  0.53963200  0.58088300  0.32720600  1
  C  C45  1  0.59770900  0.57423300  0.39244500  1
  C  C46  1  0.62178700  0.51212700  0.36480900  1
  C  C47  1  0.85411000  0.34646900  0.22205300  1
  C  C48  1  0.81235200  0.30610900  0.13846300  1
  C  C49  1  0.76381800  0.25993600  0.04061300  1
  C  C50  1  0.72258800  0.22100100  0.95710500  1
  C  C51  1  0.67447600  0.17549500  0.85930100  1
  C  C52  1  0.63356300  0.13622300  0.77576800  1
  C  C53  1  0.48927900  0.61719200  0.49716600  1
  C  C54  1  0.37779000  0.49664700  0.49919000  1
  C  C55  1  0.50058700  0.38214300  0.49668200  1
  C  C56  1  0.61228400  0.50529000  0.49598800  1
  C  C57  1  0.49903400  0.12046200  0.50099900  1
  C  C58  1  0.41092700  0.91121100  0.31990700  1
  C  C59  1  0.49937600  0.88239300  0.50036500  1
  C  C60  1  0.58492400  0.08861400  0.67631100  1
  C  C61  1  0.23968800  0.53182700  0.21180900  1
  C  C62  1  0.31236800  0.58851200  0.27564300  1
  C  C63  1  0.34956200  0.62643700  0.36944400  1
  C  C64  1  0.31299200  0.60880900  0.39922400  1
  C  C65  1  0.23986500  0.55294900  0.33542400  1
  C  C66  1  0.20339900  0.51404100  0.24169700  1
  C  C67  1  0.42912400  0.75418600  0.43935100  1
  C  C68  1  0.49890100  0.81460800  0.50045100  1
  C  C69  1  0.56563800  0.80935400  0.55958000  1
  C  C70  1  0.56050300  0.74543000  0.55914300  1
  C  C71  1  0.49056500  0.68559600  0.49869400  1
  C  C72  1  0.42479400  0.68913700  0.43664700  1
  C  C73  1  0.70117600  0.85209200  0.61797400  1
  C  C74  1  0.77443500  0.90757600  0.68077800  1
  C  C75  1  0.78920200  0.98083100  0.75122300  1
  C  C76  1  0.73071700  0.99850400  0.75888400  1
  C  C77  1  0.65713900  0.94329400  0.69548800  1
  C  C78  1  0.64205600  0.87003500  0.62433700  1
  C  C79  1  0.48285900  0.19553800  0.22410500  1
  C  C80  1  0.47092100  0.19736200  0.28357500  1
  C  C81  1  0.52441600  0.25176200  0.37826400  1
  C  C82  1  0.59140800  0.30257500  0.41348300  1
  C  C83  1  0.60421300  0.29982200  0.35418500  1
  C  C84  1  0.54954500  0.24699300  0.25904500  1
  C  C85  1  0.51147800  0.19025300  0.44361500  1
  C  C86  1  0.49944100  0.18858800  0.50148100  1
  C  C87  1  0.48746700  0.25070300  0.55741500  1
  C  C88  1  0.48954700  0.31374200  0.55584400  1
  C  C89  1  0.50165500  0.31519200  0.49810800  1
  C  C90  1  0.51165100  0.25260300  0.44071400  1
  C  C91  1  0.40834100  0.26245700  0.61289100  1
  C  C92  1  0.39709300  0.26803700  0.67446700  1
  C  C93  1  0.45300700  0.26579200  0.74535400  1
  C  C94  1  0.52022200  0.25813200  0.75473300  1
  C  C95  1  0.53124600  0.25177700  0.69263900  1
  C  C96  1  0.47493400  0.25323800  0.62096000  1
  C  C97  1  0.01891100  0.60182600  0.88820600  1
  C  C98  1  0.09596500  0.61231400  0.94534900  1
  C  C99  1  0.14110800  0.67191100  0.03915200  1
  C  C100  1  0.10997200  0.72178300  0.07663400  1
  C  C101  1  0.03341400  0.71181200  0.02029700  1
  C  C102  1  0.98794700  0.65206700  0.92650600  1
  C  C103  1  0.56208500  0.24574200  0.19584700  1
  C  C104  1  0.50105100  0.23434100  0.11577100  1
  C  C105  1  0.51302400  0.23423100  0.05711400  1
  C  C106  1  0.58582600  0.24514300  0.07770400  1
  C  C107  1  0.64677700  0.25630700  0.15714400  1
  C  C108  1  0.63513100  0.25684000  0.21621000  1
  O  O1  1  0.04465300  0.50481600  0.63179100  1
  O  O2  1  0.08044300  0.60353200  0.62744100  1
  O  O3  1  0.09400100  0.44494900  0.52183400  1
  O  O4  1  0.06906700  0.51871500  0.46679500  1
  O  O5  1  0.94236600  0.36737600  0.36582300  1
  O  O6  1  0.91013800  0.46955200  0.36379700  1
  O  O7  1  0.89304600  0.42720400  0.47570700  1
  O  O8  1  0.92133100  0.55412400  0.52413000  1
  O  O9  1  0.46760000  0.55049800  0.41997300  1
  O  O10  1  0.51427400  0.62616900  0.57463500  1
  O  O11  1  0.36708700  0.47358900  0.42124400  1
  O  O12  1  0.44622400  0.51879700  0.57500800  1
  O  O13  1  0.44445100  0.37207100  0.41991800  1
  O  O14  1  0.55366500  0.45031300  0.57396600  1
  O  O15  1  0.54518800  0.44944600  0.41904100  1
  O  O16  1  0.62167000  0.55779000  0.57361000  1
  O  O17  1  0.54944900  0.08867200  0.49458600  1
  O  O18  1  0.44318700  0.08876100  0.49604900  1
  O  O19  1  0.48642400  0.93509500  0.36456600  1
  O  O20  1  0.37768100  0.93064700  0.36174800  1
  O  O21  1  0.55179400  0.91050400  0.49822000  1
  O  O22  1  0.44133800  0.90636800  0.49113900  1
  O  O23  1  0.61802600  0.07228500  0.63458400  1
  O  O24  1  0.50968100  0.06242300  0.63172900  1
  F  F1  1  0.15455800  0.78047600  0.16880200  1
  F  F2  1  0.59745200  0.24496100  0.01992600  1
