# generated using pymatgen
data_ZnH6(C5O2)2
_symmetry_space_group_name_H-M   'P 1'
_cell_length_a   10.99645100
_cell_length_b   10.98220200
_cell_length_c   64.68285500
_cell_angle_alpha   94.40613300
_cell_angle_beta   92.04518200
_cell_angle_gamma   65.81033300
_symmetry_Int_Tables_number   1
_chemical_formula_structural   ZnH6(C5O2)2
_chemical_formula_sum   'Zn12 H72 C120 O48'
_cell_volume   7104.41440845
_cell_formula_units_Z   12
loop_
 _symmetry_equiv_pos_site_id
 _symmetry_equiv_pos_as_xyz
  1  'x, y, z'
loop_
 _atom_site_type_symbol
 _atom_site_label
 _atom_site_symmetry_multiplicity
 _atom_site_fract_x
 _atom_site_fract_y
 _atom_site_fract_z
 _atom_site_occupancy
  Zn  Zn1  1  0.07523500  0.14957900  0.49940000  1
  Zn  Zn2  1  0.19864800  0.85276100  0.50093100  1
  Zn  Zn3  1  0.05535200  0.05067100  0.32886500  1
  Zn  Zn4  1  0.17714000  0.75367200  0.33015400  1
  Zn  Zn5  1  0.12594400  0.02864600  0.67323400  1
  Zn  Zn6  1  0.83577000  0.14486900  0.66293500  1
  Zn  Zn7  1  0.07162300  0.85568400  0.15584700  1
  Zn  Zn8  1  0.19310500  0.56668800  0.16422700  1
  Zn  Zn9  1  0.57333900  0.27388700  0.82743300  1
  Zn  Zn10  1  0.86083500  0.16152300  0.83949200  1
  Zn  Zn11  1  0.24555300  0.49199000  0.98823000  1
  Zn  Zn12  1  0.52601700  0.38209200  0.00380800  1
  H  H1  1  0.61462000  0.78572500  0.50127900  1
  H  H2  1  0.83611900  0.78542600  0.50113000  1
  H  H3  1  0.62496900  0.30899500  0.51307000  1
  H  H4  1  0.62566000  0.28993900  0.48383100  1
  H  H5  1  0.40386800  0.30945700  0.51328000  1
  H  H6  1  0.40458000  0.29032900  0.48403900  1
  H  H7  1  0.21386600  0.72498100  0.39661900  1
  H  H8  1  0.22414300  0.74603300  0.43434300  1
  H  H9  1  0.92811100  0.26080600  0.43355400  1
  H  H10  1  0.09923100  0.26056800  0.43205100  1
  H  H11  1  0.91735700  0.24002300  0.39594100  1
  H  H12  1  0.08859800  0.23953200  0.39442500  1
  H  H13  1  0.89605600  0.23835900  0.60065100  1
  H  H14  1  0.93722500  0.22628000  0.56349000  1
  H  H15  1  0.28923900  0.73387700  0.56804900  1
  H  H16  1  0.40292600  0.82372300  0.57241200  1
  H  H17  1  0.25221500  0.75050700  0.60512100  1
  H  H18  1  0.36650200  0.83965300  0.60961400  1
  H  H19  1  0.63835700  0.11840900  0.32913900  1
  H  H20  1  0.41703300  0.11783700  0.32821000  1
  H  H21  1  0.62546600  0.61220200  0.34482600  1
  H  H22  1  0.63103100  0.59453800  0.31558600  1
  H  H23  1  0.84639500  0.61267400  0.34580000  1
  H  H24  1  0.85182800  0.59529300  0.31655900  1
  H  H25  1  0.02428300  0.06567600  0.25969400  1
  H  H26  1  0.02276700  0.02275000  0.22186900  1
  H  H27  1  0.14353800  0.51570900  0.23148700  1
  H  H28  1  0.31549400  0.51347600  0.22994900  1
  H  H29  1  0.14568500  0.55836300  0.26884300  1
  H  H30  1  0.31772500  0.55586300  0.26729400  1
  H  H31  1  0.76931500  0.55966700  0.66126800  1
  H  H32  1  0.77115800  0.77977300  0.65985200  1
  H  H33  1  0.29433600  0.56327400  0.66331200  1
  H  H34  1  0.25338900  0.59977000  0.69181300  1
  H  H35  1  0.29227900  0.34370700  0.66475700  1
  H  H36  1  0.25169600  0.38007100  0.69327100  1
  H  H37  1  0.67494400  0.20965900  0.72450600  1
  H  H38  1  0.61675900  0.23326600  0.76092000  1
  H  H39  1  0.11265800  0.13139400  0.78165500  1
  H  H40  1  0.11999900  0.95621200  0.77963800  1
  H  H41  1  0.17095400  0.10797900  0.74524700  1
  H  H42  1  0.17808700  0.93288300  0.74319400  1
  H  H43  1  0.65559400  0.92231500  0.15476500  1
  H  H44  1  0.43404900  0.92263000  0.15483600  1
  H  H45  1  0.63771800  0.43876200  0.18155400  1
  H  H46  1  0.64772500  0.39846100  0.15261400  1
  H  H47  1  0.85893400  0.43833700  0.18145600  1
  H  H48  1  0.86881800  0.39793300  0.15251600  1
  H  H49  1  0.02022800  0.77672600  0.08647500  1
  H  H50  1  0.07879400  0.71049200  0.04970500  1
  H  H51  1  0.43897400  0.24409500  0.07014500  1
  H  H52  1  0.53785300  0.35017000  0.07229000  1
  H  H53  1  0.37645700  0.30456800  0.10641600  1
  H  H54  1  0.47452800  0.41146300  0.10838200  1
  H  H55  1  0.50813700  0.68874200  0.82491800  1
  H  H56  1  0.50908000  0.90974200  0.82441000  1
  H  H57  1  0.03104400  0.69693600  0.83115900  1
  H  H58  1  0.98278300  0.73208600  0.85939900  1
  H  H59  1  0.02988600  0.47644600  0.83169100  1
  H  H60  1  0.98178100  0.51153700  0.85993500  1
  H  H61  1  0.80601000  0.21630100  0.90765400  1
  H  H62  1  0.73166300  0.26507100  0.94374200  1
  H  H63  1  0.24162100  0.36703400  0.91903300  1
  H  H64  1  0.24176800  0.53865000  0.91877100  1
  H  H65  1  0.31542600  0.31863700  0.88322000  1
  H  H66  1  0.31552600  0.49029000  0.88296700  1
  H  H67  1  0.18236900  0.90444800  0.98462900  1
  H  H68  1  0.18144500  0.12661400  0.98495700  1
  H  H69  1  0.69840400  0.92115300  0.99811400  1
  H  H70  1  0.63598400  0.95772500  0.02566900  1
  H  H71  1  0.69925500  0.69943000  0.99781400  1
  H  H72  1  0.63680300  0.73600000  0.02536500  1
  C  C1  1  0.14035200  0.97604300  0.45919000  1
  C  C2  1  0.89720400  0.00047600  0.49999100  1
  C  C3  1  0.37717500  0.00075600  0.50028400  1
  C  C4  1  0.12808900  0.02629600  0.54111400  1
  C  C5  1  0.11943600  0.92580100  0.37049200  1
  C  C6  1  0.35604100  0.90230300  0.32868900  1
  C  C7  1  0.87593400  0.90333400  0.33034900  1
  C  C8  1  0.11387100  0.87630900  0.28853700  1
  C  C9  1  0.97863200  0.32821000  0.66928100  1
  C  C10  1  0.92202900  0.11536800  0.70796200  1
  C  C11  1  0.03751900  0.06126100  0.62820300  1
  C  C12  1  0.98219500  0.84562900  0.66679000  1
  C  C13  1  0.15747000  0.64419600  0.11979000  1
  C  C14  1  0.89215700  0.71153800  0.15994600  1
  C  C15  1  0.37207100  0.71188700  0.16009400  1
  C  C16  1  0.11273700  0.77642900  0.20036900  1
  C  C17  1  0.71756200  0.97725200  0.83297800  1
  C  C18  1  0.64790900  0.26412700  0.87299600  1
  C  C19  1  0.78488400  0.17404100  0.79389000  1
  C  C20  1  0.71588900  0.45835400  0.83388400  1
  C  C21  1  0.38458800  0.19764900  0.99631100  1
  C  C22  1  0.29766900  0.49729000  0.03456100  1
  C  C23  1  0.47458700  0.37812300  0.95748800  1
  C  C24  1  0.38584900  0.67685600  0.99573500  1
  C  C25  1  0.53048100  0.11394400  0.49957400  1
  C  C26  1  0.51042200  0.99909800  0.50022900  1
  C  C27  1  0.62339900  0.87991300  0.50076800  1
  C  C28  1  0.75006600  0.87968500  0.50067900  1
  C  C29  1  0.76542500  0.99862600  0.50001000  1
  C  C30  1  0.65115900  0.11368600  0.49945000  1
  C  C31  1  0.60159700  0.26085200  0.49868600  1
  C  C32  1  0.45959100  0.26113300  0.49882200  1
  C  C33  1  0.08201000  0.05839600  0.40423300  1
  C  C34  1  0.12540200  0.93697200  0.39311500  1
  C  C35  1  0.17754100  0.82386700  0.40441100  1
  C  C36  1  0.18374100  0.83582200  0.42598400  1
  C  C37  1  0.13814400  0.96108800  0.43657400  1
  C  C38  1  0.08808500  0.06977000  0.42477800  1
  C  C39  1  0.02775700  0.21818400  0.42618000  1
  C  C40  1  0.02085200  0.20476600  0.40201500  1
  C  C41  1  0.17265700  0.95553900  0.59665200  1
  C  C42  1  0.06575300  0.05679300  0.60623900  1
  C  C43  1  0.98136900  0.15536700  0.59390900  1
  C  C44  1  0.00551400  0.14912200  0.57278700  1
  C  C45  1  0.11122900  0.04118100  0.56355900  1
  C  C46  1  0.19224800  0.94638200  0.57635400  1
  C  C47  1  0.30925900  0.81586600  0.57639400  1
  C  C48  1  0.28576400  0.82638000  0.60025800  1
  C  C49  1  0.72266200  0.78983700  0.33026200  1
  C  C50  1  0.74261100  0.90504500  0.33012000  1
  C  C51  1  0.62963800  0.02400600  0.32933400  1
  C  C52  1  0.50309100  0.02364600  0.32875300  1
  C  C53  1  0.48785000  0.90429500  0.32891300  1
  C  C54  1  0.60213800  0.78948000  0.32969000  1
  C  C55  1  0.65188500  0.64217400  0.33022800  1
  C  C56  1  0.79373200  0.64257200  0.33086000  1
  C  C57  1  0.15589800  0.73143600  0.25645000  1
  C  C58  1  0.11078000  0.85770400  0.26595900  1
  C  C59  1  0.06168700  0.96357700  0.25312300  1
  C  C60  1  0.06053200  0.93910400  0.23158000  1
  C  C61  1  0.10798600  0.80862100  0.22273700  1
  C  C62  1  0.15445500  0.70829300  0.23608900  1
  C  C63  1  0.21417300  0.56052000  0.23674400  1
  C  C64  1  0.21562600  0.58780600  0.26073700  1
  C  C65  1  0.09066300  0.48334600  0.67230300  1
  C  C66  1  0.97759000  0.46105500  0.66884500  1
  C  C67  1  0.86178600  0.57054900  0.66425900  1
  C  C68  1  0.86290400  0.69628900  0.66336700  1
  C  C69  1  0.97989300  0.71406900  0.66702500  1
  C  C70  1  0.09172400  0.60313800  0.67145600  1
  C  C71  1  0.23569400  0.55713400  0.67648300  1
  C  C72  1  0.23449300  0.41606700  0.67742400  1
  C  C73  1  0.98076600  0.09318100  0.74533500  1
  C  C74  1  0.88672200  0.12933100  0.72984400  1
  C  C75  1  0.75422700  0.17960900  0.73589600  1
  C  C76  1  0.72087600  0.19287100  0.75675500  1
  C  C77  1  0.81944300  0.15589900  0.77193100  1
  C  C78  1  0.94894300  0.10574400  0.76524400  1
  C  C79  1  0.08913200  0.05361900  0.77264600  1
  C  C80  1  0.12651900  0.03863600  0.74924700  1
  C  C81  1  0.73831600  0.60069600  0.16273900  1
  C  C82  1  0.75888200  0.71322900  0.15993000  1
  C  C83  1  0.64640500  0.83001800  0.15706000  1
  C  C84  1  0.51971900  0.83024600  0.15709700  1
  C  C85  1  0.50384600  0.71371900  0.16003500  1
  C  C86  1  0.61762200  0.60097700  0.16280400  1
  C  C87  1  0.66666667  0.45651000  0.16618800  1
  C  C88  1  0.80864200  0.45620300  0.16612300  1
  C  C89  1  0.28846600  0.49085200  0.09138100  1
  C  C90  1  0.18215600  0.60573600  0.09775200  1
  C  C91  1  0.10553700  0.68493200  0.08236300  1
  C  C92  1  0.13842500  0.64690600  0.06147900  1
  C  C93  1  0.25156300  0.53278900  0.05593200  1
  C  C94  1  0.32324500  0.45822000  0.07168300  1
  C  C95  1  0.44571300  0.33863400  0.07606600  1
  C  C96  1  0.40520200  0.37763900  0.09931000  1
  C  C97  1  0.82612800  0.61465300  0.83815600  1
  C  C98  1  0.71445700  0.59139400  0.83367000  1
  C  C99  1  0.59950900  0.70040500  0.82865300  1
  C  C100  1  0.60010800  0.82668300  0.82833600  1
  C  C101  1  0.71570100  0.84544400  0.83300900  1
  C  C102  1  0.82673700  0.73493900  0.83784200  1
  C  C103  1  0.96926200  0.68976500  0.84380200  1
  C  C104  1  0.96857300  0.54812700  0.84414900  1
  C  C105  1  0.47610500  0.34706300  0.90017400  1
  C  C106  1  0.60807900  0.29062700  0.89475100  1
  C  C107  1  0.70038100  0.26095200  0.91088400  1
  C  C108  1  0.65790400  0.28879200  0.93147500  1
  C  C109  1  0.52271200  0.34655900  0.93615100  1
  C  C110  1  0.43580900  0.37345500  0.91971100  1
  C  C111  1  0.29182300  0.42994300  0.91436000  1
  C  C112  1  0.33922200  0.39887000  0.89135900  1
  C  C113  1  0.49230000  0.83565500  0.00191800  1
  C  C114  1  0.38404000  0.81016900  0.99576100  1
  C  C115  1  0.27123200  0.91774800  0.98962300  1
  C  C116  1  0.27060800  0.04478200  0.98983100  1
  C  C117  1  0.38285400  0.06571700  0.99615800  1
  C  C118  1  0.49178000  0.95662700  0.00208700  1
  C  C119  1  0.63079600  0.91385500  0.00981100  1
  C  C120  1  0.63135600  0.77144600  0.00961700  1
  O  O1  1  0.09346000  0.09595400  0.46868600  1
  O  O2  1  0.00357500  0.88799400  0.50092000  1
  O  O3  1  0.90866800  0.11421800  0.49913200  1
  O  O4  1  0.18582800  0.86937500  0.46990200  1
  O  O5  1  0.36424200  0.88755500  0.50061800  1
  O  O6  1  0.07985300  0.13274800  0.53036600  1
  O  O7  1  0.18156500  0.90637900  0.53168600  1
  O  O8  1  0.27150400  0.11440300  0.49991800  1
  O  O9  1  0.07190100  0.03368000  0.36003400  1
  O  O10  1  0.34411500  0.78859300  0.32936500  1
  O  O11  1  0.24994100  0.01527600  0.32830900  1
  O  O12  1  0.16451800  0.80680100  0.36073200  1
  O  O13  1  0.98121600  0.78940200  0.33067500  1
  O  O14  1  0.06790400  0.99663200  0.29796700  1
  O  O15  1  0.16110600  0.77017900  0.29931000  1
  O  O16  1  0.88942800  0.01614600  0.32971400  1
  O  O17  1  0.09035400  0.22481300  0.67267000  1
  O  O18  1  0.82658400  0.15156200  0.69402900  1
  O  O19  1  0.04747900  0.06539300  0.70226300  1
  O  O20  1  0.86791000  0.31261600  0.66547400  1
  O  O21  1  0.91313800  0.11548300  0.63432500  1
  O  O22  1  0.09272400  0.86043200  0.67129400  1
  O  O23  1  0.87215400  0.94924800  0.66282100  1
  O  O24  1  0.13510200  0.01777100  0.64174600  1
  O  O25  1  0.10118700  0.77101700  0.12635600  1
  O  O26  1  0.99722400  0.60052100  0.16287300  1
  O  O27  1  0.90571400  0.82207100  0.15706700  1
  O  O28  1  0.20110300  0.55092500  0.13303700  1
  O  O29  1  0.35981800  0.60134500  0.16355200  1
  O  O30  1  0.07165800  0.87151200  0.18735900  1
  O  O31  1  0.16241100  0.65038600  0.19344600  1
  O  O32  1  0.26648400  0.82122100  0.15665600  1
  O  O33  1  0.60805800  0.07987100  0.82850700  1
  O  O34  1  0.77460600  0.20994200  0.86795100  1
  O  O35  1  0.55556600  0.29540000  0.85855500  1
  O  O36  1  0.82753500  0.99290600  0.83766600  1
  O  O37  1  0.87867500  0.14142800  0.80815000  1
  O  O38  1  0.60669500  0.44129800  0.82923700  1
  O  O39  1  0.82618300  0.35658700  0.83841300  1
  O  O40  1  0.65887900  0.22715300  0.79921000  1
  O  O41  1  0.27760100  0.29925800  0.99066100  1
  O  O42  1  0.42600100  0.43600100  0.03094300  1
  O  O43  1  0.21189300  0.52891200  0.01915400  1
  O  O44  1  0.49311800  0.21372900  0.00189200  1
  O  O45  1  0.55989000  0.35180100  0.97295700  1
  O  O46  1  0.27960000  0.65839100  0.98955200  1
  O  O47  1  0.49234200  0.57693100  0.00202400  1
  O  O48  1  0.34588600  0.43337200  0.96105200  1
