# Generated by REPEAT Assigner based on pymatgen
data_DB0-m2_o3_o22_f0_pcu.sym.63
_audit_creation_date              2022-05-24
_audit_creation_method            REPEAT_Assigner
_cell_length_a                    19.361228
_cell_length_b                    17.901876
_cell_length_c                    10.696352
_cell_angle_alpha                 90.000000
_cell_angle_beta                  90.013752
_cell_angle_gamma                 90.000000
_cell_volume                      3707.379960
_symmetry_space_group_name_H-M    P1
_symmetry_Int_Tables_number       1
loop_
    _symmetry_equiv_pos_site_id
    _symmetry_equiv_pos_as_xyz
    1  x,y,z
loop_
    _atom_site_type_symbol
    _atom_site_label
    _atom_site_fract_x
    _atom_site_fract_y
    _atom_site_fract_z
    _atom_type_partial_charge
    O   O1   0.397089  0.565080  0.504237  -0.452632
    O   O2   0.396771  0.437129  0.495792  -0.460076
    C   C1   0.364467  0.501056  0.502206  0.469493
    O   O3   0.498918  0.565415  0.315396  -0.450104
    O   O4   0.493078  0.437270  0.314800  -0.437917
    C   C2   0.496905  0.501416  0.256053  0.557028
    Cu  Cu1  0.497477  0.575950  0.497197  0.735728
    Cu  Cu2  0.497117  0.426479  0.496307  0.790707
    O   O5   0.597754  0.565630  0.499181  -0.608534
    O   O6   0.597502  0.437183  0.488486  -0.597098
    O   O7   0.501105  0.565364  0.678810  -0.626998
    O   O8   0.496768  0.437008  0.678137  -0.651977
    C   C3   0.630096  0.501285  0.493416  0.807701
    C   C4   0.498872  0.501068  0.737265  0.626452
    C   C5   0.464911  0.572333  0.065727  -0.125423
    C   C6   0.455379  0.436406  0.066834  0.167792
    H   H1   0.486737  0.623867  0.106563  0.045289
    H   H2   0.477674  0.381733  0.093270  -0.038941
    H   H3   0.408966  0.570692  0.087475  0.126055
    H   H4   0.402341  0.439639  0.105783  0.061303
    C   C7   0.473585  0.576067  0.925504  -0.112072
    C   C8   0.450905  0.440082  0.925777  -0.207662
    H   H5   0.422952  0.590550  0.883185  0.002129
    H   H6   0.396887  0.452544  0.898281  -0.003734
    H   H7   0.511470  0.620530  0.902612  0.009617
    H   H8   0.466114  0.384706  0.888413  0.035647
    H   H9   0.607500  0.526870  0.881636  -0.027926
    H   H10  0.587277  0.429118  0.898725  -0.009252
    C   C9   0.572876  0.494945  0.065850  -0.046643
    C   C10  0.498435  0.501337  0.115620  -0.162382
    C   C11  0.498608  0.500983  0.877200  0.485616
    C   C12  0.571123  0.486514  0.924685  -0.021039
    C   C13  0.741747  0.434244  0.490111  -0.034527
    C   C14  0.741806  0.567446  0.497414  -0.006584
    H   H11  0.715014  0.381355  0.485780  0.122933
    H   H12  0.714992  0.620328  0.497436  0.099210
    C   C15  0.812938  0.434158  0.492348  -0.215072
    C   C16  0.812997  0.567323  0.500091  -0.209791
    H   H13  0.839768  0.381165  0.492476  0.119312
    H   H14  0.839952  0.620099  0.501100  0.121793
    C   C17  0.849133  0.500701  0.497807  0.147800
    C   C18  0.705713  0.500910  0.493454  -0.211343
    C   C19  0.960575  0.551024  0.574942  -0.114021
    C   C20  0.962198  0.450539  0.428672  -0.135796
    H   H15  0.932966  0.589512  0.634618  0.096425
    H   H16  0.936167  0.411653  0.367506  0.109021
    C   C21  0.031825  0.550949  0.577726  -0.176035
    C   C22  0.033403  0.450695  0.431176  -0.169683
    H   H17  0.058034  0.588970  0.640164  0.118299
    H   H18  0.061049  0.411777  0.372331  0.122915
    C   C23  0.068810  0.501141  0.505112  0.126178
    C   C24  0.925148  0.500771  0.500490  0.045953
    C   C25  0.181071  0.434791  0.505138  -0.232474
    C   C26  0.181043  0.567912  0.510230  -0.232962
    H   H19  0.154060  0.382036  0.506878  0.108411
    H   H20  0.154266  0.620952  0.510612  0.113177
    C   C27  0.252303  0.434774  0.505034  0.052513
    C   C28  0.252271  0.567839  0.509993  0.051908
    H   H21  0.278990  0.381798  0.505646  0.058150
    H   H22  0.278960  0.620720  0.513171  0.055288
    C   C29  0.288446  0.501328  0.505566  -0.095272
    C   C30  0.144806  0.501337  0.506913  0.109281
    C   C31  0.456762  0.731715  0.425073  0.058843
    C   C32  0.456798  0.270542  0.423443  0.044342
    C   C33  0.462854  0.808257  0.429546  -0.105517
    C   C34  0.463309  0.193996  0.427565  -0.088291
    H   H23  0.428432  0.842051  0.373573  0.039952
    H   H24  0.428906  0.161164  0.369529  0.031667
    C   C35  0.510595  0.841772  0.506621  0.151145
    C   C36  0.510958  0.160491  0.505261  0.146616
    C   C37  0.551398  0.796747  0.580168  -0.247366
    C   C38  0.551337  0.205520  0.579113  -0.253810
    H   H25  0.590997  0.820770  0.639356  0.124513
    H   H26  0.590239  0.181422  0.639117  0.125356
    C   C39  0.544324  0.720018  0.574368  0.032869
    C   C40  0.544500  0.282245  0.572219  0.067537
    H   H27  0.577863  0.685582  0.630367  0.132009
    H   H28  0.577978  0.316289  0.629224  0.100122
    N   N1   0.497335  0.687868  0.497957  -0.021409
    N   N2   0.497198  0.314548  0.496231  -0.034648
    C   C41  0.525489  0.962314  0.618020  -0.147677
    C   C42  0.526404  0.039679  0.618216  -0.156099
    H   H29  0.527906  0.932162  0.705699  0.119412
    H   H30  0.530715  0.068491  0.706667  0.122331
    C   C43  0.517934  0.078661  0.507287  0.072018
    C   C44  0.517224  0.923507  0.507352  0.077321
    C   C45  0.512899  0.039647  0.396614  -0.102604
    C   C46  0.512226  0.962852  0.396437  -0.126401
    H   H31  0.509322  0.069203  0.308878  0.102617
    H   H32  0.507343  0.934275  0.307934  0.108428
    I   I1   0.380201  0.690320  0.303049  -0.048869
    I   I2   0.379637  0.309940  0.300737  -0.048634
    I   I3   0.634080  0.590869  0.111460  -0.039817
    I   I4   0.627048  0.400991  0.141576  -0.061114
