# generated using pymatgen
data_Zn2H35C50N3O8
_symmetry_space_group_name_H-M   'P 1'
_cell_length_a   15.26120900
_cell_length_b   11.81314300
_cell_length_c   14.24653600
_cell_angle_alpha   90.14389400
_cell_angle_beta   89.99799600
_cell_angle_gamma   90.00000000
_symmetry_Int_Tables_number   1
_chemical_formula_structural   Zn2H35C50N3O8
_chemical_formula_sum   'Zn2 H35 C50 N3 O8'
_cell_volume   2568.39792972
_cell_formula_units_Z   1
loop_
 _symmetry_equiv_pos_site_id
 _symmetry_equiv_pos_as_xyz
  1  'x, y, z'
loop_
 _atom_site_type_symbol
 _atom_site_label
 _atom_site_symmetry_multiplicity
 _atom_site_fract_x
 _atom_site_fract_y
 _atom_site_fract_z
 _atom_site_occupancy
  Zn  Zn1  1  0.49957900  0.50960200  0.90690800  1
  Zn  Zn2  1  0.49954100  0.49619000  0.11581600  1
  H  H1  1  0.13965500  0.82048300  0.16389500  1
  H  H2  1  0.32171000  0.79545700  0.87974100  1
  H  H3  1  0.26787500  0.69765000  0.16303300  1
  H  H4  1  0.19424900  0.91925000  0.88224900  1
  H  H5  1  0.13963200  0.18531200  0.85875600  1
  H  H6  1  0.32175900  0.21029300  0.14284300  1
  H  H7  1  0.26786100  0.30813700  0.85958000  1
  H  H8  1  0.19429200  0.08651300  0.14037500  1
  H  H9  1  0.85949600  0.82047500  0.16395600  1
  H  H10  1  0.67735100  0.79550000  0.87988200  1
  H  H11  1  0.73127100  0.69764400  0.16313800  1
  H  H12  1  0.80481400  0.91928600  0.88234400  1
  H  H13  1  0.85947400  0.18533800  0.85882800  1
  H  H14  1  0.67739600  0.21031100  0.14296800  1
  H  H15  1  0.73125900  0.30817900  0.85969300  1
  H  H16  1  0.80485900  0.08651900  0.14045700  1
  H  H17  1  0.99955800  0.79934800  0.04524900  1
  H  H18  1  0.99956000  0.20644200  0.97745500  1
  H  H19  1  0.36944700  0.56869400  0.43548200  1
  H  H20  1  0.37722200  0.59918300  0.59126000  1
  H  H21  1  0.49195000  0.32428000  0.60279700  1
  H  H22  1  0.38840700  0.39505300  0.58620800  1
  H  H23  1  0.40603800  0.36155300  0.43055900  1
  H  H24  1  0.51903300  0.32005700  0.44597600  1
  H  H25  1  0.62390300  0.42900200  0.57963800  1
  H  H26  1  0.60823200  0.61365600  0.43753700  1
  H  H27  1  0.47218600  0.68701100  0.57903900  1
  H  H28  1  0.45515500  0.67270100  0.42149800  1
  H  H29  1  0.63891700  0.46681600  0.42506500  1
  H  H30  1  0.61802300  0.68086900  0.59282600  1
  H  H31  1  0.73949300  0.75388800  0.51840200  1
  H  H32  1  0.89803000  0.74610400  0.49421200  1
  H  H33  1  0.98340800  0.58540800  0.55435000  1
  H  H34  1  0.90957600  0.43286000  0.64076800  1
  H  H35  1  0.75132200  0.44011100  0.66697400  1
  C  C1  1  0.30430400  0.73818800  0.02142000  1
  C  C2  1  0.07825300  0.94564200  0.02177600  1
  C  C3  1  0.18053200  0.81647700  0.10199700  1
  C  C4  1  0.28314700  0.80149900  0.94317600  1
  C  C5  1  0.25338500  0.74738000  0.10139900  1
  C  C6  1  0.15950800  0.87964500  0.02385900  1
  C  C7  1  0.21145000  0.87247700  0.94470700  1
  C  C8  1  0.30432400  0.26757900  0.00117500  1
  C  C9  1  0.07825500  0.06014200  0.00089400  1
  C  C10  1  0.18052500  0.18930700  0.92063800  1
  C  C11  1  0.28318200  0.20426000  0.07942100  1
  C  C12  1  0.25338400  0.25839800  0.92121400  1
  C  C13  1  0.15951600  0.12613100  0.99878000  1
  C  C14  1  0.21148100  0.13328800  0.07791200  1
  C  C15  1  0.69479900  0.73820700  0.02154700  1
  C  C16  1  0.92086200  0.94564900  0.02181700  1
  C  C17  1  0.81859900  0.81648100  0.10207700  1
  C  C18  1  0.71593400  0.80153100  0.94330100  1
  C  C19  1  0.74574300  0.74738600  0.10150500  1
  C  C20  1  0.83960100  0.87966100  0.02393500  1
  C  C21  1  0.78763200  0.87250500  0.94480700  1
  C  C22  1  0.99955800  0.88958300  0.03281300  1
  C  C23  1  0.69481600  0.26760700  0.00129900  1
  C  C24  1  0.92086400  0.06014900  0.00093300  1
  C  C25  1  0.81859300  0.18933300  0.92072200  1
  C  C26  1  0.71596600  0.20428000  0.07953600  1
  C  C27  1  0.74574100  0.25843200  0.92132300  1
  C  C28  1  0.83960900  0.12614700  0.99885300  1
  C  C29  1  0.78766200  0.13330300  0.07800300  1
  C  C30  1  0.99955900  0.11620700  0.98989300  1
  C  C31  1  0.62221900  0.65702900  0.01795200  1
  C  C32  1  0.62223200  0.34877400  0.00490900  1
  C  C33  1  0.37690500  0.34875700  0.00477200  1
  C  C34  1  0.37688700  0.65701700  0.01781400  1
  C  C35  1  0.44402400  0.60346200  0.56081800  1
  C  C36  1  0.45903300  0.39652900  0.56789500  1
  C  C37  1  0.46962100  0.38608000  0.46235300  1
  C  C38  1  0.49937500  0.50740200  0.59994200  1
  C  C39  1  0.43756300  0.59127400  0.45518400  1
  C  C40  1  0.49954300  0.49887200  0.42274600  1
  C  C41  1  0.59114100  0.52576800  0.45763000  1
  C  C42  1  0.59317900  0.51153500  0.56341600  1
  C  C43  1  0.49962800  0.49392400  0.32012100  1
  C  C44  1  0.49944100  0.51206500  0.70259700  1
  C  C45  1  0.73382700  0.59562800  0.59171400  1
  C  C46  1  0.77606200  0.68254200  0.54516500  1
  C  C47  1  0.86544200  0.67843300  0.53135500  1
  C  C48  1  0.91331400  0.58838200  0.56502200  1
  C  C49  1  0.87187300  0.50274700  0.61320400  1
  C  C50  1  0.78248300  0.50650000  0.62699200  1
  N  N1  1  0.49966000  0.49139300  0.23893000  1
  N  N2  1  0.49945900  0.51440500  0.78379500  1
  N  N3  1  0.64238000  0.60179900  0.60754400  1
  O  O1  1  0.59418400  0.61285800  0.09685400  1
  O  O2  1  0.59098800  0.62783000  0.93554200  1
  O  O3  1  0.59419400  0.39293100  0.92600700  1
  O  O4  1  0.59099500  0.37796900  0.08731900  1
  O  O5  1  0.40494200  0.39292700  0.92587000  1
  O  O6  1  0.40813400  0.37795900  0.08718300  1
  O  O7  1  0.40492300  0.61285600  0.09671500  1
  O  O8  1  0.40812600  0.62782100  0.93540700  1
