# Generated by REPEAT Assigner based on pymatgen
data_DB0-m29_o97_o52_f0_pts.sym.31
_audit_creation_date              2022-05-24
_audit_creation_method            REPEAT_Assigner
_cell_length_a                    17.769539
_cell_length_b                    9.422054
_cell_length_c                    19.186415
_cell_angle_alpha                 85.754277
_cell_angle_beta                  77.797545
_cell_angle_gamma                 106.429110
_cell_volume                      2980.691178
_symmetry_space_group_name_H-M    P1
_symmetry_Int_Tables_number       1
loop_
    _symmetry_equiv_pos_site_id
    _symmetry_equiv_pos_as_xyz
    1  x,y,z
loop_
    _atom_site_type_symbol
    _atom_site_label
    _atom_site_fract_x
    _atom_site_fract_y
    _atom_site_fract_z
    _atom_type_partial_charge
    C   C1   0.234170  0.058033  0.119300  -0.253043
    C   C2   0.106167  0.097548  0.147539  -0.167935
    C   C3   0.293273  0.018972  0.073504  0.032353
    C   C4   0.279772  0.971084  0.009028  -0.011708
    C   C5   0.162289  0.052013  0.101927  0.213822
    C   C6   0.146207  0.999453  0.039988  0.022484
    C   C7   0.203486  0.951923  0.995415  0.040660
    C   C8   0.182561  0.882014  0.938606  -0.106297
    C   C9   0.034958  0.096648  0.130524  -0.177227
    C   C10  0.018466  0.050916  0.066425  0.057594
    C   C11  0.073663  0.996831  0.022289  0.008347
    C   C12  0.056962  0.940455  0.960576  0.051189
    C   C13  0.110570  0.875477  0.921701  -0.133021
    C   C14  0.893322  0.118042  0.086001  -0.143473
    C   C15  0.947332  0.054280  0.046761  0.056793
    C   C16  0.930821  0.998496  0.984850  0.008870
    C   C17  0.986022  0.944398  0.940747  0.064748
    C   C18  0.969851  0.899491  0.876425  -0.183855
    C   C19  0.821477  0.111894  0.068899  -0.096617
    C   C20  0.801136  0.043875  0.011444  0.057262
    C   C21  0.858488  0.996527  0.966888  0.003984
    C   C22  0.842673  0.944797  0.904695  0.229857
    C   C23  0.725257  0.026321  0.997296  -0.055967
    C   C24  0.711986  0.979131  0.932710  0.066785
    C   C25  0.898860  0.899296  0.859133  -0.168191
    C   C26  0.771004  0.939613  0.887036  -0.269401
    H   H1   0.245988  0.099590  0.168194  0.153203
    H   H2   0.117700  0.135128  0.197248  0.145188
    H   H3   0.219920  0.824892  0.907749  0.129313
    H   H4   0.993744  0.130074  0.170493  0.147639
    H   H5   0.098688  0.814256  0.878137  0.124635
    H   H6   0.904627  0.177823  0.130113  0.125034
    H   H7   0.011310  0.866581  0.836440  0.153393
    H   H8   0.783748  0.167834  0.100187  0.124363
    H   H9   0.887582  0.862446  0.809226  0.144974
    H   H10  0.759341  0.898642  0.837986  0.150671
    O   O1   0.593159  0.059407  0.041328  -0.513614
    C   C27  0.656611  0.029539  0.055464  0.579701
    O   O2   0.509888  0.740095  0.120835  -0.483005
    O   O3   0.653982  0.983014  0.122365  -0.520578
    O   O4   0.496769  0.873138  0.213644  -0.501427
    C   C28  0.502035  0.748326  0.189858  0.502287
    Fe  Fe1  0.507365  0.022655  0.131108  1.447121
    O   O5   0.401270  0.939662  0.105363  -0.610344
    O   O6   0.408633  0.184872  0.101433  -0.515785
    C   C29  0.371716  0.049006  0.091572  0.666145
    O   O7   0.534604  0.223963  0.164223  -0.619109
    O   O8   0.440928  0.093882  0.265612  -0.517865
    C   C30  0.490042  0.220923  0.228600  0.568882
    O   O9   0.469954  0.780059  0.841563  -0.635153
    O   O10  0.557341  0.907262  0.736446  -0.563603
    C   C31  0.509767  0.781166  0.775440  0.671664
    O   O11  0.605424  0.061590  0.900182  -0.640519
    O   O12  0.595919  0.815405  0.904754  -0.524304
    C   C32  0.633736  0.950858  0.914490  0.665434
    O   O13  0.349314  0.008601  0.883433  -0.467741
    O   O14  0.510317  0.131917  0.792253  -0.454266
    C   C33  0.497073  0.253396  0.814545  0.430026
    O   O15  0.413563  0.945982  0.964719  -0.506434
    C   C34  0.348359  0.968094  0.950627  0.526635
    O   O16  0.483948  0.261954  0.883811  -0.469648
    Fe  Fe2  0.498914  0.981414  0.874667  1.451553
    H   H11  0.494881  0.520552  0.847563  0.198361
    C   C35  0.498110  0.381491  0.764026  0.112617
    C   C36  0.501388  0.376248  0.690765  -0.064679
    C   C37  0.504575  0.503671  0.646324  -0.317189
    C   C38  0.509492  0.635975  0.674413  -0.068029
    H   H12  0.512966  0.736073  0.640934  0.098679
    C   C39  0.504613  0.640319  0.746577  0.068677
    C   C40  0.497058  0.513211  0.791308  -0.172310
    N   N1   0.523787  0.631422  0.525079  -0.279643
    N   N2   0.518388  0.631442  0.457313  -0.281213
    C   C41  0.488353  0.501696  0.433317  0.817377
    N   N3   0.462670  0.372928  0.478937  -0.267867
    N   N4   0.467516  0.373264  0.546651  -0.271330
    C   C42  0.499808  0.501977  0.570414  0.797826
    C   C43  0.483728  0.364734  0.329856  -0.091059
    H   H13  0.478591  0.264566  0.364186  0.095563
    C   C44  0.491890  0.360466  0.257318  0.160382
    C   C45  0.500114  0.486926  0.211882  -0.211488
    H   H14  0.504310  0.480230  0.155296  0.206872
    C   C46  0.498935  0.618352  0.238981  0.100053
    C   C47  0.495082  0.624821  0.311623  -0.010094
    H   H15  0.496692  0.728361  0.332914  0.091498
    C   C48  0.488163  0.497736  0.357081  -0.354158
    C   C49  0.504014  0.239150  0.660047  0.657268
    O   O17  0.445599  0.126965  0.677805  -0.463681
    C   C50  0.578122  0.236685  0.606965  -0.440535
    H   H16  0.623247  0.349518  0.595003  0.055941
    H   H17  0.562551  0.201544  0.556583  0.147528
    H   H18  0.604400  0.156041  0.629986  0.172158
