# generated using pymatgen
data_FeH11C27NO10
_symmetry_space_group_name_H-M   'P 1'
_cell_length_a   16.45421400
_cell_length_b   21.23089200
_cell_length_c   10.98588200
_cell_angle_alpha   112.74895400
_cell_angle_beta   95.43930200
_cell_angle_gamma   109.40215700
_symmetry_Int_Tables_number   1
_chemical_formula_structural   FeH11C27NO10
_chemical_formula_sum   'Fe2 H22 C54 N2 O20'
_cell_volume   3226.41819489
_cell_formula_units_Z   2
loop_
 _symmetry_equiv_pos_site_id
 _symmetry_equiv_pos_as_xyz
  1  'x, y, z'
loop_
 _atom_site_type_symbol
 _atom_site_label
 _atom_site_symmetry_multiplicity
 _atom_site_fract_x
 _atom_site_fract_y
 _atom_site_fract_z
 _atom_site_occupancy
  Fe  Fe1  1  0.51193800  0.99312100  0.25082900  1
  Fe  Fe2  1  0.51009900  0.00329100  0.71698700  1
  H  H1  1  0.80791500  0.96709300  0.20481800  1
  H  H2  1  0.78292500  0.02535400  0.81509000  1
  H  H3  1  0.92822900  0.03001000  0.80158200  1
  H  H4  1  0.07158600  0.02953600  0.78208900  1
  H  H5  1  0.21413200  0.02919500  0.76313500  1
  H  H6  1  0.23908700  0.97068100  0.15256200  1
  H  H7  1  0.09375300  0.96603600  0.16612000  1
  H  H8  1  0.95041000  0.96658900  0.18571200  1
  H  H9  1  0.71093300  0.65299900  0.60243800  1
  H  H10  1  0.72566400  0.56576300  0.68278600  1
  H  H11  1  0.30237100  0.33782700  0.36488000  1
  H  H12  1  0.49903000  0.23332400  0.42392700  1
  H  H13  1  0.59267600  0.28980900  0.90527400  1
  H  H14  1  0.58201400  0.38651400  0.84595900  1
  H  H15  1  0.51765000  0.76116800  0.54291000  1
  H  H16  1  0.42958400  0.70686300  0.06166900  1
  H  H17  1  0.43698700  0.60916500  0.12032700  1
  H  H18  1  0.18161600  0.42437300  0.40707900  1
  H  H19  1  0.24155100  0.51066800  0.40165800  1
  H  H20  1  0.14158400  0.44112800  0.26850100  1
  H  H21  1  0.25961400  0.42194200  0.16224000  1
  H  H22  1  0.21990200  0.35235600  0.21636000  1
  C  C1  1  0.80128400  0.97949100  0.11875600  1
  C  C2  1  0.72442400  0.98557900  0.07194000  1
  C  C3  1  0.71755200  0.00146700  0.96053600  1
  C  C4  1  0.78869800  0.01422900  0.90284900  1
  C  C5  1  0.86449600  0.00730200  0.94949500  1
  C  C6  1  0.87047900  0.98928400  0.05667600  1
  C  C7  1  0.93322800  0.01628500  0.88627500  1
  C  C8  1  0.00790600  0.00693900  0.93004900  1
  C  C9  1  0.01407600  0.98913200  0.03769200  1
  C  C10  1  0.94558000  0.98068900  0.10147300  1
  C  C11  1  0.07641000  0.01541400  0.86629900  1
  C  C12  1  0.15152500  0.00684800  0.91111600  1
  C  C13  1  0.15749800  0.98878400  0.01824300  1
  C  C14  1  0.08875400  0.97977400  0.08144300  1
  C  C15  1  0.22075100  0.01673700  0.84912500  1
  C  C16  1  0.29764100  0.01070700  0.89598500  1
  C  C17  1  0.30447600  0.99470200  0.00724000  1
  C  C18  1  0.23330800  0.98185600  0.06486100  1
  C  C19  1  0.65411900  0.97803300  0.14553200  1
  C  C20  1  0.47289800  0.85072900  0.23008800  1
  C  C21  1  0.38871500  0.00036700  0.07738900  1
  C  C22  1  0.50351700  0.11809900  0.44756900  1
  C  C23  1  0.51733800  0.87766800  0.51983700  1
  C  C24  1  0.63334300  0.99586500  0.89039900  1
  C  C25  1  0.54949300  0.14577400  0.73754900  1
  C  C26  1  0.36800600  0.01837300  0.82253400  1
  C  C27  1  0.41443600  0.55941500  0.33543600  1
  C  C28  1  0.56485800  0.63701000  0.44854000  1
  C  C29  1  0.57287600  0.58661800  0.49345500  1
  C  C30  1  0.50036800  0.52106400  0.45848800  1
  C  C31  1  0.41947400  0.50590200  0.37744700  1
  C  C32  1  0.65343200  0.60197300  0.57391000  1
  C  C33  1  0.66193600  0.55227600  0.62005800  1
  C  C34  1  0.58989600  0.48661900  0.58578200  1
  C  C35  1  0.50960600  0.47121000  0.50508800  1
  C  C36  1  0.43878000  0.40550300  0.47126500  1
  C  C37  1  0.35825600  0.38939800  0.39081200  1
  C  C38  1  0.34719000  0.43821300  0.34293000  1
  C  C39  1  0.59813800  0.43561800  0.62989700  1
  C  C40  1  0.44886500  0.35561700  0.51709400  1
  C  C41  1  0.51951100  0.24579000  0.52997200  1
  C  C42  1  0.52712000  0.19097400  0.56162700  1
  C  C43  1  0.55199700  0.20530000  0.69768700  1
  C  C44  1  0.57311700  0.27662200  0.79873100  1
  C  C45  1  0.56724500  0.33175500  0.76552300  1
  C  C46  1  0.53870000  0.31597000  0.63080700  1
  C  C47  1  0.49837300  0.74918900  0.43690700  1
  C  C48  1  0.49300800  0.80471200  0.40554200  1
  C  C49  1  0.46938600  0.79089400  0.26954500  1
  C  C50  1  0.44803400  0.71962700  0.16816600  1
  C  C51  1  0.45203500  0.66392500  0.20099700  1
  C  C52  1  0.47849900  0.67892300  0.33575500  1
  C  C53  1  0.25632000  0.41336700  0.25509600  1
  C  C54  1  0.20206500  0.45014000  0.33826300  1
  N  N1  1  0.48647700  0.62304600  0.37182600  1
  N  N2  1  0.52805900  0.37095600  0.59435400  1
  O  O1  1  0.59512600  0.00602100  0.13511200  1
  O  O2  1  0.46074200  0.83705500  0.10108800  1
  O  O3  1  0.65517500  0.94931500  0.23179400  1
  O  O4  1  0.49497300  0.91909300  0.32386200  1
  O  O5  1  0.38878900  0.95651300  0.13520500  1
  O  O6  1  0.46256200  0.05776500  0.10361600  1
  O  O7  1  0.56572500  0.09418800  0.41197700  1
  O  O8  1  0.42032000  0.07840000  0.37625800  1
  O  O9  1  0.45561700  0.90214400  0.55584000  1
  O  O10  1  0.60067300  0.91692700  0.59073900  1
  O  O11  1  0.63339900  0.03945800  0.83193600  1
  O  O12  1  0.55935800  0.93875200  0.86491000  1
  O  O13  1  0.36675800  0.04684000  0.73589700  1
  O  O14  1  0.52722200  0.07732500  0.64394200  1
  O  O15  1  0.42725300  0.99069200  0.83341100  1
  O  O16  1  0.56200300  0.15965500  0.86666100  1
  O  O17  1  0.33787500  0.55063300  0.26268800  1
  O  O18  1  0.63582600  0.70020600  0.48013700  1
  O  O19  1  0.67707300  0.44919900  0.70427700  1
  O  O20  1  0.37914900  0.29167300  0.48577000  1
