# Generated by REPEAT Assigner based on pymatgen
data_DB0-m29_o96_o510_f0_pts.sym.100
_audit_creation_date              2022-05-24
_audit_creation_method            REPEAT_Assigner
_cell_length_a                    17.219573
_cell_length_b                    14.311941
_cell_length_c                    19.113951
_cell_angle_alpha                 84.616812
_cell_angle_beta                  90.603027
_cell_angle_gamma                 116.349711
_cell_volume                      4199.955769
_symmetry_space_group_name_H-M    P1
_symmetry_Int_Tables_number       1
loop_
    _symmetry_equiv_pos_site_id
    _symmetry_equiv_pos_as_xyz
    1  x,y,z
loop_
    _atom_site_type_symbol
    _atom_site_label
    _atom_site_fract_x
    _atom_site_fract_y
    _atom_site_fract_z
    _atom_type_partial_charge
    C   C1   0.220052  0.985849  0.108166  -0.288276
    C   C2   0.158689  0.950620  0.161435  0.060443
    C   C3   0.083789  0.948968  0.134205  0.449601
    N   N1   0.095709  0.978331  0.064560  -0.589123
    C   C4   0.178523  0.999701  0.047839  0.589574
    C   C5   0.012281  0.928276  0.172368  -0.437475
    C   C6   0.937647  0.943622  0.146060  0.203798
    C   C7   0.883172  0.964048  0.187659  0.081169
    C   C8   0.821402  0.971761  0.146080  -0.040860
    C   C9   0.839549  0.956566  0.078722  0.211472
    N   N2   0.910220  0.937943  0.079500  -0.166015
    C   C10  0.790139  0.961388  0.016081  -0.408286
    C   C11  0.825135  0.988094  0.950772  0.396341
    C   C12  0.784826  0.004692  0.891181  0.012708
    C   C13  0.845257  0.039628  0.837630  0.013191
    C   C14  0.919720  0.039475  0.864346  0.390824
    N   N3   0.907718  0.008695  0.933952  -0.536581
    C   C15  0.990432  0.058784  0.825736  -0.392733
    C   C16  0.063642  0.040748  0.852102  0.184790
    C   C17  0.116923  0.017812  0.810878  0.067294
    C   C18  0.177751  0.008661  0.852820  -0.022681
    C   C19  0.160260  0.025406  0.919805  0.257620
    N   N4   0.090985  0.046534  0.918691  -0.188983
    C   C20  0.210904  0.022508  0.981709  -0.538713
    H   H1   0.011919  0.909075  0.228353  0.170147
    H   H2   0.725038  0.952396  0.024459  0.198549
    H   H3   0.990676  0.078259  0.769751  0.167700
    H   H4   0.274206  0.028848  0.971062  0.203355
    H   H5   0.935844  0.916573  0.038237  0.262663
    H   H6   0.066757  0.070109  0.959674  0.280131
    C   C21  0.114811  0.003863  0.740726  -0.160488
    C   C22  0.178213  0.982327  0.713019  -0.093873
    C   C23  0.242422  0.975010  0.755036  0.011896
    C   C24  0.241942  0.987220  0.826426  -0.105909
    C   C25  0.305102  0.004162  0.122155  0.317218
    C   C26  0.323010  0.979004  0.190672  -0.034288
    C   C27  0.257625  0.937383  0.242830  -0.039161
    C   C28  0.175375  0.924924  0.228962  -0.241994
    C   C29  0.885571  0.977695  0.257859  -0.161716
    C   C30  0.821683  0.997618  0.286178  -0.101749
    C   C31  0.756636  0.003794  0.244769  0.004897
    C   C32  0.756635  0.991744  0.173175  -0.084980
    C   C33  0.700590  0.988449  0.879866  -0.228748
    C   C34  0.680537  0.012183  0.811987  0.082063
    C   C35  0.744498  0.053019  0.758449  -0.028106
    C   C36  0.827288  0.065635  0.770647  -0.234895
    H   H7   0.065828  0.009852  0.707430  0.139113
    H   H8   0.291058  0.981740  0.859792  0.137841
    H   H9   0.270988  0.918716  0.296286  0.152051
    H   H10  0.126636  0.895525  0.271005  0.145350
    H   H11  0.935348  0.973077  0.290775  0.142929
    H   H12  0.706989  0.996493  0.140117  0.131567
    H   H13  0.651338  0.956583  0.921621  0.133482
    H   H14  0.729655  0.070908  0.705304  0.133015
    H   H15  0.875099  0.094387  0.727896  0.143493
    H   H16  0.177540  0.972839  0.657581  0.134030
    H   H17  0.822883  0.007107  0.341636  0.134737
    O   O1   0.620527  0.017362  0.244759  -0.629193
    C   C37  0.687157  0.018085  0.279276  0.644850
    O   O2   0.500206  0.799261  0.338537  -0.570074
    O   O3   0.687924  0.023169  0.347471  -0.553235
    O   O4   0.508459  0.926463  0.405398  -0.575229
    C   C38  0.494831  0.829684  0.400210  0.647532
    Fe  Fe1  0.533627  0.012677  0.313737  1.506425
    O   O5   0.417509  0.947378  0.269996  -0.674942
    O   O6   0.479194  0.080852  0.183599  -0.470320
    C   C39  0.410669  0.999177  0.211937  0.663690
    O   O7   0.584621  0.162709  0.334995  -0.641065
    O   O8   0.444746  0.134578  0.329156  -0.504887
    C   C40  0.523661  0.190765  0.349158  0.682877
    C   C41  0.531471  0.243273  0.412719  0.064740
    C   C42  0.518440  0.331793  0.413112  -0.318379
    H   H18  0.512479  0.371416  0.363848  0.149917
    C   C43  0.512017  0.368964  0.476292  0.320703
    C   C44  0.512368  0.311865  0.539067  -0.242382
    H   H19  0.499298  0.332891  0.588738  0.156314
    C   C45  0.521235  0.220756  0.538293  0.035787
    C   C46  0.533873  0.189194  0.475295  -0.129548
    C   C47  0.496542  0.462773  0.474356  -0.217353
    C   C48  0.509419  0.519879  0.529161  -0.211681
    C   C49  0.487283  0.650928  0.590274  -0.324848
    H   H20  0.493513  0.611628  0.639587  0.148506
    C   C50  0.473540  0.738993  0.590515  0.070143
    C   C51  0.470259  0.792322  0.527821  -0.112915
    C   C52  0.482761  0.760520  0.464835  0.008381
    C   C53  0.492663  0.670067  0.464291  -0.229402
    H   H21  0.505635  0.648942  0.414635  0.151792
    C   C54  0.493745  0.613584  0.527157  0.318585
    H   H22  0.538650  0.116633  0.473935  0.122603
    H   H23  0.464576  0.864345  0.529042  0.117112
    H   H24  0.473400  0.484108  0.425610  0.153408
    H   H25  0.532511  0.498459  0.577917  0.149174
    O   O9   0.582279  0.035115  0.733106  -0.655742
    O   O10  0.525307  0.910041  0.825906  -0.520227
    C   C55  0.591872  0.988992  0.792828  0.621108
    O   O11  0.417871  0.817245  0.668008  -0.642097
    O   O12  0.558421  0.848619  0.674645  -0.522401
    C   C56  0.480015  0.791069  0.654144  0.678318
    O   O13  0.503599  0.181151  0.664463  -0.574206
    O   O14  0.378286  0.961021  0.757096  -0.609990
    C   C57  0.312187  0.960198  0.721610  0.615614
    O   O15  0.491555  0.053018  0.596946  -0.571964
    C   C58  0.507662  0.150559  0.602572  0.627764
    O   O16  0.312729  0.955566  0.653407  -0.548580
    Fe  Fe2  0.466613  0.967395  0.688824  1.515516
    N   N5   0.372926  0.048692  0.070435  -0.642657
    C   C59  0.404162  0.152973  0.053570  0.883113
    O   O17  0.386209  0.205668  0.090918  -0.566142
    C   C60  0.462132  0.204317  0.989998  -0.539676
    H   H26  0.376880  0.004037  0.032719  0.308461
    H   H27  0.427356  0.171195  0.942370  0.122904
    H   H28  0.520619  0.190672  0.994730  0.144552
    H   H29  0.481887  0.289750  0.985546  0.149826
