# generated using pymatgen
data_Cu6H54C91O24
_symmetry_space_group_name_H-M   'P 1'
_cell_length_a   18.56821500
_cell_length_b   18.57246400
_cell_length_c   18.72687200
_cell_angle_alpha   109.20482500
_cell_angle_beta   109.80842000
_cell_angle_gamma   109.05031800
_symmetry_Int_Tables_number   1
_chemical_formula_structural   Cu6H54C91O24
_chemical_formula_sum   'Cu6 H54 C91 O24'
_cell_volume   4992.63045454
_cell_formula_units_Z   1
loop_
 _symmetry_equiv_pos_site_id
 _symmetry_equiv_pos_as_xyz
  1  'x, y, z'
loop_
 _atom_site_type_symbol
 _atom_site_label
 _atom_site_symmetry_multiplicity
 _atom_site_fract_x
 _atom_site_fract_y
 _atom_site_fract_z
 _atom_site_occupancy
  Cu  Cu1  1  0.46842800  0.39969100  0.40631900  1
  Cu  Cu2  1  0.47166800  0.52313900  0.53257100  1
  Cu  Cu3  1  0.91557800  0.39985900  0.97734000  1
  Cu  Cu4  1  0.03110400  0.52224500  0.96849800  1
  Cu  Cu5  1  0.90733700  0.96121600  0.41552800  1
  Cu  Cu6  1  0.03781700  0.96170000  0.52862200  1
  H  H1  1  0.17485200  0.56348000  0.29364100  1
  H  H2  1  0.29104700  0.54262200  0.14830700  1
  H  H3  1  0.29292100  0.39638700  0.16121300  1
  H  H4  1  0.11776700  0.33181400  0.12607300  1
  H  H5  1  0.17968200  0.42112300  0.30587100  1
  H  H6  1  0.59899700  0.60067000  0.34867800  1
  H  H7  1  0.72410600  0.65169900  0.64019300  1
  H  H8  1  0.85876300  0.76363500  0.77453300  1
  H  H9  1  0.96716000  0.88550200  0.77807600  1
  H  H10  1  0.94175300  0.89434100  0.64709600  1
  H  H11  1  0.71096400  0.71619200  0.35009400  1
  H  H12  1  0.71831000  0.57930100  0.72767500  1
  H  H13  1  0.50494400  0.27745900  0.52945300  1
  H  H14  1  0.49972000  0.14176600  0.51445800  1
  H  H15  1  0.62390100  0.14203600  0.61759100  1
  H  H16  1  0.75202300  0.27789500  0.73698800  1
  H  H17  1  0.83510300  0.57953600  0.83702900  1
  H  H18  1  0.33792200  0.20513100  0.46733800  1
  H  H19  1  0.22259200  0.39266300  0.43041000  1
  H  H20  1  0.09350600  0.39972300  0.42317600  1
  H  H21  1  0.01047900  0.17990900  0.45859600  1
  H  H22  1  0.22831900  0.09429300  0.47296800  1
  H  H23  1  0.99624300  0.60482900  0.23953900  1
  H  H24  1  0.90732100  0.65006600  0.99556200  1
  H  H25  1  0.87845300  0.75930500  0.97088200  1
  H  H26  1  0.93631700  0.89477800  0.23114000  1
  H  H27  1  0.99901400  0.71980500  0.35314700  1
  H  H28  1  0.84642800  0.20535400  0.71542600  1
  H  H29  1  0.14633600  0.38837800  0.94115300  1
  H  H30  1  0.28285100  0.39595500  0.95545300  1
  H  H31  1  0.28459500  0.29200800  0.83546300  1
  H  H32  1  0.14981400  0.17933200  0.70203600  1
  H  H33  1  0.84677100  0.09514600  0.60036600  1
  H  H34  1  0.22686200  0.69608100  0.30438700  1
  H  H35  1  0.24634700  0.66732400  0.21232400  1
  H  H36  1  0.28086400  0.77841900  0.28301100  1
  H  H37  1  0.42146800  0.86758500  0.39085600  1
  H  H38  1  0.56794200  0.89505900  0.48098300  1
  H  H39  1  0.59277300  0.77217100  0.47651800  1
  H  H40  1  0.47227700  0.62347200  0.38389500  1
  H  H41  1  0.09275700  0.40994000  0.61250700  1
  H  H42  1  0.04655900  0.48155000  0.62488800  1
  H  H43  1  0.09819500  0.47595000  0.55929100  1
  H  H44  1  0.89702000  0.41809200  0.54112400  1
  H  H45  1  0.75450100  0.29664700  0.41737400  1
  H  H46  1  0.74644000  0.17253400  0.30700200  1
  H  H47  1  0.88170500  0.17092800  0.31980700  1
  H  H48  1  0.06511900  0.95880100  0.12613100  1
  H  H49  1  0.05879600  0.00832300  0.05791100  1
  H  H50  1  0.00011600  0.89123300  0.00802200  1
  H  H51  1  0.96435600  0.06362900  0.04077400  1
  H  H52  1  0.84157100  0.07694200  0.05216200  1
  H  H53  1  0.75129000  0.98025300  0.08744100  1
  H  H54  1  0.78305400  0.86874300  0.10965500  1
  C  C1  1  0.60086300  0.57875900  0.48046500  1
  C  C2  1  0.36207400  0.47651600  0.35429600  1
  C  C3  1  0.33984900  0.34393900  0.45904100  1
  C  C4  1  0.57706000  0.44532900  0.58463300  1
  C  C5  1  0.29887400  0.56386700  0.28193900  1
  C  C6  1  0.20466100  0.52894900  0.26429700  1
  C  C7  1  0.17325400  0.47978200  0.16804300  1
  C  C8  1  0.26647400  0.51505700  0.18488700  1
  C  C9  1  0.26639000  0.43521700  0.19112000  1
  C  C10  1  0.17217800  0.40012100  0.17278700  1
  C  C11  1  0.20461800  0.44900400  0.26971800  1
  C  C12  1  0.29816700  0.48411100  0.28751400  1
  C  C13  1  0.76929600  0.70433800  0.63865100  1
  C  C14  1  0.84636300  0.76736000  0.71548500  1
  C  C15  1  0.90719600  0.83531500  0.71737100  1
  C  C16  1  0.89231900  0.83924000  0.64196200  1
  C  C17  1  0.81584400  0.77479500  0.56332500  1
  C  C18  1  0.75223800  0.70846200  0.56234500  1
  C  C19  1  0.67336900  0.64609600  0.48473500  1
  C  C20  1  0.66024400  0.64870000  0.40894500  1
  C  C21  1  0.72287000  0.71438800  0.40995800  1
  C  C22  1  0.80078500  0.77716800  0.48622800  1
  C  C23  1  0.56151800  0.28108500  0.57592900  1
  C  C24  1  0.55731600  0.20317100  0.56737700  1
  C  C25  1  0.62655900  0.20332100  0.62538500  1
  C  C26  1  0.69896600  0.28136500  0.69400100  1
  C  C27  1  0.70304200  0.36068100  0.70528100  1
  C  C28  1  0.63539700  0.36054600  0.64325000  1
  C  C29  1  0.64167600  0.43987400  0.65085400  1
  C  C30  1  0.71301300  0.51757900  0.72129400  1
  C  C31  1  0.77949300  0.51772300  0.78259600  1
  C  C32  1  0.77488700  0.44016600  0.77600200  1
  C  C33  1  0.17860300  0.34526100  0.43828900  1
  C  C34  1  0.10496500  0.34985200  0.43405200  1
  C  C35  1  0.04590400  0.29093500  0.44297700  1
  C  C36  1  0.05837800  0.22451700  0.45172300  1
  C  C37  1  0.13116900  0.21745500  0.45363900  1
  C  C38  1  0.19348400  0.28035300  0.44998800  1
  C  C39  1  0.26859300  0.27612600  0.45566400  1
  C  C40  1  0.27953300  0.20840500  0.46251900  1
  C  C41  1  0.21830800  0.14656600  0.46673000  1
  C  C42  1  0.14390400  0.14998900  0.46173700  1
  C  C43  1  0.96512700  0.57991300  0.08348700  1
  C  C44  1  0.10011200  0.47444500  0.09781600  1
  C  C45  1  0.98236700  0.34237200  0.86330800  1
  C  C46  1  0.84658200  0.44588800  0.84618300  1
  C  C47  1  0.98156900  0.08048300  0.59645300  1
  C  C48  1  0.86447300  0.84518500  0.48234500  1
  C  C49  1  0.96701300  0.84604400  0.34755100  1
  C  C50  1  0.08077300  0.08122200  0.46538300  1
  C  C51  1  0.91613900  0.70347900  0.04976000  1
  C  C52  1  0.89935700  0.76559200  0.03499400  1
  C  C53  1  0.90881600  0.83510100  0.10133400  1
  C  C54  1  0.92970600  0.83927700  0.18104400  1
  C  C55  1  0.94421500  0.77555600  0.19620600  1
  C  C56  1  0.94125500  0.70911000  0.13102400  1
  C  C57  1  0.96099800  0.64785800  0.14713300  1
  C  C58  1  0.98058800  0.65202100  0.22667000  1
  C  C59  1  0.98312700  0.71741800  0.29099800  1
  C  C60  1  0.96433800  0.77886000  0.27642300  1
  C  C61  1  0.14366200  0.34149800  0.88633200  1
  C  C62  1  0.22193500  0.34593700  0.89560100  1
  C  C63  1  0.22285200  0.28748700  0.82861800  1
  C  C64  1  0.14528100  0.22274700  0.75300900  1
  C  C65  1  0.06530300  0.21563800  0.74349600  1
  C  C66  1  0.06489500  0.27776900  0.80958400  1
  C  C67  1  0.98571600  0.27443600  0.79895700  1
  C  C68  1  0.90801000  0.20800700  0.72417200  1
  C  C69  1  0.90833200  0.14652700  0.65883700  1
  C  C70  1  0.98610300  0.14915500  0.66789700  1
  C  C71  1  0.37273800  0.65803000  0.33848400  1
  C  C72  1  0.36006700  0.72812900  0.33786600  1
  C  C73  1  0.27311700  0.71590200  0.28090900  1
  C  C74  1  0.43051800  0.81272300  0.38983700  1
  C  C75  1  0.51341400  0.82873300  0.44081900  1
  C  C76  1  0.52716300  0.75999600  0.43855400  1
  C  C77  1  0.45778500  0.67550900  0.38704000  1
  C  C78  1  0.96674600  0.29463800  0.43737600  1
  C  C79  1  0.97138000  0.36433600  0.50034100  1
  C  C80  1  0.05745600  0.43711900  0.57869600  1
  C  C81  1  0.89470800  0.36453300  0.49260000  1
  C  C82  1  0.81418400  0.29605500  0.42305500  1
  C  C83  1  0.80964700  0.22648100  0.36128400  1
  C  C84  1  0.88569300  0.22562300  0.36870200  1
  C  C85  1  0.89127300  0.90172600  0.08638700  1
  C  C86  1  0.94304400  0.95706100  0.06751000  1
  C  C87  1  0.02122500  0.95328100  0.06470900  1
  C  C88  1  0.92461300  0.01981700  0.05522400  1
  C  C89  1  0.85559500  0.02773300  0.06184400  1
  C  C90  1  0.80507700  0.97364200  0.08168900  1
  C  C91  1  0.82315900  0.91115500  0.09431400  1
  O  O1  1  0.56435500  0.49729800  0.41964900  1
  O  O2  1  0.57198800  0.60323300  0.53400800  1
  O  O3  1  0.38927600  0.42157800  0.32763000  1
  O  O4  1  0.38672200  0.52348100  0.43652200  1
  O  O5  1  0.36843600  0.31947400  0.40523000  1
  O  O6  1  0.37555300  0.42562500  0.51908900  1
  O  O7  1  0.55344500  0.39954400  0.50245800  1
  O  O8  1  0.55054600  0.50101200  0.61123300  1
  O  O9  1  0.91517600  0.49775100  0.05854800  1
  O  O10  1  0.01483800  0.60345400  0.05056900  1
  O  O11  1  0.01933500  0.42099000  0.07387800  1
  O  O12  1  0.11949300  0.52172100  0.06152700  1
  O  O13  1  0.92663000  0.31802500  0.89012000  1
  O  O14  1  0.02678200  0.42384000  0.88271000  1
  O  O15  1  0.82721600  0.40032600  0.88421900  1
  O  O16  1  0.92751800  0.50101000  0.87168300  1
  O  O17  1  0.93780800  0.06603500  0.51645500  1
  O  O18  1  0.01780900  0.03360000  0.61435800  1
  O  O19  1  0.83652500  0.88892700  0.44776700  1
  O  O20  1  0.94497700  0.85659700  0.50892300  1
  O  O21  1  0.89733000  0.85673800  0.33198200  1
  O  O22  1  0.03802000  0.89011100  0.42549600  1
  O  O23  1  0.99832000  0.03396800  0.40103300  1
  O  O24  1  0.11046600  0.06697000  0.53121000  1
