# generated using pymatgen
data_ZnH17C22N3O7
_symmetry_space_group_name_H-M   'P 1'
_cell_length_a   23.38324600
_cell_length_b   11.14108800
_cell_length_c   9.93498200
_cell_angle_alpha   89.99737600
_cell_angle_beta   89.98148700
_cell_angle_gamma   90.01129300
_symmetry_Int_Tables_number   1
_chemical_formula_structural   ZnH17C22N3O7
_chemical_formula_sum   'Zn2 H34 C44 N6 O14'
_cell_volume   2588.20967466
_cell_formula_units_Z   2
loop_
 _symmetry_equiv_pos_site_id
 _symmetry_equiv_pos_as_xyz
  1  'x, y, z'
loop_
 _atom_site_type_symbol
 _atom_site_label
 _atom_site_symmetry_multiplicity
 _atom_site_fract_x
 _atom_site_fract_y
 _atom_site_fract_z
 _atom_site_occupancy
  Zn  Zn1  1  0.51214600  0.48191200  0.62557000  1
  Zn  Zn2  1  0.50365700  0.48289800  0.31946100  1
  H  H1  1  0.96064400  0.23297500  0.29102700  1
  H  H2  1  0.06365600  0.23125400  0.30829300  1
  H  H3  1  0.05623300  0.75968900  0.62231400  1
  H  H4  1  0.95323000  0.76104900  0.60581000  1
  H  H5  1  0.22577400  0.65157900  0.37388500  1
  H  H6  1  0.33028000  0.64563900  0.37943000  1
  H  H7  1  0.21892400  0.33139300  0.60648900  1
  H  H8  1  0.79589700  0.49464800  0.65395000  1
  H  H9  1  0.69248600  0.48964600  0.66105600  1
  H  H10  1  0.68745600  0.48227000  0.23000900  1
  H  H11  1  0.79179500  0.48841300  0.22479000  1
  H  H12  1  0.50584900  0.87159000  0.26838500  1
  H  H13  1  0.50818400  0.88792000  0.57667500  1
  H  H14  1  0.50502800  0.09243400  0.26807100  1
  H  H15  1  0.51158100  0.07676500  0.57576200  1
  H  H16  1  0.50188200  0.66077000  0.85478700  1
  H  H17  1  0.53545100  0.40796000  0.87551400  1
  H  H18  1  0.54449100  0.63718200  0.09778600  1
  H  H19  1  0.49803500  0.26718200  0.11078300  1
  H  H20  1  0.45900600  0.25618000  0.95639900  1
  H  H21  1  0.40736800  0.26594900  0.23981400  1
  H  H22  1  0.40893600  0.14231600  0.12497200  1
  H  H23  1  0.34590500  0.40952500  0.21595700  1
  H  H24  1  0.31006000  0.43456500  0.06206600  1
  H  H25  1  0.40080400  0.56298500  0.11335900  1
  H  H26  1  0.38804700  0.50567900  0.94738000  1
  H  H27  1  0.29933400  0.34696400  0.80761600  1
  H  H28  1  0.36226500  0.25381000  0.80874600  1
  H  H29  1  0.23878300  0.17628600  0.74790200  1
  H  H30  1  0.28491400  0.13127100  0.88062400  1
  H  H31  1  0.25483200  0.12445900  0.53944800  1
  H  H32  1  0.31001300  0.02001600  0.49684700  1
  H  H33  1  0.33308800  0.22832400  0.42408400  1
  H  H34  1  0.38487000  0.16558100  0.53912900  1
  C  C1  1  0.50857200  0.24759000  0.47266200  1
  C  C2  1  0.39642800  0.48135500  0.49319500  1
  C  C3  1  0.50742600  0.71709900  0.47301100  1
  C  C4  1  0.61952200  0.48361300  0.45188600  1
  C  C5  1  0.88907200  0.58970800  0.49548200  1
  C  C6  1  0.89156900  0.40397400  0.38462000  1
  C  C7  1  0.95070300  0.40290100  0.39105900  1
  C  C8  1  0.97900300  0.49673000  0.45187100  1
  C  C9  1  0.94810500  0.59114200  0.50367200  1
  C  C10  1  0.98169100  0.30782500  0.33928200  1
  C  C11  1  0.04049500  0.30683400  0.34918600  1
  C  C12  1  0.06877400  0.40079900  0.41116700  1
  C  C13  1  0.03788000  0.49574000  0.46179800  1
  C  C14  1  0.06613900  0.58946200  0.52288800  1
  C  C15  1  0.03519400  0.68487200  0.57397700  1
  C  C16  1  0.97640200  0.68570900  0.56440000  1
  C  C17  1  0.12774900  0.40081400  0.42251300  1
  C  C18  1  0.12513900  0.58676500  0.53291100  1
  C  C19  1  0.24718500  0.58098300  0.42894800  1
  C  C20  1  0.30601400  0.57727400  0.43143900  1
  C  C21  1  0.33401300  0.48655000  0.49906800  1
  C  C22  1  0.30301200  0.39788100  0.56347900  1
  C  C23  1  0.24383400  0.40123000  0.55963500  1
  C  C24  1  0.21585500  0.49255600  0.49228100  1
  C  C25  1  0.77220000  0.49280500  0.56054700  1
  C  C26  1  0.71340300  0.48929700  0.56408700  1
  C  C27  1  0.68223200  0.48573700  0.44582400  1
  C  C28  1  0.71079700  0.48496200  0.32382200  1
  C  C29  1  0.76987100  0.48799800  0.32061300  1
  C  C30  1  0.80074900  0.49253800  0.43911100  1
  C  C31  1  0.50673000  0.91564200  0.36557800  1
  C  C32  1  0.50745100  0.84857200  0.47751100  1
  C  C33  1  0.50682900  0.04871000  0.36524400  1
  C  C34  1  0.50917400  0.11606300  0.47672700  1
  C  C35  1  0.51158800  0.57495100  0.90062800  1
  C  C36  1  0.51968200  0.56803400  0.04805600  1
  C  C37  1  0.45791400  0.29347400  0.05984300  1
  C  C38  1  0.40692200  0.24156900  0.13191000  1
  C  C39  1  0.35063800  0.40099700  0.10584400  1
  C  C40  1  0.39886400  0.47986900  0.05213300  1
  C  C41  1  0.32080800  0.27003200  0.75802800  1
  C  C42  1  0.28406400  0.15826700  0.77321000  1
  C  C43  1  0.29948700  0.09784200  0.56188200  1
  C  C44  1  0.34040000  0.19877300  0.52921600  1
  N  N1  1  0.86176400  0.49640300  0.43737700  1
  N  N2  1  0.15492400  0.49297000  0.48327500  1
  N  N3  1  0.52016100  0.48243700  0.82612500  1
  N  N4  1  0.49686600  0.48360200  0.11840000  1
  N  N5  1  0.45434500  0.42223900  0.05152400  1
  N  N6  1  0.33213800  0.29847200  0.61911400  1
  O  O1  1  0.51124200  0.30328400  0.58838900  1
  O  O2  1  0.50571600  0.30402300  0.35682800  1
  O  O3  1  0.42586100  0.48057600  0.60584300  1
  O  O4  1  0.42020400  0.48284300  0.37378600  1
  O  O5  1  0.51005700  0.66068600  0.58891900  1
  O  O6  1  0.50524700  0.66187500  0.35604800  1
  O  O7  1  0.59563700  0.48329400  0.57141700  1
  O  O8  1  0.58994500  0.48340500  0.33925000  1
  O  O9  1  0.85861900  0.68211800  0.54469800  1
  O  O10  1  0.86351300  0.31067900  0.32994700  1
  O  O11  1  0.15832600  0.31004900  0.37000400  1
  O  O12  1  0.15298000  0.67675600  0.59470700  1
  O  O13  1  0.35722900  0.28104800  0.06874500  1
  O  O14  1  0.30587800  0.06384200  0.69627000  1
