# generated using pymatgen
data_ZnH18C21N3O5
_symmetry_space_group_name_H-M   'P 1'
_cell_length_a   15.95328100
_cell_length_b   14.80326500
_cell_length_c   19.33561200
_cell_angle_alpha   90.00000000
_cell_angle_beta   90.00627200
_cell_angle_gamma   90.00000000
_symmetry_Int_Tables_number   1
_chemical_formula_structural   ZnH18C21N3O5
_chemical_formula_sum   'Zn2 H36 C42 N6 O10'
_cell_volume   4566.31059844
_cell_formula_units_Z   2
loop_
 _symmetry_equiv_pos_site_id
 _symmetry_equiv_pos_as_xyz
  1  'x, y, z'
loop_
 _atom_site_type_symbol
 _atom_site_label
 _atom_site_symmetry_multiplicity
 _atom_site_fract_x
 _atom_site_fract_y
 _atom_site_fract_z
 _atom_site_occupancy
  Zn  Zn1  1  0.50039600  0.60284400  0.50050400  1
  Zn  Zn2  1  0.50040100  0.39716500  0.50052000  1
  H  H1  1  0.53943400  0.63823800  0.28036700  1
  H  H2  1  0.46166500  0.36171800  0.28033800  1
  H  H3  1  0.54030600  0.63804600  0.15505700  1
  H  H4  1  0.46081500  0.36193300  0.15503400  1
  H  H5  1  0.45805000  0.63603500  0.71950600  1
  H  H6  1  0.54309500  0.36402600  0.71948500  1
  H  H7  1  0.93438600  0.57598500  0.59518000  1
  H  H8  1  0.92583500  0.40833100  0.58746500  1
  H  H9  1  0.07493900  0.59167700  0.58745900  1
  H  H10  1  0.06639100  0.42402400  0.59517400  1
  H  H11  1  0.07492300  0.35591400  0.51795200  1
  H  H12  1  0.06637700  0.64497300  0.50369000  1
  H  H13  1  0.93436400  0.35503600  0.50369500  1
  H  H14  1  0.92582400  0.64409500  0.51796000  1
  H  H15  1  0.07490000  0.55242100  0.39638800  1
  H  H16  1  0.06635400  0.43101500  0.40293500  1
  H  H17  1  0.93434500  0.56899500  0.40294200  1
  H  H18  1  0.92579700  0.44758900  0.39639400  1
  H  H19  1  0.36428800  0.92016300  0.51270700  1
  H  H20  1  0.36767500  0.07182700  0.52481500  1
  H  H21  1  0.59145700  0.07177500  0.57902200  1
  H  H22  1  0.58041400  0.92016900  0.58750200  1
  H  H23  1  0.48474800  0.07981200  0.60969300  1
  H  H24  1  0.46995800  0.92820200  0.60717500  1
  H  H25  1  0.53644400  0.07183700  0.39204500  1
  H  H26  1  0.55085000  0.92018700  0.39566900  1
  H  H27  1  0.62199800  0.07984300  0.45296900  1
  H  H28  1  0.62675200  0.92820300  0.46475200  1
  H  H29  1  0.38885100  0.07985200  0.43323000  1
  H  H30  1  0.39883900  0.92818300  0.42393500  1
  H  H31  1  0.42585000  0.71154900  0.81644200  1
  H  H32  1  0.49455800  0.69033800  0.88723200  1
  H  H33  1  0.33011800  0.62571000  0.86186000  1
  H  H34  1  0.57530300  0.28848500  0.81642100  1
  H  H35  1  0.50660200  0.30967800  0.88720700  1
  H  H36  1  0.67103700  0.37431600  0.86186300  1
  C  C1  1  0.33653100  0.50000400  0.50065600  1
  C  C2  1  0.50054100  0.49998800  0.36509900  1
  C  C3  1  0.66420800  0.50000500  0.50067700  1
  C  C4  1  0.50056400  0.50002200  0.63590000  1
  C  C5  1  0.52199200  0.57719900  0.25330600  1
  C  C6  1  0.47910400  0.42276700  0.25329400  1
  C  C7  1  0.52301900  0.57688100  0.18200500  1
  C  C8  1  0.47809300  0.42309500  0.18199300  1
  C  C9  1  0.50055900  0.49999000  0.14593900  1
  C  C10  1  0.50054200  0.49998300  0.28932300  1
  C  C11  1  0.50057700  0.50000200  0.93169500  1
  C  C12  1  0.50056700  0.49999400  0.07012000  1
  C  C13  1  0.47621300  0.57688600  0.81903700  1
  C  C14  1  0.52493800  0.42314600  0.81902900  1
  C  C15  1  0.47745200  0.57651300  0.74757200  1
  C  C16  1  0.52369100  0.42353500  0.74756400  1
  C  C17  1  0.50056600  0.50002600  0.71171200  1
  C  C18  1  0.50057700  0.50001100  0.85552900  1
  C  C19  1  0.04769000  0.58545200  0.53491400  1
  C  C20  1  0.04768900  0.41846500  0.54009800  1
  C  C21  1  0.95306300  0.41455700  0.53491800  1
  C  C22  1  0.95306600  0.58154400  0.54010300  1
  C  C23  1  0.75413600  0.50000700  0.50064000  1
  C  C24  1  0.07942500  0.50000400  0.50059900  1
  C  C25  1  0.92131400  0.50000600  0.50060700  1
  C  C26  1  0.95304100  0.50391500  0.42679300  1
  C  C27  1  0.04766800  0.49609500  0.42678900  1
  C  C28  1  0.82965100  0.50000700  0.50061800  1
  C  C29  1  0.17108800  0.50000200  0.50060300  1
  C  C30  1  0.24660300  0.50000200  0.50061900  1
  C  C31  1  0.41102400  0.05104000  0.48290700  1
  C  C32  1  0.41258000  0.94897100  0.47785600  1
  C  C33  1  0.52578400  0.05100300  0.56900200  1
  C  C34  1  0.51969100  0.94898400  0.57040600  1
  C  C35  1  0.49852900  0.08521000  0.49863800  1
  C  C36  1  0.49852700  0.91479900  0.49862500  1
  C  C37  1  0.56328400  0.94899000  0.44760600  1
  C  C38  1  0.55876700  0.05104000  0.44397400  1
  C  C39  1  0.49866300  0.81600400  0.49875200  1
  C  C40  1  0.49866200  0.18400400  0.49878100  1
  C  C41  1  0.44472900  0.65989000  0.85487200  1
  C  C42  1  0.55642700  0.34013400  0.85485600  1
  N  N1  1  0.45889600  0.43557400  0.03512600  1
  N  N2  1  0.54224400  0.56441700  0.03514200  1
  N  N3  1  0.45858600  0.43583900  0.96676700  1
  N  N4  1  0.54256400  0.56416100  0.96678400  1
  N  N5  1  0.49895700  0.73785800  0.49904200  1
  N  N6  1  0.49895500  0.26215100  0.49908000  1
  O  O1  1  0.37544000  0.57805900  0.50011500  1
  O  O2  1  0.37544300  0.42194900  0.50063500  1
  O  O3  1  0.50064200  0.57799300  0.39741100  1
  O  O4  1  0.49992400  0.42199500  0.39742400  1
  O  O5  1  0.62528000  0.57801700  0.50063800  1
  O  O6  1  0.62528400  0.42199400  0.50014100  1
  O  O7  1  0.49993400  0.57794900  0.60353500  1
  O  O8  1  0.50066500  0.42208200  0.60354800  1
  O  O9  1  0.37527400  0.63865100  0.89555500  1
  O  O10  1  0.62588500  0.36136500  0.89555000  1
