# generated using pymatgen
data_ZnH15C21NO6
_symmetry_space_group_name_H-M   'P 1'
_cell_length_a   17.79134900
_cell_length_b   16.64717400
_cell_length_c   10.76888300
_cell_angle_alpha   90.00000000
_cell_angle_beta   90.01080700
_cell_angle_gamma   90.00000000
_symmetry_Int_Tables_number   1
_chemical_formula_structural   ZnH15C21NO6
_chemical_formula_sum   'Zn2 H30 C42 N2 O12'
_cell_volume   3189.48121553
_cell_formula_units_Z   2
loop_
 _symmetry_equiv_pos_site_id
 _symmetry_equiv_pos_as_xyz
  1  'x, y, z'
loop_
 _atom_site_type_symbol
 _atom_site_label
 _atom_site_symmetry_multiplicity
 _atom_site_fract_x
 _atom_site_fract_y
 _atom_site_fract_z
 _atom_site_occupancy
  Zn  Zn1  1  0.50021100  0.59161700  0.49963200  1
  Zn  Zn2  1  0.49978800  0.40839800  0.50036800  1
  H  H1  1  0.38837300  0.43215000  0.92343300  1
  H  H2  1  0.61159900  0.56798700  0.07656700  1
  H  H3  1  0.38935900  0.56855000  0.07891900  1
  H  H4  1  0.61067100  0.43159600  0.92108900  1
  H  H5  1  0.49993500  0.63777200  0.92530500  1
  H  H6  1  0.50007300  0.36231400  0.07468100  1
  H  H7  1  0.87689900  0.62750300  0.49633700  1
  H  H8  1  0.12298300  0.37265900  0.50382000  1
  H  H9  1  0.12282500  0.62826700  0.50055900  1
  H  H10  1  0.87729200  0.37189300  0.49928000  1
  H  H11  1  0.74007000  0.62807900  0.49508000  1
  H  H12  1  0.25983500  0.37193800  0.50503600  1
  H  H13  1  0.25974400  0.62916300  0.50168400  1
  H  H14  1  0.74035100  0.37085300  0.49818200  1
  H  H15  1  0.44525700  0.86834500  0.32499100  1
  H  H16  1  0.55462800  0.13166600  0.67511400  1
  H  H17  1  0.55607500  0.86824800  0.67346000  1
  H  H18  1  0.44403700  0.13176700  0.32643300  1
  H  H19  1  0.33880300  0.77325400  0.26458800  1
  H  H20  1  0.34520600  0.73355800  0.42117500  1
  H  H21  1  0.32965000  0.66666667  0.29177500  1
  H  H22  1  0.65482000  0.26620400  0.57890200  1
  H  H23  1  0.66112900  0.22656300  0.73554600  1
  H  H24  1  0.67046100  0.33313700  0.70825000  1
  H  H25  1  0.66300700  0.77365100  0.73228600  1
  H  H26  1  0.65631200  0.73383400  0.57580500  1
  H  H27  1  0.67250900  0.66708600  0.70519100  1
  H  H28  1  0.34366300  0.26592400  0.42412500  1
  H  H29  1  0.33705900  0.22617200  0.26758200  1
  H  H30  1  0.32737800  0.33270000  0.29480200  1
  C  C1  1  0.35277000  0.50048800  0.49920200  1
  C  C2  1  0.64723000  0.49952600  0.50079800  1
  C  C3  1  0.50089500  0.49961500  0.25731800  1
  C  C4  1  0.49910400  0.50041500  0.74268200  1
  C  C5  1  0.43961200  0.53744100  0.04152000  1
  C  C6  1  0.56039000  0.46265500  0.95848400  1
  C  C7  1  0.49997500  0.57511400  0.96025300  1
  C  C8  1  0.50002300  0.42497400  0.03973800  1
  C  C9  1  0.43910800  0.46290100  0.95982000  1
  C  C10  1  0.56088600  0.53719400  0.04018400  1
  C  C11  1  0.49948100  0.50054900  0.88080200  1
  C  C12  1  0.50051700  0.49952900  0.11919800  1
  C  C13  1  0.84660700  0.57122400  0.49735600  1
  C  C14  1  0.15333800  0.42889900  0.50272800  1
  C  C15  1  0.15324300  0.57205600  0.50091300  1
  C  C16  1  0.84681200  0.42806600  0.49899800  1
  C  C17  1  0.76911900  0.57122300  0.49718000  1
  C  C18  1  0.23083100  0.42882400  0.50288800  1
  C  C19  1  0.23076200  0.57224800  0.50106400  1
  C  C20  1  0.76928800  0.42779800  0.49885600  1
  C  C21  1  0.72984300  0.49946900  0.49922300  1
  C  C22  1  0.27015700  0.50055200  0.50077300  1
  C  C23  1  0.88548500  0.49973100  0.49884400  1
  C  C24  1  0.11451500  0.50042800  0.50115800  1
  C  C25  1  0.96613700  0.49997700  0.49963500  1
  C  C26  1  0.03386300  0.50024300  0.50036800  1
  C  C27  1  0.46948100  0.83589500  0.40222800  1
  C  C28  1  0.53044600  0.16411300  0.59783500  1
  C  C29  1  0.53182200  0.83584100  0.59620800  1
  C  C30  1  0.46825000  0.16417000  0.40372700  1
  C  C31  1  0.46820000  0.75288900  0.40445000  1
  C  C32  1  0.53178400  0.24711500  0.59556500  1
  C  C33  1  0.53326200  0.75284700  0.59371900  1
  C  C34  1  0.46675400  0.24716000  0.40626500  1
  C  C35  1  0.50050300  0.87761100  0.49938400  1
  C  C36  1  0.49949600  0.12240600  0.50061500  1
  C  C37  1  0.50015800  0.96382000  0.49979600  1
  C  C38  1  0.49984000  0.03620700  0.50020300  1
  C  C39  1  0.35864700  0.72223500  0.32216800  1
  C  C40  1  0.64137300  0.27760100  0.67789200  1
  C  C41  1  0.64319200  0.72251100  0.67493700  1
  C  C42  1  0.35678800  0.27732600  0.32501200  1
  N  N1  1  0.50060600  0.71197900  0.49917700  1
  N  N2  1  0.49939400  0.28803400  0.50082400  1
  O  O1  1  0.38814600  0.56981900  0.49868900  1
  O  O2  1  0.61185500  0.43019700  0.50130100  1
  O  O3  1  0.61212200  0.56899600  0.50072100  1
  O  O4  1  0.38787700  0.43101900  0.49929000  1
  O  O5  1  0.50088700  0.56905500  0.31474200  1
  O  O6  1  0.49912000  0.43096400  0.68526200  1
  O  O7  1  0.49939100  0.56965900  0.68469700  1
  O  O8  1  0.50060100  0.43036000  0.31530000  1
  O  O9  1  0.43608600  0.71257900  0.30734400  1
  O  O10  1  0.56394100  0.28741600  0.69264500  1
  O  O11  1  0.56582800  0.71249100  0.69037200  1
  O  O12  1  0.43414300  0.28750800  0.30964400  1
