# generated using pymatgen
data_ZnH9C23(N2O5)2
_symmetry_space_group_name_H-M   'P 1'
_cell_length_a   17.78837400
_cell_length_b   16.70420900
_cell_length_c   15.04655300
_cell_angle_alpha   90.00000000
_cell_angle_beta   90.01052500
_cell_angle_gamma   90.00000000
_symmetry_Int_Tables_number   1
_chemical_formula_structural   ZnH9C23(N2O5)2
_chemical_formula_sum   'Zn2 H18 C46 N8 O20'
_cell_volume   4470.94347236
_cell_formula_units_Z   2
loop_
 _symmetry_equiv_pos_site_id
 _symmetry_equiv_pos_as_xyz
  1  'x, y, z'
loop_
 _atom_site_type_symbol
 _atom_site_label
 _atom_site_symmetry_multiplicity
 _atom_site_fract_x
 _atom_site_fract_y
 _atom_site_fract_z
 _atom_site_occupancy
  Zn  Zn1  1  0.49999600  0.59219100  0.50000200  1
  Zn  Zn2  1  0.50001100  0.40921300  0.49998400  1
  H  H1  1  0.61432800  0.50212700  0.77679200  1
  H  H2  1  0.38569000  0.50326000  0.22319200  1
  H  H3  1  0.30983300  0.50214600  0.92813400  1
  H  H4  1  0.69017600  0.50051200  0.07184900  1
  H  H5  1  0.31546700  0.50266900  0.08826400  1
  H  H6  1  0.68454500  0.50099600  0.91172000  1
  H  H7  1  0.87705300  0.62805900  0.49872400  1
  H  H8  1  0.12293200  0.37335300  0.50052000  1
  H  H9  1  0.12296000  0.62804500  0.50139000  1
  H  H10  1  0.87707100  0.37336700  0.49936500  1
  H  H11  1  0.74013400  0.62858300  0.49863700  1
  H  H12  1  0.25984900  0.37280100  0.50058500  1
  H  H13  1  0.25987600  0.62856400  0.50147600  1
  H  H14  1  0.74015600  0.37282000  0.49929200  1
  H  H15  1  0.39813100  0.87009700  0.42890900  1
  H  H16  1  0.60175800  0.13130000  0.57130800  1
  H  H17  1  0.60186000  0.87010000  0.57110600  1
  H  H18  1  0.39826500  0.13129800  0.42865200  1
  C  C1  1  0.35280600  0.50069200  0.49595800  1
  C  C2  1  0.64720200  0.50070400  0.50403200  1
  C  C3  1  0.50480900  0.50073600  0.32650800  1
  C  C4  1  0.49519400  0.50070400  0.67347800  1
  C  C5  1  0.56264400  0.50100100  0.81454700  1
  C  C6  1  0.43736400  0.50166300  0.18543800  1
  C  C7  1  0.49494900  0.50088600  0.77042300  1
  C  C8  1  0.50505600  0.50093300  0.22956300  1
  C  C9  1  0.42829100  0.49832400  0.81767200  1
  C  C10  1  0.57169100  0.49775700  0.18231700  1
  C  C11  1  0.43014600  0.49793100  0.91011900  1
  C  C12  1  0.56983500  0.49735200  0.08987000  1
  C  C13  1  0.49863700  0.49812700  0.95401200  1
  C  C14  1  0.50134700  0.49813700  0.04597600  1
  C  C15  1  0.56458400  0.49919500  0.90597100  1
  C  C16  1  0.43541100  0.49982000  0.09401600  1
  C  C17  1  0.36438500  0.49980900  0.95936500  1
  C  C18  1  0.63560700  0.49863700  0.04062100  1
  C  C19  1  0.36723300  0.50071900  0.05072300  1
  C  C20  1  0.63276600  0.49952200  0.94926300  1
  C  C21  1  0.84669200  0.57201500  0.49979600  1
  C  C22  1  0.15330300  0.42939600  0.49978400  1
  C  C23  1  0.15331800  0.57200000  0.50026700  1
  C  C24  1  0.84670200  0.42941000  0.50015100  1
  C  C25  1  0.76918800  0.57207300  0.50046400  1
  C  C26  1  0.23080700  0.42932400  0.49911800  1
  C  C27  1  0.23082100  0.57205600  0.49959600  1
  C  C28  1  0.76919900  0.42934100  0.50081400  1
  C  C29  1  0.72982400  0.50070700  0.50246200  1
  C  C30  1  0.27018400  0.50068900  0.49753300  1
  C  C31  1  0.88549000  0.50071600  0.50027700  1
  C  C32  1  0.11451700  0.50070400  0.49972300  1
  C  C33  1  0.96614000  0.50071800  0.50005500  1
  C  C34  1  0.03386800  0.50071300  0.49994600  1
  C  C35  1  0.44282600  0.83719100  0.46105300  1
  C  C36  1  0.55711600  0.16421000  0.53906400  1
  C  C37  1  0.55716400  0.83719100  0.53896700  1
  C  C38  1  0.44290700  0.16421000  0.46089200  1
  C  C39  1  0.44361800  0.75449300  0.45963900  1
  C  C40  1  0.55632500  0.24690800  0.54047400  1
  C  C41  1  0.55636800  0.75449300  0.54039000  1
  C  C42  1  0.44370300  0.24690900  0.45947200  1
  C  C43  1  0.49999600  0.87875500  0.50000700  1
  C  C44  1  0.50001000  0.12264600  0.49998100  1
  C  C45  1  0.50000100  0.96463900  0.49999800  1
  C  C46  1  0.50000500  0.03676200  0.49999000  1
  N  N1  1  0.49999300  0.71241200  0.50001500  1
  N  N2  1  0.50001500  0.28899200  0.49997100  1
  N  N3  1  0.35849500  0.49537400  0.77092600  1
  N  N4  1  0.64146100  0.49429100  0.22907200  1
  N  N5  1  0.38310200  0.71597600  0.41464500  1
  N  N6  1  0.61677700  0.28541900  0.58559600  1
  N  N7  1  0.61688300  0.71597700  0.58538900  1
  N  N8  1  0.38325300  0.28542000  0.41434400  1
  O  O1  1  0.38804800  0.56983800  0.49649300  1
  O  O2  1  0.61195600  0.43156300  0.50370200  1
  O  O3  1  0.61194700  0.56984400  0.50350600  1
  O  O4  1  0.38806400  0.43155700  0.49627300  1
  O  O5  1  0.50341700  0.56991600  0.36772000  1
  O  O6  1  0.49637600  0.43148700  0.63228500  1
  O  O7  1  0.49656500  0.56989200  0.63227900  1
  O  O8  1  0.50365800  0.43151200  0.36768900  1
  O  O9  1  0.31525000  0.43296000  0.77857200  1
  O  O10  1  0.34177400  0.55061800  0.71332500  1
  O  O11  1  0.68428700  0.43154600  0.22146500  1
  O  O12  1  0.65853400  0.54942100  0.28666400  1
  O  O13  1  0.31653900  0.74758300  0.42120700  1
  O  O14  1  0.39754200  0.67229900  0.34537300  1
  O  O15  1  0.68333600  0.25377000  0.57922700  1
  O  O16  1  0.60223500  0.32914400  0.65480000  1
  O  O17  1  0.68344100  0.74760100  0.57886100  1
  O  O18  1  0.60243700  0.67226900  0.65463500  1
  O  O19  1  0.31669800  0.25375700  0.42068300  1
  O  O20  1  0.39780200  0.32917200  0.34516400  1
