# generated using pymatgen
data_Cu3H32(C2O)20
_symmetry_space_group_name_H-M   'P 1'
_cell_length_a   30.12490100
_cell_length_b   30.12490100
_cell_length_c   18.26257300
_cell_angle_alpha   90.00000000
_cell_angle_beta   90.00000000
_cell_angle_gamma   90.00000000
_symmetry_Int_Tables_number   1
_chemical_formula_structural   Cu3H32(C2O)20
_chemical_formula_sum   'Cu12 H128 C160 O80'
_cell_volume   16573.46141870
_cell_formula_units_Z   4
loop_
 _symmetry_equiv_pos_site_id
 _symmetry_equiv_pos_as_xyz
  1  'x, y, z'
loop_
 _atom_site_type_symbol
 _atom_site_label
 _atom_site_symmetry_multiplicity
 _atom_site_fract_x
 _atom_site_fract_y
 _atom_site_fract_z
 _atom_site_occupancy
  Cu  Cu1  1  0.50000000  0.04329100  0.50000000  1
  Cu  Cu2  1  0.95670900  0.50000000  0.50000000  1
  Cu  Cu3  1  0.50000000  0.95670900  0.50000000  1
  Cu  Cu4  1  0.04329100  0.50000000  0.50000000  1
  Cu  Cu5  1  0.00000000  0.54329100  0.00000000  1
  Cu  Cu6  1  0.45670900  0.00000000  0.00000000  1
  Cu  Cu7  1  0.00000000  0.45670900  0.00000000  1
  Cu  Cu8  1  0.54329100  0.00000000  0.00000000  1
  Cu  Cu9  1  0.00000000  0.00000000  0.42874300  1
  Cu  Cu10  1  0.00000000  0.00000000  0.57125700  1
  Cu  Cu11  1  0.50000000  0.50000000  0.92874300  1
  Cu  Cu12  1  0.50000000  0.50000000  0.07125700  1
  H  H1  1  0.27919500  0.93627200  0.54870000  1
  H  H2  1  0.06372800  0.27919500  0.54870000  1
  H  H3  1  0.72080500  0.06372800  0.54870000  1
  H  H4  1  0.93627200  0.72080500  0.54870000  1
  H  H5  1  0.72080500  0.93627200  0.45130000  1
  H  H6  1  0.93627200  0.27919500  0.45130000  1
  H  H7  1  0.27919500  0.06372800  0.45130000  1
  H  H8  1  0.06372800  0.72080500  0.45130000  1
  H  H9  1  0.77919500  0.43627200  0.04870000  1
  H  H10  1  0.56372800  0.77919500  0.04870000  1
  H  H11  1  0.22080500  0.56372800  0.04870000  1
  H  H12  1  0.43627200  0.22080500  0.04870000  1
  H  H13  1  0.22080500  0.43627200  0.95130000  1
  H  H14  1  0.43627200  0.77919500  0.95130000  1
  H  H15  1  0.77919500  0.56372800  0.95130000  1
  H  H16  1  0.56372800  0.22080500  0.95130000  1
  H  H17  1  0.22064800  0.02990100  0.39515200  1
  H  H18  1  0.97009900  0.22064800  0.39515200  1
  H  H19  1  0.77935200  0.97009900  0.39515200  1
  H  H20  1  0.02990100  0.77935200  0.39515200  1
  H  H21  1  0.77935200  0.02990100  0.60484800  1
  H  H22  1  0.02990100  0.22064800  0.60484800  1
  H  H23  1  0.22064800  0.97009900  0.60484800  1
  H  H24  1  0.97009900  0.77935200  0.60484800  1
  H  H25  1  0.72064800  0.52990100  0.89515200  1
  H  H26  1  0.47009900  0.72064800  0.89515200  1
  H  H27  1  0.27935200  0.47009900  0.89515200  1
  H  H28  1  0.52990100  0.27935200  0.89515200  1
  H  H29  1  0.27935200  0.52990100  0.10484800  1
  H  H30  1  0.52990100  0.72064800  0.10484800  1
  H  H31  1  0.72064800  0.47009900  0.10484800  1
  H  H32  1  0.47009900  0.27935200  0.10484800  1
  H  H33  1  0.39324000  0.94129600  0.60581500  1
  H  H34  1  0.38367300  0.90575200  0.52740300  1
  H  H35  1  0.34417100  0.91159200  0.66157400  1
  H  H36  1  0.05870400  0.39324000  0.60581500  1
  H  H37  1  0.09424800  0.38367300  0.52740300  1
  H  H38  1  0.08840800  0.34417100  0.66157400  1
  H  H39  1  0.60676000  0.05870400  0.60581500  1
  H  H40  1  0.61632700  0.09424800  0.52740300  1
  H  H41  1  0.65582800  0.08840800  0.66157400  1
  H  H42  1  0.94129600  0.60676000  0.60581500  1
  H  H43  1  0.90575200  0.61632700  0.52740300  1
  H  H44  1  0.91159200  0.65582800  0.66157400  1
  H  H45  1  0.60676000  0.94129600  0.39418500  1
  H  H46  1  0.61632700  0.90575200  0.47259600  1
  H  H47  1  0.65582800  0.91159200  0.33842600  1
  H  H48  1  0.94129600  0.39324000  0.39418500  1
  H  H49  1  0.90575200  0.38367300  0.47259600  1
  H  H50  1  0.91159200  0.34417100  0.33842600  1
  H  H51  1  0.39324000  0.05870400  0.39418500  1
  H  H52  1  0.38367300  0.09424800  0.47259600  1
  H  H53  1  0.34417100  0.08840800  0.33842600  1
  H  H54  1  0.05870400  0.60676000  0.39418500  1
  H  H55  1  0.09424800  0.61632700  0.47259600  1
  H  H56  1  0.08840800  0.65582800  0.33842600  1
  H  H57  1  0.89324000  0.44129600  0.10581500  1
  H  H58  1  0.88367300  0.40575200  0.02740300  1
  H  H59  1  0.84417200  0.41159200  0.16157400  1
  H  H60  1  0.55870400  0.89324000  0.10581500  1
  H  H61  1  0.59424800  0.88367300  0.02740300  1
  H  H62  1  0.58840800  0.84417100  0.16157400  1
  H  H63  1  0.10676000  0.55870400  0.10581500  1
  H  H64  1  0.11632700  0.59424800  0.02740300  1
  H  H65  1  0.15582900  0.58840800  0.16157400  1
  H  H66  1  0.44129600  0.10676000  0.10581500  1
  H  H67  1  0.40575200  0.11632700  0.02740400  1
  H  H68  1  0.41159200  0.15582800  0.16157400  1
  H  H69  1  0.10676000  0.44129600  0.89418500  1
  H  H70  1  0.11632700  0.40575200  0.97259600  1
  H  H71  1  0.15582900  0.41159200  0.83842600  1
  H  H72  1  0.44129600  0.89324000  0.89418500  1
  H  H73  1  0.40575200  0.88367300  0.97259600  1
  H  H74  1  0.41159200  0.84417100  0.83842600  1
  H  H75  1  0.89324000  0.55870400  0.89418500  1
  H  H76  1  0.88367300  0.59424800  0.97259600  1
  H  H77  1  0.84417100  0.58840800  0.83842600  1
  H  H78  1  0.55870400  0.10676000  0.89418500  1
  H  H79  1  0.59424800  0.11632700  0.97259700  1
  H  H80  1  0.58840800  0.15582800  0.83842600  1
  H  H81  1  0.10663100  0.06450800  0.40383300  1
  H  H82  1  0.11598700  0.01706900  0.34490400  1
  H  H83  1  0.15604000  0.09824400  0.35531800  1
  H  H84  1  0.93549200  0.10663100  0.40383300  1
  H  H85  1  0.98293100  0.11598700  0.34490400  1
  H  H86  1  0.90175600  0.15604000  0.35531800  1
  H  H87  1  0.89336900  0.93549200  0.40383300  1
  H  H88  1  0.88401300  0.98293100  0.34490400  1
  H  H89  1  0.84396000  0.90175600  0.35531800  1
  H  H90  1  0.06450800  0.89336900  0.40383300  1
  H  H91  1  0.01706900  0.88401300  0.34490400  1
  H  H92  1  0.09824400  0.84396000  0.35531800  1
  H  H93  1  0.89336900  0.06450800  0.59616700  1
  H  H94  1  0.88401300  0.01706900  0.65509600  1
  H  H95  1  0.84396000  0.09824400  0.64468200  1
  H  H96  1  0.06450800  0.10663100  0.59616700  1
  H  H97  1  0.01706900  0.11598700  0.65509600  1
  H  H98  1  0.09824400  0.15604000  0.64468200  1
  H  H99  1  0.10663100  0.93549200  0.59616700  1
  H  H100  1  0.11598700  0.98293100  0.65509600  1
  H  H101  1  0.15604000  0.90175600  0.64468200  1
  H  H102  1  0.93549200  0.89336900  0.59616700  1
  H  H103  1  0.98293100  0.88401300  0.65509600  1
  H  H104  1  0.90175600  0.84396000  0.64468200  1
  H  H105  1  0.60663100  0.56450800  0.90383300  1
  H  H106  1  0.61598700  0.51706900  0.84490400  1
  H  H107  1  0.65604000  0.59824400  0.85531800  1
  H  H108  1  0.43549200  0.60663100  0.90383300  1
  H  H109  1  0.48293100  0.61598700  0.84490400  1
  H  H110  1  0.40175600  0.65604000  0.85531800  1
  H  H111  1  0.39336900  0.43549200  0.90383300  1
  H  H112  1  0.38401300  0.48293100  0.84490400  1
  H  H113  1  0.34396000  0.40175600  0.85531800  1
  H  H114  1  0.56450800  0.39336900  0.90383300  1
  H  H115  1  0.51706900  0.38401300  0.84490400  1
  H  H116  1  0.59824400  0.34396000  0.85531800  1
  H  H117  1  0.39336900  0.56450800  0.09616700  1
  H  H118  1  0.38401300  0.51706900  0.15509600  1
  H  H119  1  0.34396000  0.59824400  0.14468200  1
  H  H120  1  0.56450800  0.60663100  0.09616700  1
  H  H121  1  0.51706900  0.61598700  0.15509600  1
  H  H122  1  0.59824400  0.65604000  0.14468200  1
  H  H123  1  0.60663100  0.43549200  0.09616700  1
  H  H124  1  0.61598700  0.48293100  0.15509600  1
  H  H125  1  0.65604000  0.40175600  0.14468200  1
  H  H126  1  0.43549200  0.39336900  0.09616700  1
  H  H127  1  0.48293100  0.38401300  0.15509600  1
  H  H128  1  0.40175600  0.34396000  0.14468200  1
  C  C1  1  0.22544600  0.00000000  0.50000000  1
  C  C2  1  0.00000000  0.22544600  0.50000000  1
  C  C3  1  0.77455400  0.00000000  0.50000000  1
  C  C4  1  0.00000000  0.77455400  0.50000000  1
  C  C5  1  0.72544600  0.50000000  0.00000000  1
  C  C6  1  0.50000000  0.72544600  0.00000000  1
  C  C7  1  0.27455400  0.50000000  0.00000000  1
  C  C8  1  0.50000000  0.27455400  0.00000000  1
  C  C9  1  0.41577700  0.00000000  0.50000000  1
  C  C10  1  0.00000000  0.41577600  0.50000000  1
  C  C11  1  0.58422300  0.00000000  0.50000000  1
  C  C12  1  0.00000000  0.58422300  0.50000000  1
  C  C13  1  0.91577700  0.50000000  0.00000000  1
  C  C14  1  0.50000000  0.91577700  0.00000000  1
  C  C15  1  0.08422300  0.50000000  0.00000000  1
  C  C16  1  0.50000000  0.08422300  0.00000000  1
  C  C17  1  0.50000000  0.00000000  0.36151400  1
  C  C18  1  0.00000000  0.50000000  0.36151400  1
  C  C19  1  0.50000000  0.00000000  0.63848600  1
  C  C20  1  0.00000000  0.50000000  0.63848600  1
  C  C21  1  0.00000000  0.50000000  0.86151400  1
  C  C22  1  0.50000000  0.00000000  0.86151400  1
  C  C23  1  0.00000000  0.50000000  0.13848600  1
  C  C24  1  0.50000000  0.00000000  0.13848600  1
  C  C25  1  0.00000000  0.91587300  0.50000000  1
  C  C26  1  0.08412700  0.00000000  0.50000000  1
  C  C27  1  0.00000000  0.08412700  0.50000000  1
  C  C28  1  0.91587300  0.00000000  0.50000000  1
  C  C29  1  0.50000000  0.41587300  0.00000000  1
  C  C30  1  0.58412700  0.50000000  0.00000000  1
  C  C31  1  0.50000000  0.58412700  0.00000000  1
  C  C32  1  0.41587300  0.50000000  0.00000000  1
  C  C33  1  0.50000000  0.00000000  0.28298200  1
  C  C34  1  0.00000000  0.50000000  0.28298200  1
  C  C35  1  0.50000000  0.00000000  0.71701800  1
  C  C36  1  0.00000000  0.50000000  0.71701800  1
  C  C37  1  0.00000000  0.50000000  0.78298200  1
  C  C38  1  0.50000000  0.00000000  0.78298200  1
  C  C39  1  0.00000000  0.50000000  0.21701800  1
  C  C40  1  0.50000000  0.00000000  0.21701800  1
  C  C41  1  0.29755300  0.96456900  0.52891700  1
  C  C42  1  0.03543100  0.29755300  0.52891700  1
  C  C43  1  0.70244700  0.03543100  0.52891700  1
  C  C44  1  0.96456900  0.70244700  0.52891700  1
  C  C45  1  0.70244700  0.96456900  0.47108300  1
  C  C46  1  0.96456900  0.29755300  0.47108300  1
  C  C47  1  0.29755300  0.03543100  0.47108300  1
  C  C48  1  0.03543100  0.70244700  0.47108300  1
  C  C49  1  0.79755300  0.46456900  0.02891700  1
  C  C50  1  0.53543100  0.79755300  0.02891700  1
  C  C51  1  0.20244700  0.53543100  0.02891700  1
  C  C52  1  0.46456900  0.20244700  0.02891700  1
  C  C53  1  0.20244700  0.46456900  0.97108300  1
  C  C54  1  0.46456900  0.79755300  0.97108300  1
  C  C55  1  0.79755300  0.53543100  0.97108300  1
  C  C56  1  0.53543100  0.20244700  0.97108300  1
  C  C57  1  0.34351500  0.96472900  0.53097900  1
  C  C58  1  0.03527100  0.34351500  0.53097900  1
  C  C59  1  0.65648500  0.03527100  0.53097900  1
  C  C60  1  0.96472900  0.65648500  0.53097900  1
  C  C61  1  0.65648500  0.96472900  0.46902100  1
  C  C62  1  0.96472900  0.34351500  0.46902100  1
  C  C63  1  0.34351500  0.03527100  0.46902100  1
  C  C64  1  0.03527100  0.65648500  0.46902100  1
  C  C65  1  0.84351500  0.46472900  0.03097900  1
  C  C66  1  0.53527100  0.84351500  0.03097900  1
  C  C67  1  0.15648500  0.53527100  0.03097900  1
  C  C68  1  0.46472900  0.15648500  0.03097900  1
  C  C69  1  0.15648500  0.46472900  0.96902100  1
  C  C70  1  0.46472900  0.84351500  0.96902100  1
  C  C71  1  0.84351500  0.53527100  0.96902100  1
  C  C72  1  0.53527100  0.15648500  0.96902100  1
  C  C73  1  0.36683300  0.00000000  0.50000000  1
  C  C74  1  0.00000000  0.36683300  0.50000000  1
  C  C75  1  0.63316700  0.00000000  0.50000000  1
  C  C76  1  0.00000000  0.63316700  0.50000000  1
  C  C77  1  0.86683300  0.50000000  0.00000000  1
  C  C78  1  0.50000000  0.86683300  0.00000000  1
  C  C79  1  0.13316700  0.50000000  0.00000000  1
  C  C80  1  0.50000000  0.13316700  0.00000000  1
  C  C81  1  0.27440200  0.00000000  0.50000000  1
  C  C82  1  0.00000000  0.27440200  0.50000000  1
  C  C83  1  0.72559800  0.00000000  0.50000000  1
  C  C84  1  0.00000000  0.72559800  0.50000000  1
  C  C85  1  0.77440200  0.50000000  0.00000000  1
  C  C86  1  0.50000000  0.77440200  0.00000000  1
  C  C87  1  0.22559800  0.50000000  0.00000000  1
  C  C88  1  0.50000000  0.22559800  0.00000000  1
  C  C89  1  0.20229500  0.01773300  0.44171100  1
  C  C90  1  0.98226700  0.20229500  0.44171100  1
  C  C91  1  0.79770500  0.98226700  0.44171100  1
  C  C92  1  0.01773300  0.79770500  0.44171100  1
  C  C93  1  0.79770500  0.01773300  0.55828900  1
  C  C94  1  0.01773300  0.20229500  0.55828900  1
  C  C95  1  0.20229500  0.98226700  0.55828900  1
  C  C96  1  0.98226700  0.79770500  0.55828900  1
  C  C97  1  0.70229500  0.51773300  0.94171100  1
  C  C98  1  0.48226700  0.70229500  0.94171100  1
  C  C99  1  0.29770500  0.48226700  0.94171100  1
  C  C100  1  0.51773300  0.29770500  0.94171100  1
  C  C101  1  0.29770500  0.51773300  0.05828900  1
  C  C102  1  0.51773300  0.70229500  0.05828900  1
  C  C103  1  0.70229500  0.48226700  0.05828900  1
  C  C104  1  0.48226700  0.29770500  0.05828900  1
  C  C105  1  0.15633400  0.01896200  0.44198800  1
  C  C106  1  0.98103800  0.15633400  0.44198800  1
  C  C107  1  0.84366600  0.98103800  0.44198800  1
  C  C108  1  0.01896200  0.84366600  0.44198800  1
  C  C109  1  0.84366600  0.01896200  0.55801200  1
  C  C110  1  0.01896200  0.15633400  0.55801200  1
  C  C111  1  0.15633400  0.98103800  0.55801200  1
  C  C112  1  0.98103800  0.84366600  0.55801200  1
  C  C113  1  0.65633400  0.51896200  0.94198800  1
  C  C114  1  0.48103800  0.65633400  0.94198800  1
  C  C115  1  0.34366600  0.48103800  0.94198800  1
  C  C116  1  0.51896200  0.34366600  0.94198800  1
  C  C117  1  0.34366600  0.51896200  0.05801200  1
  C  C118  1  0.51896200  0.65633400  0.05801200  1
  C  C119  1  0.65633400  0.48103800  0.05801200  1
  C  C120  1  0.48103800  0.34366600  0.05801200  1
  C  C121  1  0.13304100  0.00000000  0.50000000  1
  C  C122  1  0.00000000  0.13304100  0.50000000  1
  C  C123  1  0.86695900  0.00000000  0.50000000  1
  C  C124  1  0.00000000  0.86695900  0.50000000  1
  C  C125  1  0.63304100  0.50000000  0.00000000  1
  C  C126  1  0.50000000  0.63304100  0.00000000  1
  C  C127  1  0.36695900  0.50000000  0.00000000  1
  C  C128  1  0.50000000  0.36695900  0.00000000  1
  C  C129  1  0.36763100  0.92751600  0.56858100  1
  C  C130  1  0.07248400  0.36763100  0.56858100  1
  C  C131  1  0.63236800  0.07248400  0.56858100  1
  C  C132  1  0.92751600  0.63236800  0.56858100  1
  C  C133  1  0.63236800  0.92751600  0.43141900  1
  C  C134  1  0.92751600  0.36763100  0.43141900  1
  C  C135  1  0.36763100  0.07248400  0.43141900  1
  C  C136  1  0.07248400  0.63236800  0.43141900  1
  C  C137  1  0.86763200  0.42751600  0.06858100  1
  C  C138  1  0.57248400  0.86763100  0.06858100  1
  C  C139  1  0.13236800  0.57248400  0.06858100  1
  C  C140  1  0.42751600  0.13236800  0.06858100  1
  C  C141  1  0.13236800  0.42751600  0.93141900  1
  C  C142  1  0.42751600  0.86763100  0.93141900  1
  C  C143  1  0.86763200  0.57248400  0.93141900  1
  C  C144  1  0.57248400  0.13236800  0.93141900  1
  C  C145  1  0.13215300  0.04192700  0.38085000  1
  C  C146  1  0.95807300  0.13215300  0.38085000  1
  C  C147  1  0.86784700  0.95807300  0.38085000  1
  C  C148  1  0.04192700  0.86784700  0.38085000  1
  C  C149  1  0.86784700  0.04192700  0.61915000  1
  C  C150  1  0.04192700  0.13215300  0.61915000  1
  C  C151  1  0.13215300  0.95807300  0.61915000  1
  C  C152  1  0.95807300  0.86784700  0.61915000  1
  C  C153  1  0.63215300  0.54192700  0.88085000  1
  C  C154  1  0.45807300  0.63215300  0.88085000  1
  C  C155  1  0.36784700  0.45807300  0.88085000  1
  C  C156  1  0.54192700  0.36784700  0.88085000  1
  C  C157  1  0.36784700  0.54192700  0.11915000  1
  C  C158  1  0.54192700  0.63215300  0.11915000  1
  C  C159  1  0.63215300  0.45807300  0.11915000  1
  C  C160  1  0.45807300  0.36784700  0.11915000  1
  O  O1  1  0.43676100  0.03645400  0.52082200  1
  O  O2  1  0.96354600  0.43676100  0.52082200  1
  O  O3  1  0.56323900  0.96354600  0.52082200  1
  O  O4  1  0.03645400  0.56323900  0.52082200  1
  O  O5  1  0.56323900  0.03645400  0.47917800  1
  O  O6  1  0.03645400  0.43676100  0.47917800  1
  O  O7  1  0.43676100  0.96354600  0.47917800  1
  O  O8  1  0.96354600  0.56323900  0.47917800  1
  O  O9  1  0.93676100  0.53645400  0.02082200  1
  O  O10  1  0.46354600  0.93676100  0.02082200  1
  O  O11  1  0.06323900  0.46354600  0.02082200  1
  O  O12  1  0.53645400  0.06323900  0.02082200  1
  O  O13  1  0.06323900  0.53645400  0.97917800  1
  O  O14  1  0.53645400  0.93676100  0.97917800  1
  O  O15  1  0.93676100  0.46354600  0.97917800  1
  O  O16  1  0.46354600  0.06323900  0.97917800  1
  O  O17  1  0.48741200  0.03654400  0.39566600  1
  O  O18  1  0.96345600  0.48741200  0.39566600  1
  O  O19  1  0.51258800  0.96345600  0.39566600  1
  O  O20  1  0.03654400  0.51258800  0.39566600  1
  O  O21  1  0.51258800  0.03654400  0.60433400  1
  O  O22  1  0.03654400  0.48741200  0.60433400  1
  O  O23  1  0.48741200  0.96345600  0.60433400  1
  O  O24  1  0.96345600  0.51258800  0.60433400  1
  O  O25  1  0.98741200  0.53654400  0.89566600  1
  O  O26  1  0.46345600  0.98741200  0.89566600  1
  O  O27  1  0.01258800  0.46345600  0.89566600  1
  O  O28  1  0.53654400  0.01258800  0.89566600  1
  O  O29  1  0.01258800  0.53654400  0.10433400  1
  O  O30  1  0.53654400  0.98741200  0.10433400  1
  O  O31  1  0.98741200  0.46345600  0.10433400  1
  O  O32  1  0.46345600  0.01258800  0.10433400  1
  O  O33  1  0.98713200  0.93684800  0.44000900  1
  O  O34  1  0.06315200  0.98713200  0.44000900  1
  O  O35  1  0.01286800  0.06315200  0.44000900  1
  O  O36  1  0.93684800  0.01286800  0.44000900  1
  O  O37  1  0.01286800  0.93684800  0.55999100  1
  O  O38  1  0.93684800  0.98713200  0.55999100  1
  O  O39  1  0.98713200  0.06315200  0.55999100  1
  O  O40  1  0.06315200  0.01286800  0.55999100  1
  O  O41  1  0.48713200  0.43684800  0.94000900  1
  O  O42  1  0.56315200  0.48713200  0.94000900  1
  O  O43  1  0.51286800  0.56315200  0.94000900  1
  O  O44  1  0.43684800  0.51286800  0.94000900  1
  O  O45  1  0.51286800  0.43684800  0.05999100  1
  O  O46  1  0.43684800  0.48713200  0.05999100  1
  O  O47  1  0.48713200  0.56315200  0.05999100  1
  O  O48  1  0.56315200  0.51286800  0.05999100  1
  O  O49  1  0.33860500  0.90199200  0.61054900  1
  O  O50  1  0.09800800  0.33860500  0.61054900  1
  O  O51  1  0.66139500  0.09800800  0.61054900  1
  O  O52  1  0.90199200  0.66139500  0.61054900  1
  O  O53  1  0.66139500  0.90199200  0.38945100  1
  O  O54  1  0.90199200  0.33860500  0.38945100  1
  O  O55  1  0.33860500  0.09800800  0.38945100  1
  O  O56  1  0.09800800  0.66139500  0.38945100  1
  O  O57  1  0.83860500  0.40199200  0.11054900  1
  O  O58  1  0.59800800  0.83860500  0.11054900  1
  O  O59  1  0.16139500  0.59800800  0.11054900  1
  O  O60  1  0.40199200  0.16139500  0.11054900  1
  O  O61  1  0.16139500  0.40199200  0.88945100  1
  O  O62  1  0.40199200  0.83860500  0.88945100  1
  O  O63  1  0.83860500  0.59800800  0.88945100  1
  O  O64  1  0.59800800  0.16139500  0.88945100  1
  O  O65  1  0.16115800  0.06738000  0.33872600  1
  O  O66  1  0.93262000  0.16115800  0.33872600  1
  O  O67  1  0.83884200  0.93262000  0.33872600  1
  O  O68  1  0.06738000  0.83884200  0.33872600  1
  O  O69  1  0.83884200  0.06738000  0.66127400  1
  O  O70  1  0.06738000  0.16115800  0.66127400  1
  O  O71  1  0.16115800  0.93262000  0.66127400  1
  O  O72  1  0.93262000  0.83884100  0.66127400  1
  O  O73  1  0.66115800  0.56738000  0.83872600  1
  O  O74  1  0.43262000  0.66115800  0.83872600  1
  O  O75  1  0.33884200  0.43262000  0.83872600  1
  O  O76  1  0.56738000  0.33884100  0.83872600  1
  O  O77  1  0.33884200  0.56738000  0.16127400  1
  O  O78  1  0.56738000  0.66115800  0.16127400  1
  O  O79  1  0.66115800  0.43262000  0.16127400  1
  O  O80  1  0.43262000  0.33884200  0.16127400  1
