# Generated by REPEAT Assigner based on pymatgen
data_DB0-m3_o51_o13_f0_fsc.sym.83_sqe
_audit_creation_date              2022-05-24
_audit_creation_method            REPEAT_Assigner
_cell_length_a                    8.520651
_cell_length_b                    11.357993
_cell_length_c                    13.217980
_cell_angle_alpha                 96.718449
_cell_angle_beta                  93.468734
_cell_angle_gamma                 90.159080
_cell_volume                      1268.028624
_symmetry_space_group_name_H-M    P1
_symmetry_Int_Tables_number       1
loop_
    _symmetry_equiv_pos_site_id
    _symmetry_equiv_pos_as_xyz
    1  x,y,z
loop_
    _atom_site_type_symbol
    _atom_site_label
    _atom_site_fract_x
    _atom_site_fract_y
    _atom_site_fract_z
    _atom_type_partial_charge
    C   C1   0.838631  0.962715  0.296915  -0.069896
    C   C2   0.153158  0.976085  0.699959  -0.065303
    C   C3   0.831039  0.009965  0.204735  -0.181859
    C   C4   0.165433  0.013245  0.803142  -0.220962
    C   C5   0.965849  0.020612  0.150735  0.165623
    C   C6   0.033282  0.016646  0.861283  0.431357
    C   C7   0.110923  0.999202  0.201655  -0.196442
    C   C8   0.886555  0.989699  0.808679  -0.400637
    H   H1   0.224479  0.009970  0.174339  0.037539
    H   H2   0.779776  0.976929  0.845034  0.117101
    C   C9   0.116950  0.960091  0.296527  -0.030593
    C   C10  0.875063  0.972187  0.702823  0.084844
    C   C11  0.981186  0.931295  0.338471  -0.152584
    C   C12  0.008355  0.959792  0.650674  -0.213226
    C   C13  0.944419  0.050363  0.042146  0.107344
    C   C14  0.060339  0.040316  0.975630  -0.369795
    H   H3   0.716776  0.034500  0.175054  0.048121
    H   H4   0.281699  0.035842  0.836151  0.054543
    H   H5   0.987301  0.895610  0.410070  0.131209
    H   H6   0.998767  0.943040  0.569299  0.168505
    O   O1   0.658017  0.065875  0.404446  -0.667732
    O   O2   0.333557  0.866983  0.594040  -0.737121
    O   O3   0.650617  0.861579  0.384877  -0.743282
    O   O4   0.343051  0.071678  0.614454  -0.671330
    C   C15  0.703549  0.963006  0.360876  0.845344
    C   C16  0.289008  0.970851  0.637444  0.836664
    O   O5   0.672627  0.867146  0.596181  -0.756470
    O   O6   0.319277  0.065425  0.403267  -0.711338
    O   O7   0.670699  0.071473  0.615845  -0.715374
    O   O8   0.321943  0.860849  0.383151  -0.770178
    C   C17  0.725883  0.969957  0.640880  0.833688
    C   C18  0.264769  0.961994  0.359777  0.886938
    Zn  Zn1  0.494663  0.834154  0.488865  1.126653
    Zn  Zn2  0.497961  0.098616  0.510115  0.970766
    N   N1   0.499559  0.254016  0.523295  0.202780
    N   N2   0.493342  0.678775  0.475587  0.145463
    C   C19  0.495326  0.496925  0.367738  -0.262382
    C   C20  0.496819  0.435968  0.630990  -0.185181
    C   C21  0.493020  0.619209  0.381159  -0.087722
    C   C22  0.498087  0.313707  0.617567  -0.189654
    C   C23  0.494629  0.619861  0.558365  -0.221568
    C   C24  0.499382  0.312951  0.440547  -0.255497
    C   C25  0.496258  0.497407  0.547218  0.195517
    C   C26  0.497197  0.435441  0.451583  0.258999
    H   H7   0.499972  0.264033  0.365423  0.174677
    H   H8   0.494841  0.668765  0.633605  0.170660
    H   H9   0.496841  0.265793  0.683350  0.209489
    H   H10  0.491577  0.667315  0.315226  0.160954
    H   H11  0.495591  0.450098  0.291694  0.173278
    H   H12  0.495334  0.482864  0.706951  0.150212
    N   N3   0.792459  0.084191  0.008008  -0.280639
    C   C27  0.784607  0.174328  0.949519  0.698374
    O   O9   0.899380  0.237032  0.944265  -0.496877
    C   C28  0.636521  0.196759  0.889240  -0.682087
    H   H13  0.699918  0.025207  0.004808  0.234136
    H   H14  0.542270  0.134595  0.903738  0.149321
    H   H15  0.659297  0.183875  0.807108  0.209784
    H   H16  0.598897  0.289346  0.910126  0.176713
    N   N4   0.217060  0.059987  0.014749  -0.000102
    C   C29  0.249999  0.170389  0.061412  0.719212
    O   O10  0.144630  0.241557  0.075760  -0.510408
    C   C30  0.413554  0.204937  0.099672  -0.833845
    H   H17  0.306678  0.003806  0.993127  0.153975
    H   H18  0.493611  0.129234  0.085066  0.186890
    H   H19  0.415449  0.232356  0.182982  0.239315
    H   H20  0.452982  0.280458  0.061245  0.224095
