# Generated by REPEAT Assigner based on pymatgen
data_DB0-m3_o3_o24_f0_pcu.sym.52_sqe
_audit_creation_date              2022-05-24
_audit_creation_method            REPEAT_Assigner
_cell_length_a                    19.483548
_cell_length_b                    18.274768
_cell_length_c                    10.803726
_cell_angle_alpha                 90.000000
_cell_angle_beta                  90.016698
_cell_angle_gamma                 90.000000
_cell_volume                      3846.745486
_symmetry_space_group_name_H-M    P1
_symmetry_Int_Tables_number       1
loop_
    _symmetry_equiv_pos_site_id
    _symmetry_equiv_pos_as_xyz
    1  x,y,z
loop_
    _atom_site_type_symbol
    _atom_site_label
    _atom_site_fract_x
    _atom_site_fract_y
    _atom_site_fract_z
    _atom_type_partial_charge
    O   O1   0.397745  0.560466  0.495833  -0.691554
    O   O2   0.602242  0.434055  0.502318  -0.719589
    O   O3   0.602245  0.560470  0.504174  -0.691713
    O   O4   0.397761  0.434050  0.497686  -0.719552
    C   C1   0.365753  0.497226  0.495791  0.782130
    C   C2   0.634244  0.497234  0.504215  0.782345
    O   O5   0.502219  0.560480  0.315529  -0.742888
    O   O6   0.498660  0.434050  0.684509  -0.732437
    O   O7   0.497766  0.560475  0.684480  -0.742733
    O   O8   0.501348  0.434055  0.315492  -0.732503
    C   C3   0.502554  0.497274  0.258003  0.839656
    C   C4   0.497443  0.497267  0.742002  0.839441
    Zn  Zn1  0.499995  0.580586  0.500005  1.084831
    Zn  Zn2  0.500002  0.413935  0.500000  1.128842
    C   C5   0.468537  0.557175  0.042286  -0.195181
    C   C6   0.531504  0.437464  0.957749  -0.203817
    C   C7   0.531617  0.557075  0.957703  -0.191894
    C   C8   0.468337  0.437563  0.042271  -0.207816
    C   C9   0.437734  0.497435  0.963300  0.598129
    C   C10  0.562264  0.497251  0.036704  0.595560
    H   H1   0.440994  0.606043  0.077457  0.094814
    H   H2   0.559041  0.388606  0.922524  0.098814
    H   H3   0.559288  0.605857  0.922515  0.094305
    H   H4   0.440672  0.388792  0.077513  0.099653
    C   C11  0.499008  0.497317  0.879679  -0.155113
    C   C12  0.500990  0.497327  0.120326  -0.152781
    C   C13  0.744840  0.439138  0.454124  -0.091535
    C   C14  0.254777  0.554514  0.443536  -0.104842
    C   C15  0.255158  0.439159  0.545989  -0.093123
    C   C16  0.745220  0.554556  0.556379  -0.103545
    H   H5   0.717613  0.394147  0.411619  0.095301
    H   H6   0.281763  0.599723  0.401210  0.108958
    H   H7   0.282387  0.394194  0.588570  0.095528
    H   H8   0.718234  0.599791  0.598625  0.108778
    C   C17  0.815572  0.439456  0.451849  -0.058618
    C   C18  0.183980  0.553718  0.441609  -0.128933
    C   C19  0.184426  0.439481  0.548277  -0.056336
    C   C20  0.816017  0.553760  0.558310  -0.130865
    H   H9   0.841161  0.394953  0.405149  0.095019
    H   H10  0.157923  0.598122  0.395428  0.074067
    H   H11  0.158837  0.395010  0.595062  0.094575
    H   H12  0.842075  0.598192  0.604413  0.074667
    C   C21  0.852197  0.496548  0.504743  0.014650
    C   C22  0.147801  0.496541  0.495282  0.012461
    C   C23  0.709347  0.497002  0.505131  -0.075378
    C   C24  0.290650  0.496991  0.494877  -0.074287
    C   C25  0.964604  0.561690  0.500449  -0.143416
    C   C26  0.035351  0.431549  0.497539  -0.134577
    C   C27  0.035394  0.561688  0.499448  -0.145599
    C   C28  0.964644  0.431552  0.502619  -0.133520
    H   H13  0.938718  0.613870  0.497403  0.116845
    H   H14  0.061093  0.379342  0.492550  0.081504
    H   H15  0.061280  0.613871  0.502390  0.117505
    H   H16  0.938901  0.379349  0.507712  0.081514
    C   C29  0.071802  0.496607  0.497010  0.116027
    C   C30  0.928195  0.496611  0.503018  0.114140
    C   C31  0.541785  0.726529  0.577682  -0.108137
    C   C32  0.458170  0.267992  0.422399  -0.050285
    C   C33  0.458201  0.726530  0.422336  -0.108557
    C   C34  0.541838  0.267992  0.577594  -0.050265
    H   H17  0.574876  0.696607  0.640032  0.173918
    H   H18  0.425041  0.297914  0.360113  0.141507
    H   H19  0.425109  0.696608  0.359984  0.174113
    H   H20  0.574966  0.297913  0.639882  0.141557
    C   C35  0.542532  0.801982  0.578771  -0.111952
    C   C36  0.457426  0.192539  0.421303  -0.144046
    C   C37  0.457455  0.801983  0.421245  -0.111714
    C   C38  0.542580  0.192539  0.578690  -0.144115
    H   H21  0.575576  0.829963  0.643683  0.104135
    H   H22  0.424350  0.164562  0.356439  0.113417
    H   H23  0.424413  0.829965  0.356333  0.104079
    H   H24  0.575654  0.164560  0.643555  0.113437
    C   C39  0.499994  0.840638  0.500007  0.117608
    C   C40  0.500002  0.153882  0.499997  0.125262
    N   N1   0.499992  0.690042  0.500009  0.029938
    N   N2   0.500004  0.304480  0.499996  -0.005096
    C   C41  0.439323  0.959530  0.485976  -0.127169
    C   C42  0.560674  0.034986  0.514023  -0.130730
    C   C43  0.560672  0.959526  0.514031  -0.127191
    C   C44  0.439324  0.034989  0.485978  -0.130743
    H   H25  0.390903  0.931088  0.478030  0.116166
    H   H26  0.609097  0.063423  0.521960  0.115033
    H   H27  0.609090  0.931082  0.521979  0.116159
    H   H28  0.390904  0.063430  0.478040  0.115016
    C   C45  0.500000  0.073363  0.500000  0.053281
    C   C46  0.499996  0.921154  0.500005  0.042579
    O   O9   0.370991  0.497963  0.922598  -0.456310
    C   C47  0.317983  0.496527  0.006280  0.195543
    C   C48  0.251125  0.503030  0.940398  0.129291
    C   C49  0.236773  0.565278  0.872859  -0.153562
    C   C50  0.173925  0.573016  0.815632  -0.010737
    C   C51  0.125279  0.518590  0.825957  -0.138535
    C   C52  0.139661  0.456154  0.892665  -0.058643
    C   C53  0.202475  0.448316  0.949970  -0.237489
    H   H29  0.323011  0.543090  0.071428  -0.028512
    H   H30  0.319731  0.444698  0.059436  -0.010023
    H   H31  0.274460  0.608494  0.865774  0.097106
    H   H32  0.162632  0.621990  0.763336  0.067160
    H   H33  0.075822  0.524886  0.781923  0.075784
    H   H34  0.101503  0.413477  0.900684  0.092946
    H   H35  0.212886  0.399398  0.002998  0.119268
    O   O10  0.629010  0.497598  0.077399  -0.455946
    C   C54  0.682010  0.495975  0.993710  0.195069
    C   C55  0.748884  0.502425  0.059555  0.127729
    C   C56  0.763339  0.564720  0.126900  -0.153388
    C   C57  0.826207  0.572411  0.184074  -0.010978
    C   C58  0.874770  0.517892  0.173886  -0.138910
    C   C59  0.860285  0.455411  0.107372  -0.059375
    C   C60  0.797450  0.447620  0.050122  -0.234465
    H   H36  0.677055  0.542479  0.928425  -0.028441
    H   H37  0.680171  0.444093  0.940707  -0.009838
    H   H38  0.725718  0.608008  0.133873  0.097297
    H   H39  0.837581  0.621420  0.236218  0.067345
    H   H40  0.924243  0.524150  0.217881  0.076260
    H   H41  0.898378  0.412661  0.099462  0.093016
    H   H42  0.786959  0.398665  0.997242  0.118221
