# Generated by REPEAT Assigner based on pymatgen
data_DB0-m9_o16_o20_f0_sra.sym.106
_audit_creation_date              2022-05-24
_audit_creation_method            REPEAT_Assigner
_cell_length_a                    21.566600
_cell_length_b                    6.818000
_cell_length_c                    19.382397
_cell_angle_alpha                 90.000000
_cell_angle_beta                  98.994089
_cell_angle_gamma                 90.000000
_cell_volume                      2814.966164
_symmetry_space_group_name_H-M    P1
_symmetry_Int_Tables_number       1
loop_
    _symmetry_equiv_pos_site_id
    _symmetry_equiv_pos_as_xyz
    1  x,y,z
loop_
    _atom_site_type_symbol
    _atom_site_label
    _atom_site_fract_x
    _atom_site_fract_y
    _atom_site_fract_z
    _atom_type_partial_charge
    O  O1   0.452899  0.589041  0.417422  -0.501525
    O  O2   0.547101  0.089041  0.582578  -0.501508
    O  O3   0.428354  0.241194  0.552667  -0.481971
    O  O4   0.571646  0.741194  0.447333  -0.481974
    C  C1   0.417223  0.416336  0.583513  0.614894
    C  C2   0.582776  0.916336  0.416487  0.614900
    O  O5   0.433201  0.242064  0.412564  -0.543433
    O  O6   0.566798  0.742064  0.587436  -0.543424
    O  O7   0.553049  0.086373  0.433353  -0.535262
    O  O8   0.446951  0.586373  0.566647  -0.535269
    C  C3   0.428084  0.425214  0.387596  0.541267
    C  C4   0.571916  0.925215  0.612404  0.541232
    O  O9   0.538670  0.409095  0.510662  -0.499878
    O  O10  0.461329  0.909093  0.489338  -0.499878
    V  V1   0.489412  0.137615  0.494972  1.490520
    V  V2   0.510588  0.637613  0.505028  1.490524
    C  C5   0.856594  0.672791  0.718330  -0.196778
    C  C6   0.143406  0.172791  0.281670  -0.196827
    H  H1   0.769676  0.592511  0.613994  0.140791
    H  H2   0.230324  0.092511  0.386006  0.140789
    H  H3   0.869726  0.569868  0.680720  0.137825
    H  H4   0.130274  0.069868  0.319280  0.137834
    C  C7   0.883123  0.856242  0.823592  0.044299
    C  C8   0.116877  0.356242  0.176409  0.044214
    C  C9   0.595113  0.088834  0.725288  -0.049118
    C  C10  0.404887  0.588833  0.274712  -0.049104
    C  C11  0.635578  0.142324  0.784237  -0.111535
    C  C12  0.364422  0.642324  0.215763  -0.111646
    C  C13  0.696206  0.072502  0.795630  -0.184774
    C  C14  0.303794  0.572503  0.204370  -0.184558
    C  C15  0.716959  0.945895  0.748099  0.051650
    C  C16  0.283041  0.445895  0.251902  0.051509
    C  C17  0.674968  0.886912  0.689806  0.165061
    C  C18  0.325032  0.386912  0.310194  0.165144
    C  C19  0.778915  0.878565  0.757421  0.044347
    C  C20  0.221085  0.378565  0.242579  0.044312
    C  C21  0.796752  0.749032  0.709159  0.192718
    C  C22  0.203247  0.249032  0.290841  0.192767
    C  C23  0.754870  0.692481  0.651526  -0.217344
    C  C24  0.245130  0.192481  0.348474  -0.217348
    C  C25  0.694385  0.762656  0.641447  -0.215226
    C  C26  0.305614  0.262656  0.358554  -0.215245
    C  C27  0.823352  0.935716  0.814126  -0.218958
    C  C28  0.176648  0.435716  0.185875  -0.218794
    C  C29  0.899204  0.722802  0.776021  -0.076422
    C  C30  0.100796  0.222802  0.223979  -0.076385
    C  C31  0.614189  0.959260  0.678256  -0.072248
    C  C32  0.385810  0.459260  0.321744  -0.072294
    H  H5   0.812204  0.034588  0.853616  0.155024
    H  H6   0.187796  0.534588  0.146384  0.154941
    H  H7   0.726108  0.120738  0.842140  0.137177
    H  H8   0.273892  0.620738  0.157860  0.137099
    H  H9   0.620005  0.242218  0.821317  0.126407
    H  H10  0.379995  0.742218  0.178684  0.126438
    H  H11  0.662097  0.719052  0.595680  0.177813
    H  H12  0.337903  0.219051  0.404320  0.177818
    C  C33  0.865126  0.895592  0.136115  -0.198297
    C  C34  0.134874  0.395592  0.863885  -0.198411
    C  C35  0.822680  0.898976  0.178270  0.061514
    C  C36  0.177319  0.398976  0.821730  0.061590
    C  C37  0.771352  0.905344  0.229235  -0.028176
    C  C38  0.228648  0.405343  0.770765  -0.028219
    C  C39  0.728915  0.910905  0.271370  -0.031328
    C  C40  0.271085  0.410905  0.728630  -0.031307
    C  C41  0.677585  0.917158  0.322337  0.064299
    C  C42  0.322415  0.417158  0.677663  0.064296
    C  C43  0.635141  0.920368  0.364493  -0.200217
    C  C44  0.364859  0.420368  0.635508  -0.200210
    O  O11  0.052938  0.229251  0.932928  -0.548573
    O  O12  0.947062  0.729251  0.067072  -0.548571
    O  O13  0.067283  0.572461  0.086816  -0.560875
    O  O14  0.932717  0.072461  0.913184  -0.560919
    C  C45  0.072888  0.389374  0.111789  0.545301
    C  C46  0.927112  0.889374  0.888211  0.545335
    O  O15  0.071341  0.574541  0.946691  -0.490016
    O  O16  0.928659  0.074541  0.053309  -0.489945
    O  O17  0.952070  0.725201  0.917634  -0.507890
    O  O18  0.047930  0.225201  0.082366  -0.507868
    C  C47  0.082546  0.399398  0.915932  0.635018
    C  C48  0.917454  0.899398  0.084068  0.634853
    O  O19  0.962072  0.405202  0.989596  -0.511829
    O  O20  0.037928  0.905203  0.010404  -0.511800
    V  V3   0.010368  0.676219  0.004835  1.522642
    V  V4   0.989632  0.176221  0.995165  1.522848
    C  C49  0.961873  0.635442  0.786196  0.617366
    O  O21  0.000745  0.684548  0.835747  -0.420733
    N  N1   0.977782  0.494209  0.737597  -0.767234
    H  H13  0.023744  0.448477  0.755146  0.342019
    H  H14  0.948194  0.373655  0.739216  0.296204
    C  C50  0.038127  0.135442  0.213804  0.617368
    O  O22  0.999255  0.184548  0.164253  -0.420716
    N  N2   0.022217  0.994208  0.262403  -0.767263
    H  H15  0.976255  0.948477  0.244854  0.342040
    H  H16  0.051806  0.873655  0.260785  0.296211
    C  C51  0.531417  0.168520  0.713027  0.610186
    O  O23  0.494665  0.117543  0.661895  -0.418306
    N  N3   0.511980  0.304135  0.761417  -0.768096
    H  H17  0.465772  0.344435  0.742341  0.344421
    H  H18  0.540104  0.428841  0.761675  0.297241
    C  C52  0.468583  0.668520  0.286973  0.610216
    O  O24  0.505335  0.617542  0.338105  -0.418319
    N  N4   0.488020  0.804135  0.238583  -0.768101
    H  H19  0.534228  0.844435  0.257659  0.344424
    H  H20  0.459895  0.928841  0.238325  0.297237
