# generated using pymatgen
data_Fe2H37C46N13O16
_symmetry_space_group_name_H-M   'P 1'
_cell_length_a   9.36667500
_cell_length_b   16.90235100
_cell_length_c   19.53597100
_cell_angle_alpha   103.20827300
_cell_angle_beta   85.69927000
_cell_angle_gamma   76.70633100
_symmetry_Int_Tables_number   1
_chemical_formula_structural   Fe2H37C46N13O16
_chemical_formula_sum   'Fe2 H37 C46 N13 O16'
_cell_volume   2903.73951057
_cell_formula_units_Z   1
loop_
 _symmetry_equiv_pos_site_id
 _symmetry_equiv_pos_as_xyz
  1  'x, y, z'
loop_
 _atom_site_type_symbol
 _atom_site_label
 _atom_site_symmetry_multiplicity
 _atom_site_fract_x
 _atom_site_fract_y
 _atom_site_fract_z
 _atom_site_occupancy
  Fe  Fe1  1  0.46319900  0.98138100  0.37132300  1
  Fe  Fe2  1  0.50925800  0.99447800  0.64075100  1
  H  H1  1  0.96740900  0.01694800  0.67215300  1
  H  H2  1  0.77179000  0.98369500  0.86244900  1
  H  H3  1  0.19323700  0.01106800  0.15057600  1
  H  H4  1  0.00525900  0.97603100  0.34175000  1
  H  H5  1  0.14713300  0.26245700  0.45897800  1
  H  H6  1  0.23226600  0.43253500  0.63849700  1
  H  H7  1  0.71899100  0.66699100  0.31356600  1
  H  H8  1  0.66759000  0.49455600  0.35270500  1
  H  H9  1  0.81448000  0.42618500  0.28547200  1
  H  H10  1  0.71546800  0.52574400  0.27309700  1
  H  H11  1  0.06375600  0.56423100  0.32883100  1
  H  H12  1  0.94596000  0.56784500  0.25969100  1
  H  H13  1  0.04734900  0.46798700  0.27064700  1
  H  H14  1  0.96638800  0.73720000  0.56524600  1
  H  H15  1  0.93098800  0.70920300  0.64804300  1
  H  H16  1  0.84873100  0.81328700  0.63982500  1
  H  H17  1  0.62339600  0.63573100  0.59071700  1
  H  H18  1  0.63011700  0.70578900  0.67422200  1
  H  H19  1  0.78627800  0.61830600  0.63524400  1
  H  H20  1  0.18754900  0.15485200  0.84288100  1
  H  H21  1  0.38116800  0.10028200  0.83471000  1
  H  H22  1  0.27354000  0.14503600  0.92085500  1
  H  H23  1  0.35047100  0.91255800  0.81435300  1
  H  H24  1  0.31180100  0.93758200  0.90950000  1
  H  H25  1  0.44864900  0.97816200  0.86938000  1
  H  H26  1  0.70194900  0.12369000  0.16882100  1
  H  H27  1  0.52666300  0.09734900  0.16829000  1
  H  H28  1  0.65676500  0.06228100  0.08848400  1
  H  H29  1  0.78831800  0.87132700  0.11708700  1
  H  H30  1  0.64214800  0.92935800  0.07815000  1
  H  H31  1  0.59972500  0.90231500  0.15966300  1
  H  H32  1  0.21097200  0.32973400  0.75586700  1
  H  H33  1  0.25739100  0.42773500  0.75462500  1
  H  H34  1  0.36218500  0.35698000  0.79979700  1
  H  H35  1  0.59610000  0.32259700  0.63035000  1
  H  H36  1  0.58443900  0.36006900  0.72537700  1
  H  H37  1  0.47456700  0.42377700  0.67603900  1
  C  C1  1  0.10143600  0.02253300  0.75670400  1
  C  C2  1  0.10529600  0.02205100  0.82811100  1
  C  C3  1  0.98590900  0.00755700  0.86584300  1
  C  C4  1  0.86466300  0.99458600  0.83306900  1
  C  C5  1  0.85600600  0.00143300  0.76462100  1
  C  C6  1  0.97339600  0.01599800  0.72695300  1
  C  C7  1  0.97016000  0.00441100  0.07805200  1
  C  C8  1  0.98408400  0.00559600  0.94079900  1
  C  C9  1  0.09871400  0.00434800  0.18187100  1
  C  C10  1  0.11159000  0.99395800  0.24914300  1
  C  C11  1  0.99394100  0.98241200  0.28856300  1
  C  C12  1  0.86037200  0.98436400  0.26256200  1
  C  C13  1  0.84733000  0.99285700  0.19369300  1
  C  C14  1  0.96976600  0.00086300  0.15257400  1
  C  C15  1  0.73470800  0.98054400  0.31084800  1
  C  C16  1  0.60532600  0.82513700  0.38322100  1
  C  C17  1  0.24838800  0.99720000  0.27979300  1
  C  C18  1  0.31843800  0.12564900  0.47439600  1
  C  C19  1  0.28816300  0.20757300  0.52497300  1
  C  C20  1  0.19641500  0.27419700  0.50735800  1
  C  C21  1  0.17419900  0.35499900  0.54843500  1
  C  C22  1  0.24629700  0.36903100  0.60730300  1
  C  C23  1  0.33188500  0.30233700  0.62807000  1
  C  C24  1  0.35080500  0.22016000  0.58789400  1
  C  C25  1  0.90276700  0.55359300  0.49113300  1
  C  C26  1  0.07781000  0.42539100  0.52845200  1
  C  C27  1  0.79905600  0.61075800  0.39529300  1
  C  C28  1  0.72869500  0.67686200  0.36941700  1
  C  C29  1  0.67337600  0.75613600  0.41376700  1
  C  C30  1  0.68670800  0.76929200  0.48543800  1
  C  C31  1  0.75246600  0.70310100  0.51258700  1
  C  C32  1  0.81313100  0.62333400  0.46698800  1
  C  C33  1  0.72469100  0.98987800  0.73125800  1
  C  C34  1  0.64516100  0.85419800  0.53277000  1
  C  C35  1  0.23000800  0.02475200  0.70925500  1
  C  C36  1  0.42001100  0.14891000  0.61720300  1
  C  C37  1  0.75988100  0.49266100  0.31283400  1
  C  C38  1  0.98682300  0.53318600  0.29907200  1
  C  C39  1  0.88243800  0.74583800  0.61128600  1
  C  C40  1  0.69669200  0.66666667  0.62338700  1
  C  C41  1  0.27010000  0.11273600  0.86502600  1
  C  C42  1  0.34112500  0.96216400  0.86384200  1
  C  C43  1  0.64593800  0.07416900  0.14699400  1
  C  C44  1  0.68356500  0.92151200  0.12848600  1
  C  C45  1  0.30286700  0.36067000  0.75312500  1
  C  C46  1  0.52072200  0.35854700  0.67969100  1
  N  N1  1  0.91014500  0.95653800  0.96597900  1
  N  N2  1  0.90457700  0.95537700  0.03351700  1
  N  N3  1  0.04538100  0.05294100  0.05279600  1
  N  N4  1  0.05139500  0.05397100  0.98516900  1
  N  N5  1  0.09079600  0.50418100  0.55293700  1
  N  N6  1  0.00522600  0.56728700  0.53400300  1
  N  N7  1  0.88975700  0.47468100  0.46680200  1
  N  N8  1  0.97628400  0.41140600  0.48511100  1
  N  N9  1  0.86541500  0.53146300  0.34802400  1
  N  N10  1  0.75483400  0.72005000  0.58686800  1
  N  N11  1  0.22732300  0.03567900  0.86347500  1
  N  N12  1  0.70769100  0.99897300  0.16899600  1
  N  N13  1  0.40375200  0.31811100  0.68906500  1
  O  O1  1  0.60208000  0.98644600  0.29195300  1
  O  O2  1  0.64159500  0.81985400  0.31584700  1
  O  O3  1  0.75421800  0.97330600  0.37518000  1
  O  O4  1  0.50872000  0.89223000  0.42261500  1
  O  O5  1  0.28021400  0.96051500  0.33128000  1
  O  O6  1  0.33461800  0.04023800  0.25825200  1
  O  O7  1  0.45333500  0.09035700  0.44134600  1
  O  O8  1  0.20851600  0.09376100  0.45459100  1
  O  O9  1  0.68635200  0.02583600  0.68009300  1
  O  O10  1  0.64673200  0.94217600  0.75179500  1
  O  O11  1  0.52918500  0.87749700  0.58168400  1
  O  O12  1  0.72325700  0.90772700  0.52543500  1
  O  O13  1  0.41832600  0.16114000  0.68608900  1
  O  O14  1  0.36618300  0.99924900  0.72244000  1
  O  O15  1  0.46445900  0.07115900  0.57785000  1
  O  O16  1  0.20948700  0.04110700  0.64771700  1
