# Generated by REPEAT Assigner based on pymatgen
data_DB0-m2_o10_o23_f0_pcu.sym.54_sqe
_audit_creation_date              2022-05-24
_audit_creation_method            REPEAT_Assigner
_cell_length_a                    15.858801
_cell_length_b                    8.778845
_cell_length_c                    7.277760
_cell_angle_alpha                 104.250918
_cell_angle_beta                  96.299656
_cell_angle_gamma                 89.999036
_cell_volume                      975.730812
_symmetry_space_group_name_H-M    P1
_symmetry_Int_Tables_number       1
loop_
    _symmetry_equiv_pos_site_id
    _symmetry_equiv_pos_as_xyz
    1  x,y,z
loop_
    _atom_site_type_symbol
    _atom_site_label
    _atom_site_fract_x
    _atom_site_fract_y
    _atom_site_fract_z
    _atom_type_partial_charge
    O   O1   0.503267  0.285065  0.626310  -0.571299
    O   O2   0.492647  0.253031  0.299894  -0.605339
    C   C1   0.498625  0.197208  0.451665  0.722947
    O   O3   0.384873  0.513463  0.660056  -0.606608
    O   O4   0.370218  0.488637  0.336772  -0.638755
    C   C2   0.338501  0.497281  0.497014  0.856203
    Cu  Cu1  0.508207  0.514735  0.687898  0.846115
    Cu  Cu2  0.491741  0.476779  0.309413  0.869274
    O   O5   0.505020  0.738239  0.696771  -0.585315
    O   O6   0.499517  0.705951  0.370605  -0.549638
    O   O7   0.630332  0.517737  0.664601  -0.602567
    O   O8   0.615342  0.482382  0.337268  -0.626193
    C   C3   0.503901  0.793564  0.545046  0.766410
    C   C4   0.662140  0.494504  0.501054  0.787183
    C   C5   0.055718  0.420147  0.650265  -0.159264
    C   C6   0.037260  0.415527  0.307262  -0.231132
    C   C7   0.941756  0.413966  0.310959  -0.055266
    H   H1   0.934397  0.298106  0.608399  0.054482
    H   H2   0.076695  0.296412  0.614014  0.023195
    H   H3   0.054262  0.478145  0.200443  0.049474
    H   H4   0.058947  0.292553  0.269993  0.036975
    H   H5   0.918031  0.290505  0.283351  0.029600
    H   H6   0.910503  0.468192  0.199328  -0.004969
    C   C8   0.752737  0.497957  0.503444  -0.140185
    C   C9   0.079517  0.500327  0.501521  0.738514
    C   C10  0.959668  0.421246  0.651485  -0.178573
    C   C11  0.920205  0.504412  0.505179  0.584098
    C   C12  0.955485  0.672302  0.542861  -0.127647
    C   C13  0.051509  0.668714  0.547805  -0.189227
    C   C14  0.828490  0.500938  0.502833  -0.416212
    C   C15  0.171758  0.498356  0.499226  -0.334145
    C   C16  0.247657  0.498188  0.496271  -0.216200
    H   H7   0.083624  0.731735  0.688898  0.024514
    H   H8   0.070299  0.722652  0.436022  0.017619
    H   H9   0.089346  0.483354  0.790421  0.017059
    H   H10  0.940501  0.475312  0.794864  0.051125
    H   H11  0.929913  0.717126  0.419142  0.002569
    C   C17  0.497922  0.028775  0.423960  -0.178053
    H   H12  0.494509  0.956518  0.279380  0.139144
    C   C18  0.502964  0.965346  0.573321  -0.268494
    H   H13  0.505747  0.040037  0.718368  0.167100
    N   N1   0.478041  0.448107  0.026565  -0.067058
    H   H14  0.432688  0.386613  0.921601  0.232010
    N   N2   0.522110  0.541364  0.970538  -0.103162
    H   H15  0.560674  0.609005  0.083766  0.241961
    C   C19  0.927514  0.787428  0.719399  0.690058
    C   C20  0.929009  0.951143  0.684999  -0.353302
    C   C21  0.837712  0.748236  0.749194  -0.370421
    C   C22  0.986730  0.791786  0.900023  -0.524052
    H   H16  0.885469  0.954650  0.556084  0.039266
    H   H17  0.994451  0.983366  0.664795  0.074607
    H   H18  0.908408  0.037231  0.809398  0.061272
    H   H19  0.794536  0.745816  0.616777  0.107883
    H   H20  0.816551  0.840193  0.867151  0.037137
    H   H21  0.835497  0.636312  0.793527  0.110593
    H   H22  0.036903  0.884339  0.917656  0.102125
    H   H23  0.015889  0.676950  0.895688  0.119183
    H   H24  0.950789  0.823178  0.025930  0.103378
