# Generated by REPEAT Assigner based on pymatgen
data_DB0-m2_o14_o22_f0_nbo.sym.54_sqe
_audit_creation_date              2022-05-24
_audit_creation_method            REPEAT_Assigner
_cell_length_a                    18.414838
_cell_length_b                    18.729269
_cell_length_c                    18.804863
_cell_angle_alpha                 109.636985
_cell_angle_beta                  109.396496
_cell_angle_gamma                 108.851362
_cell_volume                      5024.851793
_symmetry_space_group_name_H-M    P1
_symmetry_Int_Tables_number       1
loop_
    _symmetry_equiv_pos_site_id
    _symmetry_equiv_pos_as_xyz
    1  x,y,z
loop_
    _atom_site_type_symbol
    _atom_site_label
    _atom_site_fract_x
    _atom_site_fract_y
    _atom_site_fract_z
    _atom_type_partial_charge
    O   O1   0.394177  0.358245  0.430812  -0.608344
    O   O2   0.423344  0.456174  0.565530  -0.627796
    C   C1   0.376142  0.378832  0.494905  0.797493
    O   O3   0.570561  0.423659  0.540016  -0.592947
    O   O4   0.603304  0.557627  0.643315  -0.612024
    C   C2   0.615909  0.489605  0.620418  0.650796
    Cu  Cu1  0.504238  0.436668  0.444265  0.939035
    Cu  Cu2  0.500665  0.555018  0.563956  0.975564
    O   O5   0.613677  0.533624  0.476211  -0.591330
    O   O6   0.578315  0.635470  0.543718  -0.653265
    O   O7   0.437836  0.468446  0.367372  -0.608372
    O   O8   0.398863  0.534377  0.465887  -0.626019
    C   C3   0.627751  0.614112  0.513286  0.825209
    C   C4   0.392777  0.506034  0.388399  0.805458
    C   C5   0.684337  0.400910  0.653499  0.212248
    H   H1   0.694175  0.385071  0.596626  -0.075060
    H   H2   0.619007  0.348312  0.632435  -0.021426
    C   C6   0.754321  0.400225  0.723938  -0.249446
    H   H3   0.721980  0.347616  0.735707  0.044241
    H   H4   0.800317  0.387756  0.702324  0.042493
    H   H5   0.889117  0.543557  0.761379  0.057744
    C   C7   0.776819  0.565751  0.727601  0.281261
    C   C8   0.666762  0.497540  0.763237  -0.012924
    C   C9   0.685800  0.488118  0.688780  -0.097703
    H   H6   0.661144  0.556916  0.789302  0.021220
    H   H7   0.603533  0.440586  0.739907  0.025197
    C   C10  0.804957  0.487029  0.806813  0.479282
    C   C11  0.847670  0.558107  0.788857  -0.341472
    C   C12  0.741053  0.503058  0.835817  -0.107680
    H   H8   0.712025  0.453680  0.852590  0.029426
    H   H9   0.776938  0.568517  0.893922  -0.006035
    H   H10  0.776270  0.623620  0.769187  -0.031235
    H   H11  0.889799  0.621729  0.849886  0.079448
    H   H12  0.382079  0.338489  0.616723  0.123373
    C   C13  0.199990  0.277988  0.347209  -0.237464
    H   H13  0.246092  0.333857  0.350791  0.153011
    C   C14  0.119559  0.225458  0.272502  -0.100086
    H   H14  0.105805  0.239748  0.219930  0.101694
    C   C15  0.057256  0.154367  0.264392  -0.039761
    H   H15  0.994532  0.111837  0.204903  0.096606
    C   C16  0.073697  0.137598  0.332186  -0.287597
    H   H16  0.022053  0.080424  0.320487  0.171060
    C   C17  0.153563  0.191672  0.409993  0.195564
    C   C18  0.219103  0.260170  0.415242  0.212043
    C   C19  0.302313  0.311586  0.489110  -0.208930
    C   C20  0.317786  0.298314  0.558962  -0.096431
    H   H17  0.267949  0.224593  0.611816  0.127066
    C   C21  0.253046  0.232519  0.555263  -0.067123
    C   C22  0.170703  0.178155  0.481693  -0.198027
    H   H18  0.235645  0.483223  0.365662  0.088268
    C   C23  0.425428  0.550617  0.263078  -0.235517
    H   H19  0.483174  0.568775  0.320140  0.133506
    C   C24  0.437316  0.556965  0.196628  -0.085539
    H   H20  0.501688  0.576203  0.201780  0.109234
    C   C25  0.367062  0.536900  0.123020  -0.063495
    H   H21  0.375618  0.538827  0.069421  0.102301
    C   C26  0.286166  0.516213  0.118114  -0.268228
    H   H22  0.232925  0.499232  0.058034  0.152521
    C   C27  0.274250  0.514788  0.187040  0.200526
    C   C28  0.342763  0.524685  0.257025  0.209794
    C   C29  0.328214  0.510604  0.320632  -0.271042
    C   C30  0.248134  0.494477  0.317120  0.021435
    H   H23  0.121065  0.479489  0.251083  0.137799
    C   C31  0.182401  0.490549  0.251047  -0.166154
    C   C32  0.194460  0.500999  0.185863  -0.161188
    H   H24  0.660344  0.603785  0.385306  0.114922
    C   C33  0.759116  0.779997  0.671077  -0.246539
    H   H25  0.716771  0.730877  0.678182  0.160171
    C   C34  0.815565  0.860944  0.743672  -0.094852
    H   H26  0.814445  0.873412  0.803642  0.105693
    C   C35  0.872600  0.926112  0.739795  -0.065565
    H   H27  0.915648  0.990141  0.796430  0.105847
    C   C36  0.875674  0.909628  0.664177  -0.256419
    H   H28  0.920783  0.962758  0.663726  0.148137
    C   C37  0.821185  0.827564  0.591171  0.153130
    C   C38  0.759268  0.763060  0.593236  0.244742
    C   C39  0.699948  0.682352  0.518084  -0.224231
    C   C40  0.706240  0.666053  0.443838  -0.072575
    H   H29  0.771524  0.716318  0.383234  0.120031
    C   C41  0.768306  0.729671  0.442353  -0.108358
    C   C42  0.826142  0.810202  0.515467  -0.173588
    O   O9   0.955863  0.353606  0.916795  -0.624387
    O   O10  0.060074  0.460461  0.914752  -0.609210
    C   C43  0.007978  0.378669  0.886529  0.754848
    O   O11  0.853832  0.438137  0.909029  -0.610479
    O   O12  0.957880  0.544641  0.906798  -0.583643
    C   C44  0.875871  0.487712  0.875951  0.472399
    Cu  Cu3  0.939245  0.433233  0.000010  0.987812
    Cu  Cu4  0.059613  0.556874  0.997524  0.947735
    O   O13  0.943595  0.529941  0.087606  -0.609818
    O   O14  0.047430  0.636771  0.085153  -0.578098
    O   O15  0.040796  0.449542  0.094835  -0.592891
    O   O16  0.144611  0.556557  0.092844  -0.571321
    C   C45  0.988484  0.611096  0.108442  0.772906
    C   C46  0.123199  0.500017  0.118910  0.752704
    O   O17  0.064375  0.081888  0.643282  -0.571926
    O   O18  0.949095  0.084107  0.548564  -0.618741
    C   C47  0.008153  0.110746  0.627791  0.734826
    O   O19  0.137638  0.081637  0.537519  -0.610027
    O   O20  0.021690  0.082452  0.442108  -0.569015
    C   C48  0.106377  0.109529  0.485460  0.712115
    Cu  Cu5  0.064952  0.992230  0.552960  0.962408
    Cu  Cu6  0.930650  0.994013  0.443388  0.963004
    O   O21  0.042882  0.898347  0.448296  -0.596946
    O   O22  0.935121  0.908614  0.352767  -0.586245
    O   O23  0.974371  0.908022  0.558764  -0.601046
    O   O24  0.857571  0.900581  0.454191  -0.612672
    C   C49  0.987844  0.875878  0.369218  0.715652
    C   C50  0.889327  0.876168  0.509384  0.774544
    H   H30  0.967430  0.343959  0.727289  0.134418
    C   C51  0.076451  0.273883  0.931984  -0.205510
    H   H31  0.082899  0.327937  0.983400  0.119459
    C   C52  0.102932  0.220151  0.953871  -0.116927
    H   H32  0.127464  0.232084  0.019820  0.112503
    C   C53  0.097094  0.150758  0.891661  -0.022872
    H   H33  0.116189  0.107296  0.908357  0.081980
    C   C54  0.067140  0.136158  0.807997  -0.255071
    H   H34  0.062886  0.079477  0.762991  0.158128
    C   C55  0.042593  0.191431  0.784655  0.203529
    C   C56  0.044443  0.259177  0.847355  0.155556
    C   C57  0.015472  0.312606  0.825574  -0.110666
    C   C58  0.989428  0.301863  0.743745  -0.173727
    H   H35  0.967186  0.229589  0.617968  0.126122
    C   C59  0.988247  0.236093  0.681773  -0.031464
    C   C60  0.013841  0.179857  0.700315  -0.235516
    H   H36  0.990466  0.621649  0.252305  0.141338
    C   C61  0.962559  0.745556  0.081123  -0.271587
    H   H37  0.952497  0.692027  0.026233  0.160473
    C   C62  0.960988  0.814751  0.071640  -0.032348
    H   H38  0.952162  0.814789  0.011885  0.085843
    C   C63  0.972213  0.884365  0.138640  -0.097814
    H   H39  0.973371  0.939887  0.132206  0.109988
    C   C64  0.980923  0.883146  0.213664  -0.272035
    H   H40  0.991103  0.939855  0.264574  0.160483
    C   C65  0.978555  0.812057  0.222935  0.210694
    C   C66  0.974609  0.744929  0.157909  0.203494
    C   C67  0.981308  0.677397  0.169791  -0.208907
    C   C68  0.985412  0.674045  0.242872  -0.112423
    H   H41  0.990583  0.735324  0.363231  0.117661
    C   C69  0.986767  0.739005  0.306064  -0.069788
    C   C70  0.983496  0.808228  0.297210  -0.183595
    C   C71  0.802521  0.589659  0.665693  -0.184221
    C   C72  0.797582  0.517860  0.592066  0.314035
    C   C73  0.846714  0.557496  0.552728  -0.429129
    H   H42  0.819936  0.596554  0.531904  0.101805
    H   H43  0.918041  0.599599  0.601167  0.093635
    H   H44  0.838155  0.504790  0.495526  0.072900
    H   H45  0.827881  0.482228  0.615458  -0.029179
    H   H46  0.727923  0.472363  0.540416  -0.020029
    H   H47  0.761038  0.614804  0.637630  0.007178
    H   H48  0.871311  0.644253  0.705569  0.024295
