# generated using pymatgen
data_Zn3H21C31O14
_symmetry_space_group_name_H-M   'P 1'
_cell_length_a   18.71823500
_cell_length_b   19.04510000
_cell_length_c   19.09271400
_cell_angle_alpha   70.48512200
_cell_angle_beta   70.66495900
_cell_angle_gamma   109.12243500
_symmetry_Int_Tables_number   1
_chemical_formula_structural   Zn3H21C31O14
_chemical_formula_sum   'Zn6 H42 C62 O28'
_cell_volume   5267.84582602
_cell_formula_units_Z   2
loop_
 _symmetry_equiv_pos_site_id
 _symmetry_equiv_pos_as_xyz
  1  'x, y, z'
loop_
 _atom_site_type_symbol
 _atom_site_label
 _atom_site_symmetry_multiplicity
 _atom_site_fract_x
 _atom_site_fract_y
 _atom_site_fract_z
 _atom_site_occupancy
  Zn  Zn1  1  0.93688000  0.50616800  0.06385200  1
  Zn  Zn2  1  0.07589000  0.50348900  0.92878200  1
  Zn  Zn3  1  0.06527200  0.06422000  0.50678000  1
  Zn  Zn4  1  0.92344200  0.94119400  0.49642300  1
  Zn  Zn5  1  0.49049500  0.07102200  0.94060800  1
  Zn  Zn6  1  0.50729900  0.93882200  0.06584900  1
  H  H1  1  0.00719800  0.87451100  0.75293800  1
  H  H2  1  0.94020700  0.74034700  0.70254600  1
  H  H3  1  0.96286000  0.74081100  0.88499600  1
  H  H4  1  0.03246000  0.69608200  0.74667500  1
  H  H5  1  0.88724300  0.24931000  0.98072200  1
  H  H6  1  0.77031000  0.13656500  0.98621900  1
  H  H7  1  0.61693400  0.32372600  0.95839700  1
  H  H8  1  0.56355100  0.25625700  0.07815900  1
  H  H9  1  0.73031800  0.43206400  0.95906500  1
  H  H10  1  0.67625100  0.36493800  0.07891800  1
  H  H11  1  0.11190100  0.31680700  0.09146900  1
  H  H12  1  0.83729400  0.16455900  0.43492700  1
  H  H13  1  0.92137900  0.25127300  0.43598900  1
  H  H14  1  0.83181500  0.27336000  0.32667000  1
  H  H15  1  0.27866300  0.63807900  0.98514600  1
  H  H16  1  0.38679200  0.74834200  0.99140600  1
  H  H17  1  0.17147700  0.86217300  0.07587300  1
  H  H18  1  0.22628900  0.92709400  0.95570800  1
  H  H19  1  0.06151000  0.75010800  0.07578900  1
  H  H20  1  0.11668100  0.81470900  0.95555400  1
  H  H21  1  0.10585000  0.96857800  0.25905800  1
  H  H22  1  0.22158800  0.97347900  0.14576000  1
  H  H23  1  0.38266100  0.95322800  0.32616500  1
  H  H24  1  0.43282600  0.07237000  0.25634900  1
  H  H25  1  0.27038600  0.95459300  0.43541000  1
  H  H26  1  0.32147400  0.07385000  0.36568500  1
  H  H27  1  0.73483100  0.02249100  0.61717600  1
  H  H28  1  0.62497900  0.02491900  0.73005200  1
  H  H29  1  0.82404100  0.06739500  0.86871500  1
  H  H30  1  0.76203600  0.94688100  0.92259300  1
  H  H31  1  0.93597700  0.07116300  0.75437300  1
  H  H32  1  0.87328200  0.95068200  0.80803000  1
  H  H33  1  0.19809500  0.12560200  0.11161900  1
  H  H34  1  0.28680400  0.21870300  0.09333700  1
  H  H35  1  0.21683800  0.21078500  0.97004400  1
  H  H36  1  0.31620000  0.21040900  0.96071100  1
  H  H37  1  0.30536500  0.30368800  0.95168800  1
  H  H38  1  0.97359200  0.54770500  0.25354200  1
  H  H39  1  0.91801700  0.49918300  0.36919100  1
  H  H40  1  0.83768200  0.53601400  0.25408400  1
  H  H41  1  0.87006800  0.59735400  0.30361100  1
  H  H42  1  0.78203400  0.48759600  0.36943300  1
  C  C1  1  0.88719500  0.38565400  0.99575500  1
  C  C2  1  0.00397200  0.62215300  0.87824800  1
  C  C3  1  0.12538700  0.62412400  0.99686000  1
  C  C4  1  0.00957500  0.38785400  0.11430600  1
  C  C5  1  0.98859700  0.81373600  0.75413600  1
  C  C6  1  0.96787800  0.80314200  0.69652600  1
  C  C7  1  0.98054100  0.74280100  0.82399900  1
  C  C8  1  0.00506100  0.68815600  0.81026500  1
  C  C9  1  0.74383600  0.31956100  0.00523600  1
  C  C10  1  0.81963100  0.31946300  0.99615700  1
  C  C11  1  0.82914900  0.25308400  0.98753000  1
  C  C12  1  0.76255600  0.18884400  0.99108500  1
  C  C13  1  0.68768700  0.19259900  0.99872500  1
  C  C14  1  0.68249200  0.26086400  0.00406100  1
  C  C15  1  0.62430300  0.29827000  0.01541100  1
  C  C16  1  0.69680100  0.36781300  0.01601700  1
  C  C17  1  0.96323400  0.29358900  0.26570400  1
  C  C18  1  0.01357400  0.32463500  0.18022400  1
  C  C19  1  0.07009300  0.29340100  0.15814400  1
  C  C20  1  0.07369000  0.23201000  0.22043400  1
  C  C21  1  0.01953200  0.20142300  0.30701900  1
  C  C22  1  0.96629100  0.23549900  0.32515400  1
  C  C23  1  0.89680600  0.22811600  0.39811700  1
  C  C24  1  0.89362600  0.29685700  0.32811100  1
  C  C25  1  0.18239400  0.75539400  0.00571100  1
  C  C26  1  0.19227600  0.69001700  0.99727700  1
  C  C27  1  0.26782200  0.68869300  0.99102200  1
  C  C28  1  0.32879500  0.75080900  0.99530400  1
  C  C29  1  0.31675700  0.81708600  0.00157900  1
  C  C30  1  0.24237300  0.81677500  0.00526000  1
  C  C31  1  0.19342700  0.86368000  0.01358500  1
  C  C32  1  0.12293900  0.79161400  0.01361000  1
  C  C33  1  0.10967000  0.98981500  0.39109400  1
  C  C34  1  0.97794400  0.87548700  0.62691800  1
  C  C35  1  0.87917800  0.01532600  0.61229500  1
  C  C36  1  0.01026100  0.12989500  0.37667700  1
  C  C37  1  0.62035200  0.01373200  0.87735900  1
  C  C38  1  0.61764600  0.12497700  0.00328900  1
  C  C39  1  0.37695800  0.99583100  0.12903300  1
  C  C40  1  0.38092300  0.88485900  0.00257600  1
  C  C41  1  0.25152800  0.99493900  0.32597300  1
  C  C42  1  0.17521200  0.98570900  0.32713000  1
  C  C43  1  0.16410200  0.97516500  0.26227000  1
  C  C44  1  0.23004200  0.97835300  0.19759700  1
  C  C45  1  0.30596600  0.98745100  0.19933500  1
  C  C46  1  0.31231200  0.99340100  0.26680600  1
  C  C47  1  0.37317500  0.00892200  0.30061200  1
  C  C48  1  0.30142900  0.00997300  0.37067700  1
  C  C49  1  0.81947000  0.01817800  0.74642400  1
  C  C50  1  0.81387400  0.01907000  0.67647600  1
  C  C51  1  0.74231200  0.02126300  0.67126700  1
  C  C52  1  0.68033200  0.02321400  0.73500900  1
  C  C53  1  0.68717800  0.01851400  0.80650300  1
  C  C54  1  0.75837800  0.01543400  0.80901400  1
  C  C55  1  0.80058000  0.00939400  0.86256300  1
  C  C56  1  0.87225700  0.01195000  0.78906300  1
  C  C57  1  0.13468000  0.20137700  0.19161300  1
  C  C58  1  0.23298200  0.19646100  0.07966600  1
  C  C59  1  0.27036000  0.23277000  0.98412000  1
  C  C60  1  0.92601300  0.38133000  0.32462600  1
  C  C61  1  0.91016200  0.50220600  0.31333300  1
  C  C62  1  0.84566200  0.53284900  0.30989900  1
  O  O1  1  0.86325600  0.41729000  0.04490700  1
  O  O2  1  0.96874700  0.41030300  0.94639900  1
  O  O3  1  0.95289000  0.59749200  0.95809700  1
  O  O4  1  0.05504000  0.59099500  0.85572300  1
  O  O5  1  0.04390300  0.59901500  0.04667900  1
  O  O6  1  0.14954500  0.59285100  0.94726900  1
  O  O7  1  0.95745000  0.41820500  0.13693200  1
  O  O8  1  0.06037800  0.41280600  0.03449200  1
  O  O9  1  0.13536900  0.03737600  0.42357500  1
  O  O10  1  0.02829500  0.94816900  0.41078100  1
  O  O11  1  0.03470700  0.95299900  0.60302200  1
  O  O12  1  0.93033800  0.85946600  0.59100000  1
  O  O13  1  0.96054200  0.05751400  0.59225300  1
  O  O14  1  0.85326600  0.96763800  0.57999000  1
  O  O15  1  0.05862000  0.14598800  0.41195800  1
  O  O16  1  0.95355600  0.05242800  0.40056100  1
  O  O17  1  0.58287400  0.05957200  0.86020000  1
  O  O18  1  0.60043800  0.96299100  0.95518500  1
  O  O19  1  0.58061800  0.14594700  0.95819000  1
  O  O20  1  0.59805900  0.04599700  0.04948700  1
  O  O21  1  0.39733700  0.04680700  0.05121900  1
  O  O22  1  0.41463500  0.95011700  0.14624300  1
  O  O23  1  0.39985400  0.96382900  0.95686000  1
  O  O24  1  0.41755700  0.86391600  0.04800100  1
  O  O25  1  0.15012300  0.15793400  0.24136700  1
  O  O26  1  0.17614700  0.22401600  0.10843000  1
  O  O27  1  0.99565600  0.41452700  0.32157400  1
  O  O28  1  0.87977500  0.42247600  0.32105700  1
