# generated using pymatgen
data_FeH14C35NO8
_symmetry_space_group_name_H-M   'P 1'
_cell_length_a   17.59880800
_cell_length_b   14.55646800
_cell_length_c   11.16508100
_cell_angle_alpha   93.88855000
_cell_angle_beta   82.70493400
_cell_angle_gamma   106.42965600
_symmetry_Int_Tables_number   1
_chemical_formula_structural   FeH14C35NO8
_chemical_formula_sum   'Fe2 H28 C70 N2 O16'
_cell_volume   2719.70410367
_cell_formula_units_Z   2
loop_
 _symmetry_equiv_pos_site_id
 _symmetry_equiv_pos_as_xyz
  1  'x, y, z'
loop_
 _atom_site_type_symbol
 _atom_site_label
 _atom_site_symmetry_multiplicity
 _atom_site_fract_x
 _atom_site_fract_y
 _atom_site_fract_z
 _atom_site_occupancy
  Fe  Fe1  1  0.47906200  0.98139500  0.28286400  1
  Fe  Fe2  1  0.47597500  0.98313900  0.76176000  1
  H  H1  1  0.23834700  0.98821300  0.29760200  1
  H  H2  1  0.10879200  0.99430000  0.37152900  1
  H  H3  1  0.20296600  0.95188200  0.78093500  1
  H  H4  1  0.98043500  0.00136100  0.34223200  1
  H  H5  1  0.07865400  0.96159000  0.74619300  1
  H  H6  1  0.87702100  0.02913600  0.30936100  1
  H  H7  1  0.99724300  0.03703100  0.72000900  1
  H  H8  1  0.75078200  0.02525400  0.26950300  1
  H  H9  1  0.87015100  0.03748700  0.68288900  1
  H  H10  1  0.57498200  0.32012900  0.78865500  1
  H  H11  1  0.39188700  0.19977200  0.28432400  1
  H  H12  1  0.36025500  0.32081900  0.18343700  1
  H  H13  1  0.58270100  0.64189900  0.86586900  1
  H  H14  1  0.54869500  0.75956000  0.76581600  1
  H  H15  1  0.35275700  0.47987200  0.17342100  1
  H  H16  1  0.37851900  0.64133000  0.25028700  1
  H  H17  1  0.74139500  0.04946200  0.67224900  1
  H  H18  1  0.75874000  0.97438000  0.48419800  1
  H  H19  1  0.78543900  0.83581000  0.36813300  1
  H  H20  1  0.77623400  0.68836500  0.47075900  1
  H  H21  1  0.73867600  0.67935500  0.69008400  1
  H  H22  1  0.70939200  0.81413500  0.80689400  1
  H  H23  1  0.57046300  0.46291600  0.97208100  1
  H  H24  1  0.66160000  0.42143200  0.07291500  1
  H  H25  1  0.78880800  0.38315300  0.06473500  1
  H  H26  1  0.88150100  0.40520600  0.87798400  1
  H  H27  1  0.84670700  0.46681600  0.69894400  1
  H  H28  1  0.72058500  0.50601800  0.70490300  1
  C  C1  1  0.22510700  0.98798800  0.20566000  1
  C  C2  1  0.09510800  0.99610700  0.28018300  1
  C  C3  1  0.28453900  0.99048900  0.11231700  1
  C  C4  1  0.26874900  0.99168400  0.99330700  1
  C  C5  1  0.15127800  0.99279000  0.18422500  1
  C  C6  1  0.13342400  0.99332200  0.06811100  1
  C  C7  1  0.19072500  0.98755400  0.97224000  1
  C  C8  1  0.16695800  0.97242100  0.85757700  1
  C  C9  1  0.02091100  0.00138300  0.26173000  1
  C  C10  1  0.00107700  0.00392000  0.14530500  1
  C  C11  1  0.05791100  0.99804700  0.04839300  1
  C  C12  1  0.03956600  0.99660900  0.93153500  1
  C  C13  1  0.09318100  0.97771300  0.83748500  1
  C  C14  1  0.86676400  0.01720600  0.21611600  1
  C  C15  1  0.92509700  0.00791500  0.12351000  1
  C  C16  1  0.90742900  0.00683700  0.00589100  1
  C  C17  1  0.96620000  0.00720100  0.91056900  1
  C  C18  1  0.95160500  0.02248500  0.79568200  1
  C  C19  1  0.79110100  0.01345900  0.19303700  1
  C  C20  1  0.76995000  0.99979100  0.07666800  1
  C  C21  1  0.83073200  0.00493400  0.98287200  1
  C  C22  1  0.81517400  0.00839900  0.86548100  1
  C  C23  1  0.69091100  0.98686400  0.05252500  1
  C  C24  1  0.67618200  0.98673600  0.93245000  1
  C  C25  1  0.87742600  0.02405500  0.77392800  1
  C  C26  1  0.73803100  0.99764700  0.84027700  1
  C  C27  1  0.62342300  0.97168200  0.15103900  1
  C  C28  1  0.46679100  0.79714900  0.35655100  1
  C  C29  1  0.36377700  0.99807300  0.14612500  1
  C  C30  1  0.44938300  0.12845600  0.43409900  1
  C  C31  1  0.50157300  0.83400100  0.60795900  1
  C  C32  1  0.59583600  0.97139100  0.89654400  1
  C  C33  1  0.48802600  0.16419800  0.68335000  1
  C  C34  1  0.33407200  0.99859400  0.89293500  1
  C  C35  1  0.45857000  0.22308800  0.49300800  1
  C  C36  1  0.48775200  0.24388000  0.60519500  1
  C  C37  1  0.50953500  0.34008200  0.64615800  1
  C  C38  1  0.55168800  0.36857600  0.74557400  1
  C  C39  1  0.56818500  0.46170700  0.79011600  1
  C  C40  1  0.40710700  0.27105300  0.32437900  1
  C  C41  1  0.44142200  0.29354700  0.43179500  1
  C  C42  1  0.45740700  0.38672200  0.47807900  1
  C  C43  1  0.38825700  0.34001200  0.26578100  1
  C  C44  1  0.40472600  0.43249400  0.31150200  1
  C  C45  1  0.49238100  0.41023700  0.58387300  1
  C  C46  1  0.50929100  0.50435800  0.62820300  1
  C  C47  1  0.54422100  0.52875000  0.73410600  1
  C  C48  1  0.55665000  0.62078900  0.78225400  1
  C  C49  1  0.44014900  0.45685800  0.41664100  1
  C  C50  1  0.45799200  0.55112800  0.45988200  1
  C  C51  1  0.49151200  0.57436600  0.56684400  1
  C  C52  1  0.50563800  0.66717800  0.61396700  1
  C  C53  1  0.53654600  0.68893300  0.72385200  1
  C  C54  1  0.38380100  0.49996600  0.25287500  1
  C  C55  1  0.40122500  0.59330400  0.29542300  1
  C  C56  1  0.44243000  0.62152300  0.39590500  1
  C  C57  1  0.46491000  0.71768100  0.43614500  1
  C  C58  1  0.49086900  0.73827000  0.55064700  1
  C  C59  1  0.73364500  0.90563200  0.65394600  1
  C  C60  1  0.75422300  0.90984100  0.53033300  1
  C  C61  1  0.76932200  0.83197300  0.46470700  1
  C  C62  1  0.76414100  0.74932700  0.52213100  1
  C  C63  1  0.74308600  0.74429500  0.64506800  1
  C  C64  1  0.72723700  0.82164300  0.71104300  1
  C  C65  1  0.68104700  0.46460700  0.88903800  1
  C  C66  1  0.70153400  0.43116900  0.98992200  1
  C  C67  1  0.77326700  0.40963000  0.98572800  1
  C  C68  1  0.82523300  0.42200100  0.88111600  1
  C  C69  1  0.80564400  0.45641400  0.78074100  1
  C  C70  1  0.73394500  0.47801600  0.78446500  1
  N  N1  1  0.71957500  0.98737900  0.71950000  1
  N  N2  1  0.60758600  0.48751800  0.89521900  1
  O  O1  1  0.56042900  0.00091900  0.14019800  1
  O  O2  1  0.47804400  0.78622700  0.23855300  1
  O  O3  1  0.62419200  0.92495700  0.24706000  1
  O  O4  1  0.46868100  0.88313300  0.40275200  1
  O  O5  1  0.37201800  0.93675500  0.22105800  1
  O  O6  1  0.42321200  0.07386100  0.11756200  1
  O  O7  1  0.51118300  0.10940700  0.36936100  1
  O  O8  1  0.37895000  0.06573100  0.43852200  1
  O  O9  1  0.44295000  0.85257300  0.68147200  1
  O  O10  1  0.57004400  0.89958700  0.58972800  1
  O  O11  1  0.58372600  0.03019900  0.82127500  1
  O  O12  1  0.53879900  0.89424600  0.92867100  1
  O  O13  1  0.33359500  0.04124400  0.79343500  1
  O  O14  1  0.48520800  0.07770200  0.63744400  1
  O  O15  1  0.39576700  0.96756000  0.90575900  1
  O  O16  1  0.47872300  0.17523100  0.80146500  1
