# Generated by REPEAT Assigner based on pymatgen
data_DB0-m2_o23_o29_f0_pcu.sym.68
_audit_creation_date              2022-05-24
_audit_creation_method            REPEAT_Assigner
_cell_length_a                    27.551182
_cell_length_b                    14.455574
_cell_length_c                    15.858553
_cell_angle_alpha                 90.000000
_cell_angle_beta                  89.995282
_cell_angle_gamma                 90.000000
_cell_volume                      6315.956568
_symmetry_space_group_name_H-M    P1
_symmetry_Int_Tables_number       1
loop_
    _symmetry_equiv_pos_site_id
    _symmetry_equiv_pos_as_xyz
    1  x,y,z
loop_
    _atom_site_type_symbol
    _atom_site_label
    _atom_site_fract_x
    _atom_site_fract_y
    _atom_site_fract_z
    _atom_type_partial_charge
    O   O1   0.502700  0.420523  0.630371  -0.643557
    O   O2   0.499478  0.579520  0.630278  -0.640913
    C   C1   0.501278  0.500063  0.669632  0.852363
    O   O3   0.571352  0.419379  0.504824  -0.578148
    O   O4   0.571736  0.578279  0.505139  -0.585658
    C   C2   0.594332  0.498590  0.507339  0.629128
    Cu  Cu1  0.500779  0.407343  0.507859  0.970095
    Cu  Cu2  0.501254  0.592442  0.507737  0.935263
    O   O5   0.502363  0.420054  0.385288  -0.600206
    O   O6   0.499555  0.579390  0.385201  -0.602562
    O   O7   0.430298  0.421445  0.505469  -0.602220
    O   O8   0.430667  0.580420  0.505016  -0.566058
    C   C3   0.501116  0.499708  0.345987  0.859771
    C   C4   0.407696  0.501125  0.507683  0.632228
    C   C5   0.824164  0.527583  0.574182  0.391261
    O   O9   0.799300  0.555503  0.642508  -0.511061
    N   N1   0.799923  0.497087  0.505871  -0.004534
    C   C6   0.824306  0.466790  0.437632  0.213382
    C   C7   0.723077  0.579605  0.513395  -0.116342
    C   C8   0.673054  0.580049  0.513750  -0.102598
    C   C9   0.672693  0.415635  0.498896  -0.129311
    C   C10  0.722744  0.415420  0.498298  -0.136777
    C   C11  0.748128  0.497355  0.505715  0.131745
    C   C12  0.900032  0.497866  0.505915  0.029121
    C   C13  0.874379  0.528590  0.574880  -0.075398
    C   C14  0.898992  0.559003  0.644862  -0.056031
    C   C15  0.874537  0.466575  0.436979  0.042956
    C   C16  0.647554  0.498059  0.506549  -0.020314
    H   H1   0.653695  0.350534  0.493168  0.161411
    H   H2   0.742013  0.350543  0.492867  0.131558
    H   H3   0.879922  0.581608  0.700701  0.128863
    C   C17  0.354457  0.501407  0.507077  0.000580
    C   C18  0.026239  0.538479  0.573011  0.048759
    C   C19  0.026493  0.460594  0.438562  0.063925
    C   C20  0.051392  0.499889  0.505761  0.009622
    C   C21  0.052729  0.582298  0.636359  -0.186771
    C   C22  0.102508  0.583606  0.634896  -0.036963
    C   C23  0.127352  0.541918  0.570178  -0.137339
    C   C24  0.101919  0.500575  0.505730  0.134137
    C   C25  0.127633  0.459875  0.441280  -0.142786
    C   C26  0.177855  0.460880  0.442037  0.454297
    N   N2   0.202043  0.501640  0.505828  -0.183625
    C   C27  0.177576  0.541968  0.569528  0.451738
    C   C28  0.279027  0.419115  0.508173  -0.179890
    C   C29  0.329057  0.418894  0.508632  -0.103105
    C   C30  0.329187  0.584057  0.505130  -0.111681
    C   C31  0.279137  0.584056  0.504651  -0.170837
    C   C32  0.253850  0.501626  0.506156  0.258135
    O   O10  0.202209  0.580408  0.633731  -0.513893
    C   C33  0.975482  0.533247  0.575088  0.046298
    C   C34  0.950559  0.498482  0.505875  0.058037
    C   C35  0.975690  0.464371  0.436614  0.011529
    C   C36  0.948767  0.561177  0.645263  -0.189520
    H   H4   0.347836  0.353313  0.510534  0.124062
    H   H5   0.259591  0.354190  0.510218  0.138564
    H   H6   0.121397  0.618352  0.685489  0.122947
    H   H7   0.036437  0.619293  0.687819  0.132096
    H   H8   0.964872  0.583126  0.703597  0.138525
    O   O11  0.799577  0.438534  0.369284  -0.411193
    C   C37  0.899328  0.436594  0.367020  -0.138887
    H   H9   0.654321  0.645289  0.520269  0.139149
    H   H10  0.742608  0.644210  0.518650  0.115294
    H   H11  0.880381  0.413494  0.311228  0.146830
    C   C38  0.053289  0.417599  0.375123  -0.196078
    C   C39  0.103076  0.417611  0.376543  -0.030646
    O   O12  0.202760  0.422831  0.377951  -0.514015
    C   C40  0.949122  0.435605  0.366548  -0.143186
    H   H12  0.037261  0.380257  0.323629  0.133357
    H   H13  0.348092  0.649526  0.503799  0.122914
    H   H14  0.122206  0.383387  0.325921  0.121895
    H   H15  0.259785  0.649063  0.502380  0.137016
    H   H16  0.965340  0.413914  0.308227  0.132829
    C   C41  0.474583  0.415284  0.960079  -0.103033
    C   C42  0.476201  0.586425  0.960234  -0.121531
    C   C43  0.473054  0.582762  0.055487  -0.141065
    C   C44  0.477714  0.411822  0.055337  -0.161651
    H   H17  0.440712  0.405053  0.082154  0.042056
    H   H18  0.434516  0.576622  0.074880  0.030887
    H   H19  0.435975  0.418934  0.940599  0.021635
    H   H20  0.439123  0.590802  0.933334  0.036257
    H   H21  0.497166  0.648371  0.940873  0.018385
    H   H22  0.491164  0.351924  0.933173  0.025498
    H   H23  0.488477  0.647155  0.082429  0.033186
    H   H24  0.499752  0.351267  0.074748  0.028836
    C   C45  0.501163  0.499677  0.255523  -0.233036
    C   C46  0.501326  0.500000  0.928282  0.630973
    C   C47  0.501260  0.499819  0.087344  0.597133
    C   C48  0.553057  0.504983  0.055508  -0.078451
    C   C49  0.553157  0.498188  0.960237  -0.124887
    C   C50  0.501210  0.499719  0.179557  -0.313624
    C   C51  0.501345  0.500086  0.836067  -0.374333
    C   C52  0.501328  0.500108  0.760099  -0.172985
    H   H25  0.570826  0.432660  0.940750  0.019493
    H   H26  0.573686  0.557267  0.933454  0.037206
    H   H27  0.574599  0.447259  0.082338  0.021834
    H   H28  0.569537  0.571613  0.075041  0.014795
    C   C53  0.467382  0.946689  0.435414  -0.057859
    C   C54  0.470485  0.051157  0.430014  -0.179915
    C   C55  0.553233  0.946911  0.493764  -0.059180
    C   C56  0.553662  0.052217  0.500610  -0.249757
    H   H29  0.484778  0.071541  0.367905  0.041999
    H   H30  0.475648  0.914336  0.373884  0.026613
    H   H31  0.572700  0.922913  0.550757  0.043078
    H   H32  0.567286  0.066505  0.565055  0.071671
    N   N3   0.499306  0.269107  0.506546  -0.121539
    N   N4   0.500726  0.730712  0.506091  -0.088521
    C   C57  0.501186  0.911923  0.504006  0.497347
    C   C58  0.501126  0.087904  0.502681  0.566207
    C   C59  0.477993  0.052500  0.583640  -0.159100
    C   C60  0.481835  0.947765  0.587465  -0.098867
    C   C61  0.499815  0.189115  0.505012  -0.152182
    C   C62  0.500857  0.810736  0.505109  -0.199022
    H   H33  0.445433  0.918006  0.599880  0.055109
    H   H34  0.439178  0.072720  0.585174  0.048508
    H   H35  0.506386  0.927443  0.639678  0.031219
    H   H36  0.496156  0.083214  0.639418  0.060928
    H   H37  0.429622  0.927250  0.451895  0.035192
    H   H38  0.433304  0.079979  0.435067  0.062261
    C   C63  0.580207  0.905241  0.419749  0.263820
    C   C64  0.571041  0.928475  0.336295  -0.265668
    C   C65  0.596890  0.887801  0.271761  0.011488
    C   C66  0.632247  0.823475  0.289298  -0.091019
    Br  Br1  0.667849  0.767319  0.199863  -0.054407
    C   C67  0.641952  0.800173  0.371656  0.056535
    C   C68  0.616221  0.840737  0.436410  -0.256175
    H   H39  0.544503  0.979835  0.319887  0.127508
    H   H40  0.589474  0.906854  0.207126  0.078359
    H   H41  0.669847  0.749889  0.385613  0.064389
    H   H42  0.624596  0.820589  0.500396  0.113971
    C   C69  0.590884  0.099119  0.444795  0.218100
    C   C70  0.639196  0.086723  0.466240  -0.311819
    C   C71  0.675713  0.128508  0.420692  0.034882
    C   C72  0.664535  0.184015  0.353047  -0.062815
    Br  Br2  0.714968  0.242417  0.290345  -0.053806
    C   C73  0.616770  0.197681  0.331151  -0.025621
    C   C74  0.580090  0.155989  0.376528  -0.170386
    H   H43  0.648754  0.043592  0.519396  0.144812
    H   H44  0.713191  0.117878  0.438352  0.071586
    H   H45  0.607902  0.241684  0.278242  0.094658
    H   H46  0.543509  0.169802  0.356834  0.114263
