# generated using pymatgen
data_ZnH28C33NO4
_symmetry_space_group_name_H-M   'P 1'
_cell_length_a   19.67016300
_cell_length_b   18.25035800
_cell_length_c   15.08435200
_cell_angle_alpha   90.00000000
_cell_angle_beta   90.01658200
_cell_angle_gamma   90.00000000
_symmetry_Int_Tables_number   1
_chemical_formula_structural   ZnH28C33NO4
_chemical_formula_sum   'Zn2 H56 C66 N2 O8'
_cell_volume   5415.09383825
_cell_formula_units_Z   2
loop_
 _symmetry_equiv_pos_site_id
 _symmetry_equiv_pos_as_xyz
  1  'x, y, z'
loop_
 _atom_site_type_symbol
 _atom_site_label
 _atom_site_symmetry_multiplicity
 _atom_site_fract_x
 _atom_site_fract_y
 _atom_site_fract_z
 _atom_site_occupancy
  Zn  Zn1  1  0.50000000  0.58474000  0.50000000  1
  Zn  Zn2  1  0.50000000  0.41883500  0.50000000  1
  H  H1  1  0.60021000  0.51432900  0.77648600  1
  H  H2  1  0.39979100  0.51432900  0.22351400  1
  H  H3  1  0.32666900  0.49783600  0.93445400  1
  H  H4  1  0.67333100  0.49783600  0.06554500  1
  H  H5  1  0.33478000  0.50666600  0.09187900  1
  H  H6  1  0.66522000  0.50666600  0.90812100  1
  H  H7  1  0.84511500  0.40069700  0.57488300  1
  H  H8  1  0.15576000  0.60231300  0.56379300  1
  H  H9  1  0.15488500  0.40069700  0.42511700  1
  H  H10  1  0.84424000  0.60231300  0.43620700  1
  H  H11  1  0.93993200  0.61775100  0.50666500  1
  H  H12  1  0.06072000  0.38288700  0.50245000  1
  H  H13  1  0.06006800  0.61775100  0.49333500  1
  H  H14  1  0.93928000  0.38288700  0.49755000  1
  H  H15  1  0.56717500  0.70082200  0.60829700  1
  H  H16  1  0.43737600  0.30264900  0.38715200  1
  H  H17  1  0.43282500  0.70082100  0.39170300  1
  H  H18  1  0.56262400  0.30264900  0.61284800  1
  H  H19  1  0.56739300  0.83431100  0.61137200  1
  H  H20  1  0.43660100  0.16904100  0.38484100  1
  H  H21  1  0.43260700  0.83431100  0.38862800  1
  H  H22  1  0.56339900  0.16904100  0.61515900  1
  H  H23  1  0.39395000  0.93574500  0.46853500  1
  H  H24  1  0.60585400  0.06829400  0.53199000  1
  H  H25  1  0.60605000  0.93574500  0.53146500  1
  H  H26  1  0.39414600  0.06829300  0.46801000  1
  H  H27  1  0.39141400  0.35919500  0.76271000  1
  H  H28  1  0.33817400  0.38317500  0.85585300  1
  H  H29  1  0.30291200  0.38153900  0.74550500  1
  H  H30  1  0.32596200  0.51093100  0.79181700  1
  H  H31  1  0.37188600  0.48179200  0.69842000  1
  H  H32  1  0.60858600  0.35919500  0.23729000  1
  H  H33  1  0.66182600  0.38317500  0.14414700  1
  H  H34  1  0.69708800  0.38153900  0.25449400  1
  H  H35  1  0.67403800  0.51093100  0.20818300  1
  H  H36  1  0.62811400  0.48179200  0.30158000  1
  H  H37  1  0.72236600  0.43082900  0.71636300  1
  H  H38  1  0.63841500  0.43188200  0.66771600  1
  H  H39  1  0.67135900  0.34843600  0.71428900  1
  H  H40  1  0.67902500  0.34896700  0.54578000  1
  H  H41  1  0.75558400  0.33667400  0.60307900  1
  H  H42  1  0.27427200  0.60234000  0.69119200  1
  H  H43  1  0.36018600  0.60123800  0.64768100  1
  H  H44  1  0.31973800  0.68693100  0.67262500  1
  H  H45  1  0.31919200  0.65772900  0.50644000  1
  H  H46  1  0.24132700  0.67653600  0.55649700  1
  H  H47  1  0.27763400  0.43082900  0.28363700  1
  H  H48  1  0.36158500  0.43188200  0.33228400  1
  H  H49  1  0.32864100  0.34843600  0.28571100  1
  H  H50  1  0.32097500  0.34896700  0.45422000  1
  H  H51  1  0.24441600  0.33667400  0.39692100  1
  H  H52  1  0.72572800  0.60234000  0.30880800  1
  H  H53  1  0.63981400  0.60123800  0.35231900  1
  H  H54  1  0.68026200  0.68693100  0.32737400  1
  H  H55  1  0.68080800  0.65772900  0.49356000  1
  H  H56  1  0.75867300  0.67653600  0.44350300  1
  C  C1  1  0.36599300  0.50205000  0.49343500  1
  C  C2  1  0.63400700  0.50205000  0.50656500  1
  C  C3  1  0.50510800  0.50166600  0.32656100  1
  C  C4  1  0.49489200  0.50166600  0.67343900  1
  C  C5  1  0.55396800  0.50826400  0.81426500  1
  C  C6  1  0.44603200  0.50826400  0.18573400  1
  C  C7  1  0.49304900  0.50141800  0.77047900  1
  C  C8  1  0.50695100  0.50141800  0.22952100  1
  C  C9  1  0.43311200  0.49217600  0.81851600  1
  C  C10  1  0.56688800  0.49217600  0.18148400  1
  C  C11  1  0.43558400  0.49723500  0.91129900  1
  C  C12  1  0.56441600  0.49723500  0.08870100  1
  C  C13  1  0.49803500  0.50097100  0.95406600  1
  C  C14  1  0.50196500  0.50097100  0.04593400  1
  C  C15  1  0.55682700  0.50426500  0.90505600  1
  C  C16  1  0.44317300  0.50426500  0.09494400  1
  C  C17  1  0.37694500  0.49884000  0.96262900  1
  C  C18  1  0.62305500  0.49884000  0.03737100  1
  C  C19  1  0.38103600  0.50421800  0.05332400  1
  C  C20  1  0.61896400  0.50421800  0.94667600  1
  C  C21  1  0.74720700  0.44328500  0.54384800  1
  C  C22  1  0.25256600  0.56289400  0.52472200  1
  C  C23  1  0.25279300  0.44328500  0.45615100  1
  C  C24  1  0.74743400  0.56289400  0.47527800  1
  C  C25  1  0.81764800  0.44433700  0.54269600  1
  C  C26  1  0.18252600  0.55880000  0.53042700  1
  C  C27  1  0.18235200  0.44433700  0.45730400  1
  C  C28  1  0.81747400  0.55880000  0.46957300  1
  C  C29  1  0.85340400  0.50071600  0.50399900  1
  C  C30  1  0.14659600  0.50071600  0.49600000  1
  C  C31  1  0.71008600  0.50281500  0.50878200  1
  C  C32  1  0.28991400  0.50281500  0.49121800  1
  C  C33  1  0.96504500  0.56533600  0.50219900  1
  C  C34  1  0.03509000  0.43513300  0.50002900  1
  C  C35  1  0.03495500  0.56533600  0.49780000  1
  C  C36  1  0.96491000  0.43513300  0.49997100  1
  C  C37  1  0.07121800  0.50029200  0.49802000  1
  C  C38  1  0.92878200  0.50029200  0.50198000  1
  C  C39  1  0.53748200  0.73082700  0.56015300  1
  C  C40  1  0.46496800  0.27270700  0.43737900  1
  C  C41  1  0.46251800  0.73082700  0.43984700  1
  C  C42  1  0.53503200  0.27270700  0.56262100  1
  C  C43  1  0.53805900  0.80636200  0.56113700  1
  C  C44  1  0.46417500  0.19717500  0.43661500  1
  C  C45  1  0.46194100  0.80636200  0.43886300  1
  C  C46  1  0.53582500  0.19717500  0.56338500  1
  C  C47  1  0.50000000  0.84508300  0.50000000  1
  C  C48  1  0.50000000  0.15854700  0.50000000  1
  C  C49  1  0.44115200  0.96415000  0.48115900  1
  C  C50  1  0.55879500  0.03968900  0.51904100  1
  C  C51  1  0.55884800  0.96415000  0.51884100  1
  C  C52  1  0.44120500  0.03968900  0.48095900  1
  C  C53  1  0.50000000  0.07803000  0.50000000  1
  C  C54  1  0.50000000  0.92571300  0.50000000  1
  C  C55  1  0.36776400  0.47432000  0.77074900  1
  C  C56  1  0.34886700  0.39449800  0.78511100  1
  C  C57  1  0.63223600  0.47432000  0.22925100  1
  C  C58  1  0.65113300  0.39449800  0.21488900  1
  C  C59  1  0.71575900  0.37788600  0.58879600  1
  C  C60  1  0.68486400  0.39890300  0.67735200  1
  C  C61  1  0.28231800  0.63496900  0.55440500  1
  C  C62  1  0.31114900  0.63061400  0.64742800  1
  C  C63  1  0.28424100  0.37788600  0.41120300  1
  C  C64  1  0.31513600  0.39890300  0.32264800  1
  C  C65  1  0.71768200  0.63496900  0.44559400  1
  C  C66  1  0.68885100  0.63061400  0.35257200  1
  N  N1  1  0.50000000  0.69432600  0.50000000  1
  N  N2  1  0.50000000  0.30923800  0.50000000  1
  O  O1  1  0.39886200  0.56449100  0.49422400  1
  O  O2  1  0.60131000  0.43916000  0.50399500  1
  O  O3  1  0.60113800  0.56449100  0.50577600  1
  O  O4  1  0.39869000  0.43916000  0.49600500  1
  O  O5  1  0.50425100  0.56477400  0.36795700  1
  O  O6  1  0.49680000  0.43871600  0.63205100  1
  O  O7  1  0.49574900  0.56477400  0.63204300  1
  O  O8  1  0.50320100  0.43871600  0.36794900  1
