# Generated by REPEAT Assigner based on pymatgen
data_DB0-m2_o2_o28_f0_pcu.sym.5
_audit_creation_date              2022-05-24
_audit_creation_method            REPEAT_Assigner
_cell_length_a                    15.103014
_cell_length_b                    13.673609
_cell_length_c                    23.367817
_cell_angle_alpha                 90.000000
_cell_angle_beta                  90.008604
_cell_angle_gamma                 90.000000
_cell_volume                      4825.751137
_symmetry_space_group_name_H-M    P1
_symmetry_Int_Tables_number       1
loop_
    _symmetry_equiv_pos_site_id
    _symmetry_equiv_pos_as_xyz
    1  x,y,z
loop_
    _atom_site_type_symbol
    _atom_site_label
    _atom_site_fract_x
    _atom_site_fract_y
    _atom_site_fract_z
    _atom_type_partial_charge
    O   O1   0.371340  0.553333  0.498923  -0.523348
    O   O2   0.628243  0.384092  0.500519  -0.614838
    O   O3   0.628547  0.552132  0.504404  -0.546278
    O   O4   0.371056  0.385434  0.495285  -0.635450
    C   C1   0.329722  0.469420  0.496452  0.629862
    C   C2   0.669966  0.468035  0.503089  0.635523
    O   O5   0.501309  0.552113  0.416525  -0.600952
    O   O6   0.498343  0.385611  0.583095  -0.646166
    O   O7   0.492751  0.553477  0.582702  -0.582854
    O   O8   0.506830  0.384246  0.416828  -0.625213
    C   C3   0.507088  0.468262  0.389785  0.724594
    C   C4   0.492844  0.469627  0.609890  0.713718
    Cu  Cu1  0.500177  0.566572  0.499622  0.803213
    Cu  Cu2  0.499211  0.371042  0.499967  0.986135
    C   C5   0.572954  0.466797  0.880112  0.449435
    C   C6   0.428926  0.465288  0.119964  0.449756
    N   N1   0.494593  0.464103  0.852866  -0.161004
    N   N2   0.507271  0.464215  0.147215  -0.158288
    C   C7   0.417873  0.462436  0.882286  0.371180
    C   C8   0.584056  0.463528  0.117847  0.373593
    C   C9   0.418064  0.467150  0.942080  -0.029454
    C   C10  0.583869  0.468015  0.058038  -0.035807
    C   C11  0.498916  0.467010  0.970415  0.014927
    C   C12  0.503024  0.466846  0.029710  0.022747
    C   C13  0.576142  0.467001  0.939124  -0.060155
    C   C14  0.425783  0.465488  0.060961  -0.064161
    C   C15  0.340290  0.469878  0.974539  -0.013039
    C   C16  0.661597  0.471856  0.025579  -0.010521
    C   C17  0.345254  0.467114  0.033298  -0.092852
    C   C18  0.656669  0.469668  0.966801  -0.093712
    O   O9   0.648207  0.470702  0.849509  -0.494420
    O   O10  0.353649  0.467602  0.150596  -0.493701
    O   O11  0.342172  0.451803  0.852775  -0.438449
    O   O12  0.659824  0.454231  0.147446  -0.438648
    H   H1   0.284212  0.469404  0.057328  0.104624
    H   H2   0.717703  0.473038  0.942777  0.104585
    C   C19  0.544807  0.543901  0.236880  -0.210622
    C   C20  0.454540  0.542850  0.763387  -0.215678
    H   H3   0.572302  0.604113  0.212748  0.142597
    H   H4   0.425789  0.602122  0.787734  0.144502
    C   C21  0.547535  0.545861  0.295935  0.078303
    C   C22  0.451289  0.545102  0.704351  0.070142
    C   C23  0.512076  0.467947  0.326955  -0.086295
    C   C24  0.488638  0.468806  0.672930  -0.079478
    C   C25  0.477537  0.388610  0.297799  -0.160158
    C   C26  0.525575  0.390425  0.701885  -0.155238
    H   H5   0.449334  0.327699  0.320929  0.147171
    H   H6   0.555187  0.330431  0.678645  0.149651
    C   C27  0.475846  0.387214  0.238865  -0.153818
    C   C28  0.527652  0.388627  0.760877  -0.163915
    H   H7   0.448162  0.324843  0.216805  0.135625
    H   H8   0.556976  0.326953  0.782776  0.137516
    C   C29  0.509134  0.465064  0.208236  0.216875
    C   C30  0.492437  0.465086  0.791819  0.228040
    C   C31  0.095002  0.553108  0.484975  -0.110186
    C   C32  0.904255  0.386156  0.484666  -0.139934
    C   C33  0.904836  0.551263  0.517522  -0.119923
    C   C34  0.096046  0.384629  0.511293  -0.148135
    H   H9   0.060569  0.619449  0.473469  0.102193
    H   H10  0.937940  0.321557  0.469458  0.112660
    H   H11  0.939082  0.616312  0.531611  0.103143
    H   H12  0.062804  0.318162  0.524012  0.113769
    C   C35  0.186290  0.553518  0.484310  -0.149835
    C   C36  0.812996  0.385491  0.486467  -0.107793
    C   C37  0.813487  0.551043  0.518322  -0.136396
    C   C38  0.187213  0.384608  0.509528  -0.095423
    H   H13  0.220570  0.620305  0.473371  0.122632
    H   H14  0.778145  0.320158  0.473411  0.114363
    H   H15  0.778968  0.616273  0.531943  0.120707
    H   H16  0.222156  0.318052  0.520091  0.110258
    C   C39  0.232804  0.469191  0.496466  0.018231
    C   C40  0.767040  0.468003  0.503064  0.009732
    C   C41  0.048880  0.468899  0.498933  0.067746
    C   C42  0.951202  0.468819  0.500465  0.072264
    C   C43  0.537757  0.074682  0.544287  -0.172566
    C   C44  0.432489  0.862847  0.473807  -0.154340
    C   C45  0.464269  0.074885  0.454585  -0.177037
    C   C46  0.568001  0.862757  0.525131  -0.141793
    H   H17  0.566449  0.038266  0.580845  0.120362
    H   H18  0.376775  0.899490  0.454326  0.112228
    H   H19  0.437646  0.037964  0.417552  0.122663
    H   H20  0.623895  0.899436  0.544350  0.111707
    C   C47  0.537085  0.175577  0.543567  -0.040991
    C   C48  0.433639  0.762012  0.474062  0.011199
    C   C49  0.463434  0.175647  0.455721  -0.029525
    C   C50  0.566028  0.761985  0.525669  -0.012203
    H   H21  0.566184  0.214808  0.578934  0.134508
    H   H22  0.380637  0.722699  0.453252  0.087689
    H   H23  0.433031  0.215070  0.420789  0.130427
    H   H24  0.618836  0.722702  0.546662  0.096006
    N   N3   0.499070  0.224698  0.500139  -0.024476
    N   N4   0.500424  0.712923  0.499265  0.083305
    C   C51  0.500747  0.022777  0.499445  0.168082
    C   C52  0.500569  0.914812  0.499243  0.040640
    C   C53  0.251469  0.481537  0.950194  0.226846
    C   C54  0.227480  0.568535  0.924386  -0.185432
    C   C55  0.142715  0.580853  0.903688  -0.061656
    C   C56  0.081338  0.506888  0.909474  -0.147234
    C   C57  0.104515  0.420871  0.936360  -0.074646
    C   C58  0.189299  0.408431  0.957022  -0.173984
    H   H25  0.275193  0.627060  0.920359  0.103036
    H   H26  0.124261  0.648703  0.883149  0.095557
    H   H27  0.014859  0.516616  0.893319  0.113199
    H   H28  0.056108  0.363268  0.941409  0.101956
    H   H29  0.207096  0.341050  0.978306  0.104544
    C   C59  0.750302  0.483969  0.049944  0.227917
    C   C60  0.774039  0.571256  0.075482  -0.187919
    C   C61  0.858825  0.584103  0.096039  -0.059817
    C   C62  0.920474  0.510394  0.090351  -0.150390
    C   C63  0.897470  0.424036  0.063785  -0.073285
    C   C64  0.812662  0.411048  0.043292  -0.175256
    H   H30  0.726132  0.629622  0.079375  0.104170
    H   H31  0.877082  0.652174  0.116367  0.095529
    H   H32  0.987011  0.520587  0.106333  0.113794
    H   H33  0.946035  0.366603  0.058837  0.102106
    H   H34  0.795011  0.343403  0.022230  0.104477
    C   C65  0.592125  0.628902  0.323349  0.106408
    C   C66  0.563092  0.723073  0.312996  -0.142848
    C   C67  0.605280  0.801441  0.338222  -0.106866
    C   C68  0.677367  0.786133  0.373267  -0.077766
    C   C69  0.707661  0.692468  0.382825  -0.167926
    C   C70  0.665388  0.613999  0.357773  -0.076418
    H   H35  0.506320  0.735612  0.285792  0.091825
    H   H36  0.581752  0.874957  0.330555  0.090141
    H   H37  0.710287  0.847591  0.393118  0.081439
    H   H38  0.764639  0.680513  0.409943  0.118830
    H   H39  0.689780  0.540792  0.365210  0.090466
    C   C71  0.404112  0.626766  0.677500  0.115300
    C   C72  0.431496  0.721570  0.687495  -0.156253
    C   C73  0.386632  0.798808  0.663037  -0.092921
    C   C74  0.313512  0.781627  0.629196  -0.090666
    C   C75  0.284947  0.687167  0.620072  -0.171562
    C   C76  0.329827  0.609838  0.644414  -0.062833
    H   H40  0.488928  0.735523  0.713876  0.094441
    H   H41  0.408867  0.872876  0.670384  0.086637
    H   H42  0.278290  0.842224  0.610116  0.085692
    H   H43  0.227245  0.673729  0.593882  0.121214
    H   H44  0.306589  0.535959  0.637546  0.084391
