# Generated by REPEAT Assigner based on pymatgen
data_DB0-m2_o14_o25_f0_pcu.sym.23
_audit_creation_date              2022-05-24
_audit_creation_method            REPEAT_Assigner
_cell_length_a                    15.904419
_cell_length_b                    10.897483
_cell_length_c                    9.464643
_cell_angle_alpha                 89.986460
_cell_angle_beta                  90.002098
_cell_angle_gamma                 90.004426
_cell_volume                      1640.394253
_symmetry_space_group_name_H-M    P1
_symmetry_Int_Tables_number       1
loop_
    _symmetry_equiv_pos_site_id
    _symmetry_equiv_pos_as_xyz
    1  x,y,z
loop_
    _atom_site_type_symbol
    _atom_site_label
    _atom_site_fract_x
    _atom_site_fract_y
    _atom_site_fract_z
    _atom_type_partial_charge
    O   O1   0.496403  0.320885  0.618340  -0.438755
    O   O2   0.499435  0.322538  0.374548  -0.518034
    C   C1   0.503970  0.264030  0.496672  0.643476
    O   O3   0.374734  0.491736  0.624121  -0.595304
    O   O4   0.373600  0.487744  0.379375  -0.548838
    C   C2   0.335152  0.490524  0.502220  0.785027
    Cu  Cu1  0.497064  0.498821  0.640371  0.737293
    Cu  Cu2  0.495369  0.501364  0.357746  0.824574
    O   O5   0.491775  0.676784  0.621212  -0.419652
    O   O6   0.485331  0.679150  0.381958  -0.544772
    O   O7   0.619044  0.496707  0.616641  -0.625771
    O   O8   0.617672  0.505522  0.376138  -0.606827
    C   C3   0.486790  0.737021  0.503454  0.546470
    C   C4   0.657731  0.504834  0.495966  0.792806
    C   C5   0.966197  0.395616  0.563632  -0.126446
    C   C6   0.022351  0.393231  0.433228  -0.151163
    H   H1   0.045814  0.309598  0.379383  0.080902
    H   H2   0.938836  0.314326  0.617094  0.065510
    H   H3   0.946797  0.498369  0.255742  0.097832
    C   C7   0.244942  0.488152  0.503081  -0.149598
    C   C8   0.747949  0.503264  0.494920  -0.124254
    C   C9   0.022530  0.491766  0.632146  -0.159150
    C   C10  0.077197  0.489369  0.501773  0.574290
    C   C11  0.970280  0.593847  0.565550  -0.257032
    C   C12  0.915649  0.497445  0.496868  0.686770
    C   C13  0.025881  0.589505  0.436119  0.303608
    C   C14  0.970075  0.495078  0.366129  -0.249486
    C   C15  0.169177  0.487935  0.502844  -0.341747
    C   C16  0.823697  0.500957  0.495286  -0.394329
    H   H4   0.947155  0.678080  0.618561  0.102603
    H   H5   0.046143  0.489409  0.742365  0.078748
    H   H6   0.477886  0.110230  0.278880  0.108949
    C   C17  0.559834  0.117218  0.740757  -0.328176
    H   H7   0.594484  0.202001  0.733005  0.155470
    C   C18  0.557708  0.061218  0.870585  0.024232
    H   H8   0.585400  0.105663  0.961465  0.069416
    C   C19  0.516115  0.952135  0.885533  -0.161792
    H   H9   0.508301  0.911908  0.989095  0.132152
    C   C20  0.486979  0.891633  0.767919  -0.125045
    H   H10  0.451338  0.809635  0.787685  0.088790
    C   C21  0.497797  0.940903  0.633018  0.087481
    C   C22  0.521675  0.063187  0.623882  0.247023
    C   C23  0.507899  0.128128  0.498705  -0.228853
    C   C24  0.487704  0.063228  0.378050  -0.043513
    H   H11  0.470453  0.888765  0.283357  0.101504
    C   C25  0.481307  0.936940  0.381424  -0.091204
    C   C26  0.485070  0.873525  0.508049  -0.105229
    C   C27  0.599621  0.667932  0.141962  -0.334748
    H   H12  0.602173  0.679788  0.252778  0.209761
    C   C28  0.652707  0.744914  0.070843  0.402754
    C   C29  0.655482  0.741334  0.927790  -0.214810
    H   H13  0.697002  0.802105  0.870490  0.145510
    C   C30  0.604981  0.660941  0.856388  -0.164695
    H   H14  0.612003  0.666873  0.745472  0.167541
    C   C31  0.550252  0.580218  0.925462  0.130933
    C   C32  0.547796  0.583379  0.072696  0.186460
    N   N1   0.495456  0.506825  0.145664  -0.192409
    C   C33  0.447570  0.426935  0.071912  0.354505
    H   H15  0.409131  0.361407  0.869531  0.143232
    C   C34  0.449416  0.424839  0.925379  -0.122690
    N   N2   0.501059  0.499555  0.852271  -0.047434
    F   F1   0.396068  0.347988  0.140708  -0.150084
    F   F2   0.701877  0.824851  0.142930  -0.232646
    F   F3   0.059731  0.690942  0.369418  -0.281134
