# generated using pymatgen
data_Zn2H22C30N2O9
_symmetry_space_group_name_H-M   'P 1'
_cell_length_a   8.55894000
_cell_length_b   11.06927800
_cell_length_c   14.16360500
_cell_angle_alpha   90.57319300
_cell_angle_beta   92.68620800
_cell_angle_gamma   80.59470500
_symmetry_Int_Tables_number   1
_chemical_formula_structural   Zn2H22C30N2O9
_chemical_formula_sum   'Zn2 H22 C30 N2 O9'
_cell_volume   1322.38097404
_cell_formula_units_Z   1
loop_
 _symmetry_equiv_pos_site_id
 _symmetry_equiv_pos_as_xyz
  1  'x, y, z'
loop_
 _atom_site_type_symbol
 _atom_site_label
 _atom_site_symmetry_multiplicity
 _atom_site_fract_x
 _atom_site_fract_y
 _atom_site_fract_z
 _atom_site_occupancy
  Zn  Zn1  1  0.49458000  0.48935700  0.90062200  1
  Zn  Zn2  1  0.50370300  0.52461100  0.10955000  1
  H  H1  1  0.00008200  0.58793100  0.96141300  1
  H  H2  1  0.64997500  0.89891600  0.00458500  1
  H  H3  1  0.99820100  0.42603600  0.04875000  1
  H  H4  1  0.34831100  0.11504800  0.00560100  1
  H  H5  1  0.28213600  0.91828300  0.99807400  1
  H  H6  1  0.71614900  0.09568200  0.01210900  1
  H  H7  1  0.71780000  0.38953200  0.44013100  1
  H  H8  1  0.66494900  0.32247000  0.58159500  1
  H  H9  1  0.57889200  0.66294100  0.61578300  1
  H  H10  1  0.72922600  0.53485100  0.58712300  1
  H  H11  1  0.70033700  0.61740600  0.43874700  1
  H  H12  1  0.50751400  0.70550200  0.46049200  1
  H  H13  1  0.24024100  0.48942800  0.57734600  1
  H  H14  1  0.29827100  0.63899900  0.57335400  1
  H  H15  1  0.28022100  0.45314300  0.41989800  1
  H  H16  1  0.54794300  0.32275300  0.39839700  1
  H  H17  1  0.26287500  0.61807200  0.41351200  1
  H  H18  1  0.32537800  0.30559600  0.67145700  1
  H  H19  1  0.53498000  0.24310300  0.67942100  1
  H  H20  1  0.48183300  0.05936300  0.59225600  1
  H  H21  1  0.37307600  0.08325900  0.69931700  1
  H  H22  1  0.27216000  0.12094300  0.58559600  1
  C  C1  1  0.08951000  0.75397900  0.98328000  1
  C  C2  1  0.97007500  0.68515900  0.97224500  1
  C  C3  1  0.81472000  0.73718700  0.98319600  1
  C  C4  1  0.77298000  0.86011000  0.99649800  1
  C  C5  1  0.88743100  0.93288900  0.99922000  1
  C  C6  1  0.04638800  0.88042000  0.99544400  1
  C  C7  1  0.84038400  0.05780700  0.00848600  1
  C  C8  1  0.95189600  0.13354600  0.01473700  1
  C  C9  1  0.11085400  0.08107600  0.01096400  1
  C  C10  1  0.15790000  0.95615800  0.00169800  1
  C  C11  1  0.90877500  0.25998700  0.02689300  1
  C  C12  1  0.02820900  0.32880700  0.03792400  1
  C  C13  1  0.18356300  0.27677800  0.02697700  1
  C  C14  1  0.22530600  0.15385400  0.01368500  1
  C  C15  1  0.30236300  0.35378400  0.01958300  1
  C  C16  1  0.25361500  0.68427500  0.98954700  1
  C  C17  1  0.69591700  0.66018300  0.99058900  1
  C  C18  1  0.74467200  0.32969500  0.02062500  1
  C  C19  1  0.55233100  0.36817400  0.54670500  1
  C  C20  1  0.60510700  0.57946800  0.57157200  1
  C  C21  1  0.58319800  0.61443400  0.46816700  1
  C  C22  1  0.49358400  0.49081400  0.59300800  1
  C  C23  1  0.58828800  0.39318000  0.44561000  1
  C  C24  1  0.50304100  0.51931600  0.41680200  1
  C  C25  1  0.33245800  0.53362100  0.44509100  1
  C  C26  1  0.32970800  0.54180000  0.55179400  1
  C  C27  1  0.50788100  0.53338700  0.31440300  1
  C  C28  1  0.48977500  0.47912500  0.69566900  1
  C  C29  1  0.42349400  0.24779800  0.63570200  1
  C  C30  1  0.38507100  0.11924300  0.62768100  1
  N  N1  1  0.51012000  0.54029600  0.23302900  1
  N  N2  1  0.48814400  0.47362500  0.77714700  1
  O  O1  1  0.34972400  0.40554800  0.09649500  1
  O  O2  1  0.34982200  0.37223000  0.93520500  1
  O  O3  1  0.30778100  0.62477800  0.91357300  1
  O  O4  1  0.31941100  0.65726500  0.07440000  1
  O  O5  1  0.64855900  0.60842300  0.91366400  1
  O  O6  1  0.64846600  0.64174100  0.07497900  1
  O  O7  1  0.69050000  0.38919000  0.09659400  1
  O  O8  1  0.67887300  0.35670600  0.93577700  1
  O  O9  1  0.43506300  0.29290700  0.54449600  1
