# generated using pymatgen
data_ZnH5C14NClO4
_symmetry_space_group_name_H-M   'P 1'
_cell_length_a   6.59134600
_cell_length_b   14.23397400
_cell_length_c   14.70786400
_cell_angle_alpha   101.00328000
_cell_angle_beta   101.60397600
_cell_angle_gamma   89.92992100
_symmetry_Int_Tables_number   1
_chemical_formula_structural   ZnH5C14NClO4
_chemical_formula_sum   'Zn2 H10 C28 N2 Cl2 O8'
_cell_volume   1325.86266025
_cell_formula_units_Z   2
loop_
 _symmetry_equiv_pos_site_id
 _symmetry_equiv_pos_as_xyz
  1  'x, y, z'
loop_
 _atom_site_type_symbol
 _atom_site_label
 _atom_site_symmetry_multiplicity
 _atom_site_fract_x
 _atom_site_fract_y
 _atom_site_fract_z
 _atom_site_occupancy
  Zn  Zn1  1  0.01551100  0.10645100  0.51262600  1
  Zn  Zn2  1  0.98448900  0.89354900  0.48737400  1
  H  H1  1  0.27326900  0.97393900  0.79285600  1
  H  H2  1  0.72673000  0.02606000  0.20714400  1
  H  H3  1  0.52954600  0.97161500  0.93812100  1
  H  H4  1  0.47045400  0.02838500  0.06187900  1
  H  H5  1  0.00921600  0.03575200  0.80276600  1
  H  H6  1  0.99078300  0.96424800  0.19723400  1
  H  H7  1  0.11624400  0.40421800  0.36551400  1
  H  H8  1  0.88375500  0.59578200  0.63448600  1
  H  H9  1  0.33967500  0.56294600  0.49394700  1
  H  H10  1  0.66032500  0.43705400  0.50605300  1
  C  C1  1  0.43460800  0.98988600  0.79546300  1
  C  C2  1  0.56539200  0.01011400  0.20453700  1
  C  C3  1  0.57840200  0.98900900  0.87739200  1
  C  C4  1  0.42159700  0.01099100  0.12260800  1
  C  C5  1  0.78469000  0.00792600  0.88091900  1
  C  C6  1  0.21531000  0.99207400  0.11908200  1
  C  C7  1  0.84633600  0.02584700  0.80155700  1
  C  C8  1  0.15366300  0.97415200  0.19844300  1
  C  C9  1  0.70346600  0.02459300  0.71848200  1
  C  C10  1  0.29653300  0.97540600  0.28151800  1
  C  C11  1  0.49551100  0.00805000  0.71586200  1
  C  C12  1  0.50448800  0.99195000  0.28413900  1
  C  C13  1  0.93637800  0.00252100  0.96485100  1
  C  C14  1  0.06362200  0.99747800  0.03514900  1
  C  C15  1  0.78333800  0.01812000  0.63217200  1
  C  C16  1  0.21666200  0.98188000  0.36782800  1
  C  C17  1  0.33582000  0.00594600  0.63058400  1
  C  C18  1  0.66418000  0.99405400  0.36941700  1
  C  C19  1  0.86931100  0.50513900  0.42230600  1
  C  C20  1  0.13068900  0.49486000  0.57769400  1
  C  C21  1  0.06493700  0.44866700  0.42673100  1
  C  C22  1  0.93506200  0.55133300  0.57326900  1
  C  C23  1  0.81445500  0.46667600  0.50391100  1
  C  C24  1  0.18554500  0.53332300  0.49608900  1
  C  C25  1  0.01197400  0.41189400  0.50943100  1
  C  C26  1  0.98802500  0.58810600  0.49056900  1
  C  C27  1  0.02529700  0.31166900  0.51947400  1
  C  C28  1  0.97470200  0.68833100  0.48052600  1
  N  N1  1  0.03170100  0.23152500  0.52436400  1
  N  N2  1  0.96829800  0.76847500  0.47563600  1
  Cl  Cl1  1  0.69187800  0.51552800  0.31663400  1
  Cl  Cl2  1  0.30812100  0.48447200  0.68336600  1
  O  O1  1  0.82752800  0.93241800  0.59191600  1
  O  O2  1  0.17247200  0.06758100  0.40808400  1
  O  O3  1  0.84297700  0.09697200  0.60944700  1
  O  O4  1  0.15702200  0.90302700  0.39055400  1
  O  O5  1  0.26514600  0.08777500  0.61114700  1
  O  O6  1  0.73485300  0.91222500  0.38885300  1
  O  O7  1  0.24575500  0.92274500  0.58764900  1
  O  O8  1  0.75424400  0.07725500  0.41235100  1
