# Generated by REPEAT Assigner based on pymatgen
data_DB0-m2_o1_o16_f0_pcu.sym.12
_audit_creation_date              2022-05-24
_audit_creation_method            REPEAT_Assigner
_cell_length_a                    9.401248
_cell_length_b                    10.869001
_cell_length_c                    13.569554
_cell_angle_alpha                 89.996034
_cell_angle_beta                  74.573872
_cell_angle_gamma                 90.019378
_cell_volume                      1336.614266
_symmetry_space_group_name_H-M    P1
_symmetry_Int_Tables_number       1
loop_
    _symmetry_equiv_pos_site_id
    _symmetry_equiv_pos_as_xyz
    1  x,y,z
loop_
    _atom_site_type_symbol
    _atom_site_label
    _atom_site_fract_x
    _atom_site_fract_y
    _atom_site_fract_z
    _atom_type_partial_charge
    O   O1   0.376830  0.673894  0.506142  -0.602920
    O   O2   0.623787  0.674055  0.498423  -0.510221
    C   C1   0.500415  0.732159  0.503133  0.698379
    O   O3   0.325159  0.487598  0.648349  -0.601288
    O   O4   0.570136  0.493583  0.645635  -0.584111
    C   C2   0.430085  0.491377  0.695508  0.705822
    Cu  Cu1  0.359108  0.495043  0.500072  0.914309
    Cu  Cu2  0.644510  0.495388  0.496877  0.719859
    O   O5   0.378924  0.316245  0.500814  -0.584752
    O   O6   0.627225  0.316806  0.488794  -0.572388
    O   O7   0.433468  0.494262  0.351333  -0.546084
    O   O8   0.678481  0.506043  0.348727  -0.450135
    C   C3   0.503227  0.258696  0.494268  0.713486
    C   C4   0.573111  0.502837  0.302116  0.551025
    C   C5   0.770122  0.605997  0.040782  -0.215533
    H   H1   0.822442  0.600153  0.183363  0.112319
    H   H2   0.791703  0.674976  0.854721  0.131474
    H   H3   0.871070  0.653865  0.003944  0.117580
    C   C6   0.611377  0.520031  0.191058  -0.013252
    C   C7   0.257325  0.419368  0.852036  -0.020037
    C   C8   0.219101  0.391583  0.954091  -0.130979
    C   C9   0.311034  0.421460  0.013886  -0.129097
    C   C10  0.441966  0.485611  0.973294  -0.011140
    C   C11  0.477129  0.518720  0.870075  0.252030
    C   C12  0.538904  0.517169  0.032724  0.070782
    C   C13  0.668289  0.579327  0.987070  0.204176
    C   C14  0.695236  0.619797  0.888118  -0.229177
    C   C15  0.598544  0.593525  0.831363  -0.240153
    C   C16  0.510727  0.490027  0.136759  -0.223407
    C   C17  0.743076  0.574970  0.142075  -0.075432
    C   C18  0.387702  0.479972  0.808066  -0.232525
    H   H4   0.410757  0.446576  0.179171  0.145459
    H   H5   0.185959  0.388449  0.806419  0.094835
    H   H6   0.274284  0.392070  0.092070  0.116702
    H   H7   0.117930  0.342047  0.987161  0.105384
    H   H8   0.619322  0.636748  0.757678  0.120152
    C   C19  0.629531  0.933685  0.500606  0.519613
    C   C20  0.629153  0.060329  0.497164  -0.292799
    H   H9   0.729736  0.108795  0.496441  0.117664
    C   C21  0.502709  0.123730  0.495738  -0.020834
    C   C22  0.375427  0.058766  0.498103  -0.166353
    H   H10  0.274648  0.106073  0.497341  0.108371
    C   C23  0.375177  0.931819  0.501165  -0.030309
    H   H11  0.274240  0.883607  0.502264  0.117862
    C   C24  0.501954  0.867819  0.502299  -0.290264
    C   C25  0.902592  0.569294  0.560662  -0.114242
    H   H12  0.824841  0.629758  0.610710  0.216834
    C   C26  0.048104  0.569863  0.563536  0.004047
    H   H13  0.083057  0.630232  0.615927  0.099211
    N   N1   0.145540  0.494055  0.502256  -0.046797
    C   C27  0.101942  0.421809  0.435211  -0.167538
    H   H14  0.180594  0.362710  0.384115  0.124999
    C   C28  0.956578  0.421205  0.432228  0.450458
    N   N2   0.858286  0.496044  0.494409  -0.099767
    O   O9   0.914180  0.346828  0.364006  -0.495622
    H   H15  0.919794  0.262498  0.390258  0.367250
    O   O10  0.757584  0.875658  0.502775  -0.507750
    H   H16  0.758121  0.877501  0.575627  0.304818
