# generated using pymatgen
data_CuH19C26(NO)11
_symmetry_space_group_name_H-M   'P 1'
_cell_length_a   24.09182600
_cell_length_b   23.86800100
_cell_length_c   15.70007300
_cell_angle_alpha   90.00000000
_cell_angle_beta   99.12371300
_cell_angle_gamma   90.00000000
_symmetry_Int_Tables_number   1
_chemical_formula_structural   CuH19C26(NO)11
_chemical_formula_sum   'Cu4 H76 C104 N44 O44'
_cell_volume   8913.69571270
_cell_formula_units_Z   4
loop_
 _symmetry_equiv_pos_site_id
 _symmetry_equiv_pos_as_xyz
  1  'x, y, z'
loop_
 _atom_site_type_symbol
 _atom_site_label
 _atom_site_symmetry_multiplicity
 _atom_site_fract_x
 _atom_site_fract_y
 _atom_site_fract_z
 _atom_site_occupancy
  Cu  Cu1  1  0.50068100  0.00107500  0.41529600  1
  Cu  Cu2  1  0.50225300  0.00060600  0.58612500  1
  Cu  Cu3  1  0.00068500  0.50106500  0.41530900  1
  Cu  Cu4  1  0.00224300  0.50060900  0.58613800  1
  H  H1  1  0.65530700  0.23694500  0.42249600  1
  H  H2  1  0.34379400  0.76956500  0.58563400  1
  H  H3  1  0.34459600  0.23333500  0.58592500  1
  H  H4  1  0.65897000  0.76895600  0.41535800  1
  H  H5  1  0.15529700  0.73697700  0.42259000  1
  H  H6  1  0.84380200  0.26953100  0.58554600  1
  H  H7  1  0.84457100  0.73333000  0.58583000  1
  H  H8  1  0.15898800  0.26894600  0.41547300  1
  H  H9  1  0.33956200  0.91214600  0.35941800  1
  H  H10  1  0.66489500  0.08736900  0.63887300  1
  H  H11  1  0.66219700  0.91165400  0.64114300  1
  H  H12  1  0.34160800  0.09123000  0.35935000  1
  H  H13  1  0.83959800  0.41214700  0.35939000  1
  H  H14  1  0.16488000  0.58735500  0.63888900  1
  H  H15  1  0.16219800  0.41167900  0.64119900  1
  H  H16  1  0.84162500  0.59121400  0.35928300  1
  H  H17  1  0.59003400  0.99079100  0.73483100  1
  H  H18  1  0.41224100  0.99396000  0.27218900  1
  H  H19  1  0.09001000  0.49079200  0.73488100  1
  H  H20  1  0.91225200  0.49392200  0.27224000  1
  H  H21  1  0.55291300  0.17192700  0.27216000  1
  H  H22  1  0.54820500  0.23707300  0.31255100  1
  H  H23  1  0.44481500  0.84003000  0.73448500  1
  H  H24  1  0.44771800  0.77268700  0.70219200  1
  H  H25  1  0.44309600  0.16225000  0.73708500  1
  H  H26  1  0.44740800  0.22942100  0.70473300  1
  H  H27  1  0.55841900  0.83822200  0.26507200  1
  H  H28  1  0.55500900  0.77129600  0.29897600  1
  H  H29  1  0.05292200  0.67198800  0.27219100  1
  H  H30  1  0.04820200  0.73711500  0.31264700  1
  H  H31  1  0.94480100  0.33995500  0.73446200  1
  H  H32  1  0.94772700  0.27263000  0.70210100  1
  H  H33  1  0.94305100  0.66226300  0.73703500  1
  H  H34  1  0.94734700  0.72943200  0.70465700  1
  H  H35  1  0.05844400  0.33820000  0.26515000  1
  H  H36  1  0.05503200  0.27127900  0.29907600  1
  H  H37  1  0.24750800  0.87160300  0.20815000  1
  H  H38  1  0.21135800  0.91332200  0.26689400  1
  H  H39  1  0.79559400  0.08542200  0.72375700  1
  H  H40  1  0.75946000  0.12279600  0.78816400  1
  H  H41  1  0.75318300  0.87088100  0.79359100  1
  H  H42  1  0.78989400  0.91254200  0.73559500  1
  H  H43  1  0.21374000  0.09152800  0.26391600  1
  H  H44  1  0.25173300  0.13222500  0.20649700  1
  H  H45  1  0.74750800  0.37162900  0.20808700  1
  H  H46  1  0.71138000  0.41334400  0.26686400  1
  H  H47  1  0.29557900  0.58540100  0.72378400  1
  H  H48  1  0.25945800  0.62277000  0.78821100  1
  H  H49  1  0.25318600  0.37091600  0.79367800  1
  H  H50  1  0.28987700  0.41259400  0.73567800  1
  H  H51  1  0.71376400  0.59147600  0.26383300  1
  H  H52  1  0.75172400  0.63219700  0.20640000  1
  H  H53  1  0.64482200  0.08006400  0.36050400  1
  H  H54  1  0.66747600  0.06081200  0.26943600  1
  H  H55  1  0.35307000  0.05664400  0.61818200  1
  H  H56  1  0.33406900  0.05046900  0.71530500  1
  H  H57  1  0.14478600  0.58014700  0.36040700  1
  H  H58  1  0.16746800  0.56081400  0.26939300  1
  H  H59  1  0.85303100  0.55658600  0.61811200  1
  H  H60  1  0.83405100  0.55048200  0.71526300  1
  H  H61  1  0.62310700  0.09984100  0.09431500  1
  H  H62  1  0.55251700  0.09729100  0.06949400  1
  H  H63  1  0.33778100  0.04479000  0.86475600  1
  H  H64  1  0.40216600  0.07472200  0.88757200  1
  H  H65  1  0.12300900  0.59991700  0.09417100  1
  H  H66  1  0.05241500  0.59733300  0.06937100  1
  H  H67  1  0.83768900  0.54467900  0.86469900  1
  H  H68  1  0.90205200  0.57466300  0.88752000  1
  H  H69  1  0.69604900  0.97857100  0.91753200  1
  H  H70  1  0.66114500  0.03637700  0.87669600  1
  H  H71  1  0.30058200  0.99926600  0.09645600  1
  H  H72  1  0.33962900  0.05520900  0.13494600  1
  H  H73  1  0.19600100  0.47855900  0.91754800  1
  H  H74  1  0.16109800  0.53637800  0.87675200  1
  H  H75  1  0.80053600  0.49929400  0.09660700  1
  H  H76  1  0.83959800  0.55521200  0.13516900  1
  C  C1  1  0.42686100  0.07876900  0.48401000  1
  C  C2  1  0.57627200  0.92311500  0.51735100  1
  C  C3  1  0.57660600  0.07826000  0.51880400  1
  C  C4  1  0.42613300  0.92353000  0.48276600  1
  C  C5  1  0.92685500  0.57876200  0.48399000  1
  C  C6  1  0.07627600  0.42311800  0.51739600  1
  C  C7  1  0.07660300  0.57825800  0.51881800  1
  C  C8  1  0.92613600  0.42352400  0.48277600  1
  C  C9  1  0.38404800  0.87851200  0.47519500  1
  C  C10  1  0.61816000  0.12376400  0.52706300  1
  C  C11  1  0.61830900  0.87814300  0.52483300  1
  C  C12  1  0.38519200  0.12414500  0.47635300  1
  C  C13  1  0.88405200  0.37850800  0.47518100  1
  C  C14  1  0.11815700  0.62376300  0.52708800  1
  C  C15  1  0.11831900  0.37814900  0.52490100  1
  C  C16  1  0.88518100  0.62413100  0.47630400  1
  C  C17  1  0.38532000  0.83741800  0.53822900  1
  C  C18  1  0.61512600  0.16694700  0.46702600  1
  C  C19  1  0.61723800  0.83705000  0.46186100  1
  C  C20  1  0.38622400  0.16517000  0.53948500  1
  C  C21  1  0.88532100  0.33740300  0.53819400  1
  C  C22  1  0.11512200  0.66695700  0.46707100  1
  C  C23  1  0.11725400  0.33704800  0.46194300  1
  C  C24  1  0.88619900  0.66515800  0.53942400  1
  C  C25  1  0.34066600  0.80103200  0.53575300  1
  C  C26  1  0.65947100  0.20382300  0.46986400  1
  C  C27  1  0.66187300  0.80057500  0.46499100  1
  C  C28  1  0.34179400  0.20192400  0.53599900  1
  C  C29  1  0.84067200  0.30100900  0.53568300  1
  C  C30  1  0.15946300  0.70384200  0.46993700  1
  C  C31  1  0.16189000  0.30057300  0.46509500  1
  C  C32  1  0.84177100  0.70191400  0.53591000  1
  C  C33  1  0.29496600  0.80364200  0.46977000  1
  C  C34  1  0.70639400  0.19962300  0.53345500  1
  C  C35  1  0.70722100  0.80313500  0.53155600  1
  C  C36  1  0.29673600  0.19979400  0.46893400  1
  C  C37  1  0.79497600  0.30363000  0.46969400  1
  C  C38  1  0.20638700  0.69963300  0.53352900  1
  C  C39  1  0.20723500  0.30314300  0.53166400  1
  C  C40  1  0.79672100  0.69978100  0.46883200  1
  C  C41  1  0.29515400  0.84283500  0.40393700  1
  C  C42  1  0.70769900  0.15861000  0.59694500  1
  C  C43  1  0.70673800  0.84228100  0.59732400  1
  C  C44  1  0.29733500  0.16081600  0.40298700  1
  C  C45  1  0.79516800  0.34283500  0.40387700  1
  C  C46  1  0.20769000  0.65860600  0.59699900  1
  C  C47  1  0.20674800  0.34230100  0.59741500  1
  C  C48  1  0.79732800  0.66079400  0.40289900  1
  C  C49  1  0.33975700  0.87997300  0.40778000  1
  C  C50  1  0.66353900  0.12096500  0.59256200  1
  C  C51  1  0.66223000  0.87950900  0.59279500  1
  C  C52  1  0.34158200  0.12325600  0.40787900  1
  C  C53  1  0.83977400  0.37997200  0.40774700  1
  C  C54  1  0.16353000  0.62095900  0.59259300  1
  C  C55  1  0.16223600  0.37952500  0.59286700  1
  C  C56  1  0.84158300  0.62323800  0.40781000  1
  C  C57  1  0.45479200  0.99981100  0.74960200  1
  C  C58  1  0.54546100  0.00966900  0.24772900  1
  C  C59  1  0.95475900  0.49979700  0.74960000  1
  C  C60  1  0.04545200  0.50968600  0.24772100  1
  C  C61  1  0.45699300  0.99528100  0.83804300  1
  C  C62  1  0.53941300  0.01215500  0.15805700  1
  C  C63  1  0.95694800  0.49525000  0.83804100  1
  C  C64  1  0.03937800  0.51219800  0.15804500  1
  C  C65  1  0.50868600  0.98795500  0.89143200  1
  C  C66  1  0.48659600  0.00392300  0.10851400  1
  C  C67  1  0.00863800  0.48793900  0.89144200  1
  C  C68  1  0.98655500  0.50394600  0.10852100  1
  C  C69  1  0.55648200  0.98512900  0.85236300  1
  C  C70  1  0.44089300  0.99804800  0.15139400  1
  C  C71  1  0.05643800  0.48512500  0.85238700  1
  C  C72  1  0.94086300  0.49805900  0.15142200  1
  C  C73  1  0.55254800  0.99295400  0.76429900  1
  C  C74  1  0.44843400  0.99854100  0.24017900  1
  C  C75  1  0.05251700  0.49295900  0.76432900  1
  C  C76  1  0.94843100  0.49851900  0.24020900  1
  C  C77  1  0.56514500  0.17644300  0.40127900  1
  C  C78  1  0.43416700  0.82900300  0.60636200  1
  C  C79  1  0.43438600  0.17298900  0.60902300  1
  C  C80  1  0.56856200  0.82857200  0.39342500  1
  C  C81  1  0.06514500  0.67645600  0.40131900  1
  C  C82  1  0.93416500  0.32898100  0.60633000  1
  C  C83  1  0.93435200  0.67298500  0.60897200  1
  C  C84  1  0.06858200  0.32856300  0.39350600  1
  C  C85  1  0.24850800  0.84699500  0.33052100  1
  C  C86  1  0.75559100  0.15293700  0.66813300  1
  C  C87  1  0.75297300  0.84631800  0.67137400  1
  C  C88  1  0.25145700  0.15729800  0.32836400  1
  C  C89  1  0.74852600  0.34700300  0.33045500  1
  C  C90  1  0.25558000  0.65292300  0.66818900  1
  C  C91  1  0.25298200  0.34635700  0.67146300  1
  C  C92  1  0.75145400  0.65726100  0.32827200  1
  C  C93  1  0.60201000  0.01642900  0.29794500  1
  C  C94  1  0.39879800  0.00175900  0.69650500  1
  C  C95  1  0.10200000  0.51646600  0.29792600  1
  C  C96  1  0.89876600  0.50173200  0.69649700  1
  C  C97  1  0.58912200  0.02599900  0.11834600  1
  C  C98  1  0.40287800  0.99141900  0.86925200  1
  C  C99  1  0.08906900  0.52606800  0.11830000  1
  C  C100  1  0.90283300  0.49135500  0.86924400  1
  C  C101  1  0.61205000  0.97275800  0.90257700  1
  C  C102  1  0.38385700  0.98887400  0.10500600  1
  C  C103  1  0.11200100  0.47275000  0.90260000  1
  C  C104  1  0.88381400  0.48890600  0.10506400  1
  N  N1  1  0.24863200  0.76686900  0.46901600  1
  N  N2  1  0.75262600  0.23647400  0.53406100  1
  N  N3  1  0.75347300  0.76623800  0.53311000  1
  N  N4  1  0.25052800  0.23675900  0.46728800  1
  N  N5  1  0.74864100  0.26685600  0.46892600  1
  N  N6  1  0.25262000  0.73648300  0.53414600  1
  N  N7  1  0.25348900  0.26624800  0.53323000  1
  N  N8  1  0.75051300  0.73675000  0.46716700  1
  N  N9  1  0.50248200  0.00007000  0.71374900  1
  N  N10  1  0.49998300  0.00161200  0.28756000  1
  N  N11  1  0.00245700  0.50008100  0.71376000  1
  N  N12  1  0.99998900  0.50159100  0.28757100  1
  N  N13  1  0.51495600  0.98307200  0.98311500  1
  N  N14  1  0.47758300  0.00661400  0.01669600  1
  N  N15  1  0.01490300  0.48306500  0.98312800  1
  N  N16  1  0.97753500  0.50662100  0.01670100  1
  N  N17  1  0.57122100  0.19984300  0.31965000  1
  N  N18  1  0.42610400  0.81047600  0.68992100  1
  N  N19  1  0.42536900  0.19191200  0.69193300  1
  N  N20  1  0.57682500  0.80903100  0.31048200  1
  N  N21  1  0.07122300  0.69988700  0.31971200  1
  N  N22  1  0.92610100  0.31041400  0.68986700  1
  N  N23  1  0.92532100  0.69191600  0.69187000  1
  N  N24  1  0.07684800  0.30901500  0.31057000  1
  N  N25  1  0.24849400  0.89056000  0.26829600  1
  N  N26  1  0.75796200  0.10662800  0.72605700  1
  N  N27  1  0.75265600  0.88986000  0.73355900  1
  N  N28  1  0.25144000  0.11349700  0.26651500  1
  N  N29  1  0.74851300  0.39057800  0.26824300  1
  N  N30  1  0.25794800  0.60660700  0.72609800  1
  N  N31  1  0.25264800  0.38989800  0.73364500  1
  N  N32  1  0.75145300  0.61346300  0.26642100  1
  N  N33  1  0.63136200  0.06834400  0.29663200  1
  N  N34  1  0.36892000  0.05351200  0.68377800  1
  N  N35  1  0.13134700  0.56837600  0.29655200  1
  N  N36  1  0.86889400  0.55348600  0.68370900  1
  N  N37  1  0.58942100  0.07502600  0.06629600  1
  N  N38  1  0.37802400  0.04022800  0.90000200  1
  N  N39  1  0.08932900  0.57507900  0.06620100  1
  N  N40  1  0.87793500  0.54015300  0.89995300  1
  N  N41  1  0.66172600  0.99268100  0.87372400  1
  N  N42  1  0.33674900  0.01162200  0.13790300  1
  N  N43  1  0.16167700  0.49268200  0.87375500  1
  N  N44  1  0.83672000  0.51162400  0.13803500  1
  O  O1  1  0.44184400  0.05763300  0.41397400  1
  O  O2  1  0.56080700  0.94373600  0.58747500  1
  O  O3  1  0.56146700  0.05688400  0.58865600  1
  O  O4  1  0.44173800  0.94449900  0.41304200  1
  O  O5  1  0.94184600  0.55762300  0.41396500  1
  O  O6  1  0.06080300  0.44374100  0.58751300  1
  O  O7  1  0.06145400  0.55688900  0.58867400  1
  O  O8  1  0.94174300  0.44448900  0.41305500  1
  O  O9  1  0.44663200  0.06019700  0.56115400  1
  O  O10  1  0.55667200  0.94180600  0.44016800  1
  O  O11  1  0.55677400  0.06019200  0.44125400  1
  O  O12  1  0.44582100  0.94187300  0.55997000  1
  O  O13  1  0.94662000  0.56019500  0.56114300  1
  O  O14  1  0.05667700  0.44180000  0.44020300  1
  O  O15  1  0.05677700  0.56018400  0.44126700  1
  O  O16  1  0.94581600  0.44187000  0.55998000  1
  O  O17  1  0.51814800  0.16733600  0.41754900  1
  O  O18  1  0.48182200  0.83478500  0.59070300  1
  O  O19  1  0.48233700  0.16647000  0.59509000  1
  O  O20  1  0.52083500  0.83494500  0.40846400  1
  O  O21  1  0.01814800  0.66733700  0.41757700  1
  O  O22  1  0.98182100  0.33478500  0.59068500  1
  O  O23  1  0.98230800  0.66647100  0.59505400  1
  O  O24  1  0.02085300  0.33493200  0.40854200  1
  O  O25  1  0.21002800  0.81328200  0.32126100  1
  O  O26  1  0.79301000  0.18778500  0.67942200  1
  O  O27  1  0.79138200  0.81252900  0.68119300  1
  O  O28  1  0.21370000  0.19180000  0.31770400  1
  O  O29  1  0.71004500  0.31329200  0.32118300  1
  O  O30  1  0.29299900  0.68777100  0.67949100  1
  O  O31  1  0.29140500  0.31258400  0.68128300  1
  O  O32  1  0.71368100  0.69174500  0.31761700  1
  O  O33  1  0.62595300  0.97631700  0.33517900  1
  O  O34  1  0.37449600  0.95816300  0.67372700  1
  O  O35  1  0.12593800  0.47637200  0.33521800  1
  O  O36  1  0.87445800  0.45813000  0.67377200  1
  O  O37  1  0.63051000  0.99584800  0.13031600  1
  O  O38  1  0.37841300  0.94657800  0.86693000  1
  O  O39  1  0.13046800  0.49593200  0.13025200  1
  O  O40  1  0.87842300  0.44648800  0.86700800  1
  O  O41  1  0.61635500  0.94246500  0.96577300  1
  O  O42  1  0.37603600  0.95765600  0.04297600  1
  O  O43  1  0.11630500  0.44243900  0.96577400  1
  O  O44  1  0.87597200  0.45773000  0.04298900  1
