# generated using pymatgen
data_ZnH8C14NO5
_symmetry_space_group_name_H-M   'P 1'
_cell_length_a   12.36108000
_cell_length_b   8.55611300
_cell_length_c   10.68404400
_cell_angle_alpha   90.00000000
_cell_angle_beta   92.51914500
_cell_angle_gamma   90.00000000
_symmetry_Int_Tables_number   1
_chemical_formula_structural   ZnH8C14NO5
_chemical_formula_sum   'Zn2 H16 C28 N2 O10'
_cell_volume   1128.88236196
_cell_formula_units_Z   2
loop_
 _symmetry_equiv_pos_site_id
 _symmetry_equiv_pos_as_xyz
  1  'x, y, z'
loop_
 _atom_site_type_symbol
 _atom_site_label
 _atom_site_symmetry_multiplicity
 _atom_site_fract_x
 _atom_site_fract_y
 _atom_site_fract_z
 _atom_site_occupancy
  Zn  Zn1  1  0.11909200  0.50519300  0.48355200  1
  Zn  Zn2  1  0.88061800  0.49534500  0.51607700  1
  H  H1  1  0.05400500  0.38546600  0.89859200  1
  H  H2  1  0.94581300  0.61505800  0.10103100  1
  H  H3  1  0.02730600  0.38373000  0.12156400  1
  H  H4  1  0.97249600  0.61679500  0.87805800  1
  H  H5  1  0.05731600  0.00359800  0.58488700  1
  H  H6  1  0.94227800  0.99696400  0.41468400  1
  H  H7  1  0.44392000  0.48835200  0.18821700  1
  H  H8  1  0.49059700  0.35265500  0.30891900  1
  H  H9  1  0.68086600  0.42342700  0.27212400  1
  H  H10  1  0.61212800  0.35307200  0.12990900  1
  H  H11  1  0.63522400  0.56046900  0.15188700  1
  H  H12  1  0.50476600  0.64766000  0.69090500  1
  H  H13  1  0.56118400  0.51315700  0.80727800  1
  H  H14  1  0.37458400  0.42930100  0.85590800  1
  H  H15  1  0.39344300  0.63738600  0.87893300  1
  H  H16  1  0.31939700  0.56598700  0.74049500  1
  C  C1  1  0.04581400  0.00285200  0.68431000  1
  C  C2  1  0.95385500  0.99769700  0.31527700  1
  C  C3  1  0.04060300  0.14235600  0.74756000  1
  C  C4  1  0.95912700  0.85818000  0.25205000  1
  C  C5  1  0.97360600  0.13702800  0.25619600  1
  C  C6  1  0.02611900  0.86351600  0.74340800  1
  C  C7  1  0.02677500  0.14077300  0.87542500  1
  C  C8  1  0.97305200  0.85974700  0.12420200  1
  C  C9  1  0.99494000  0.13800600  0.13021700  1
  C  C10  1  0.00487700  0.86251800  0.86940800  1
  C  C11  1  0.03322400  0.27744700  0.94329200  1
  C  C12  1  0.96661800  0.72307000  0.05633600  1
  C  C13  1  0.01888800  0.27586800  0.07028800  1
  C  C14  1  0.98094400  0.72465200  0.92933900  1
  C  C15  1  0.53133000  0.47487600  0.54768100  1
  C  C16  1  0.46838300  0.52516300  0.45181200  1
  C  C17  1  0.00862700  0.00083800  0.93625200  1
  C  C18  1  0.99122600  0.99967800  0.06338100  1
  C  C19  1  0.35252500  0.51816300  0.45836200  1
  C  C20  1  0.64718400  0.48214900  0.54122300  1
  C  C21  1  0.02895300  0.28522600  0.67202800  1
  C  C22  1  0.97076100  0.71532100  0.32760400  1
  C  C23  1  0.98187200  0.27767500  0.33339800  1
  C  C24  1  0.01783900  0.72287000  0.66621800  1
  C  C25  1  0.50868800  0.46377400  0.26067800  1
  C  C26  1  0.61643300  0.44922200  0.19956200  1
  C  C27  1  0.49231500  0.53497100  0.73948200  1
  C  C28  1  0.38795500  0.54240800  0.80830700  1
  N  N1  1  0.74029600  0.48788400  0.53484700  1
  N  N2  1  0.25941400  0.51263700  0.46478400  1
  O  O1  1  0.92994300  0.33127400  0.64120900  1
  O  O2  1  0.06977300  0.66926500  0.35841900  1
  O  O3  1  0.07888300  0.33248000  0.36220200  1
  O  O4  1  0.92082500  0.66806000  0.63742800  1
  O  O5  1  0.11471300  0.34320600  0.62037000  1
  O  O6  1  0.88499500  0.65734000  0.37926200  1
  O  O7  1  0.89379700  0.33013700  0.38318600  1
  O  O8  1  0.10591600  0.67040600  0.61643800  1
  O  O9  1  0.51382700  0.58537100  0.34762800  1
  O  O10  1  0.48589200  0.41433500  0.65174500  1
