# generated using pymatgen
data_ZnH14C26N3O4
_symmetry_space_group_name_H-M   'P 1'
_cell_length_a   9.23753200
_cell_length_b   13.38408600
_cell_length_c   16.26314100
_cell_angle_alpha   90.04670200
_cell_angle_beta   94.75459100
_cell_angle_gamma   90.59985700
_symmetry_Int_Tables_number   1
_chemical_formula_structural   ZnH14C26N3O4
_chemical_formula_sum   'Zn2 H28 C52 N6 O8'
_cell_volume   2003.67664873
_cell_formula_units_Z   2
loop_
 _symmetry_equiv_pos_site_id
 _symmetry_equiv_pos_as_xyz
  1  'x, y, z'
loop_
 _atom_site_type_symbol
 _atom_site_label
 _atom_site_symmetry_multiplicity
 _atom_site_fract_x
 _atom_site_fract_y
 _atom_site_fract_z
 _atom_site_occupancy
  Zn  Zn1  1  0.18549300  0.49588200  0.51069200  1
  Zn  Zn2  1  0.86322000  0.51303700  0.49815200  1
  H  H1  1  0.87017100  0.32265500  0.98518500  1
  H  H2  1  0.97161300  0.00373800  0.28035200  1
  H  H3  1  0.17274300  0.69497900  0.02415000  1
  H  H4  1  0.06042500  0.01142000  0.72725700  1
  H  H5  1  0.90511200  0.04565600  0.04523900  1
  H  H6  1  0.11044400  0.96808300  0.96199400  1
  H  H7  1  0.14503000  0.60721300  0.90460700  1
  H  H8  1  0.01276100  0.83592700  0.67087400  1
  H  H9  1  0.07158400  0.17011900  0.66886100  1
  H  H10  1  0.90678900  0.45607800  0.72989100  1
  H  H11  1  0.86221800  0.39976000  0.86689600  1
  H  H12  1  0.91748800  0.40877000  0.10417100  1
  H  H13  1  0.01527500  0.17265700  0.33691600  1
  H  H14  1  0.16963700  0.56590400  0.28219900  1
  H  H15  1  0.20238100  0.62419100  0.14476200  1
  H  H16  1  0.12139400  0.54403900  0.76338000  1
  H  H17  1  0.95223500  0.47060500  0.24570600  1
  H  H18  1  0.64854200  0.66531900  0.52783700  1
  H  H19  1  0.38690700  0.65004800  0.53917600  1
  H  H20  1  0.42594100  0.26520000  0.52758800  1
  H  H21  1  0.38458800  0.29434000  0.41455100  1
  H  H22  1  0.68484800  0.28175800  0.51134300  1
  H  H23  1  0.64237200  0.30966800  0.39819500  1
  H  H24  1  0.05432800  0.83672500  0.45530000  1
  H  H25  1  0.89161800  0.92326900  0.54278600  1
  H  H26  1  0.65079000  0.97729400  0.48515100  1
  H  H27  1  0.57203900  0.94408700  0.33943800  1
  H  H28  1  0.73348500  0.85660100  0.25154000  1
  C  C1  1  0.99229100  0.18774200  0.78927600  1
  C  C2  1  0.93999800  0.25174100  0.84429500  1
  C  C3  1  0.93124900  0.20111300  0.91696200  1
  C  C4  1  0.00741900  0.09664700  0.82838500  1
  C  C5  1  0.89839200  0.24473300  0.98707600  1
  C  C6  1  0.92213500  0.20106100  0.06970900  1
  C  C7  1  0.94387400  0.25571100  0.14171400  1
  C  C8  1  0.96910100  0.19031900  0.20516400  1
  C  C9  1  0.96048800  0.09525600  0.16983800  1
  C  C10  1  0.97432900  0.99994200  0.21429000  1
  C  C11  1  0.00777800  0.91386800  0.17821900  1
  C  C12  1  0.03155200  0.82349900  0.21832200  1
  C  C13  1  0.09512200  0.76340100  0.16442500  1
  C  C14  1  0.09670000  0.81324000  0.09092800  1
  C  C15  1  0.13586400  0.77110800  0.02140300  1
  C  C16  1  0.10887300  0.81289000  0.93821500  1
  C  C17  1  0.09540900  0.75742300  0.86639400  1
  C  C18  1  0.06335000  0.82121300  0.80246000  1
  C  C19  1  0.06141600  0.91645900  0.83723600  1
  C  C20  1  0.04477800  0.01157400  0.79248400  1
  C  C21  1  0.11461400  0.65726800  0.85424600  1
  C  C22  1  0.09942000  0.62167200  0.77439000  1
  C  C23  1  0.05658000  0.68318300  0.70817700  1
  C  C24  1  0.04016200  0.78580500  0.72168800  1
  C  C25  1  0.02678700  0.21953800  0.71253500  1
  C  C26  1  0.00051600  0.31885600  0.69348800  1
  C  C27  1  0.93536100  0.38067700  0.74778800  1
  C  C28  1  0.90849800  0.34888800  0.82500900  1
  C  C29  1  0.94013600  0.35691100  0.15427300  1
  C  C30  1  0.96159700  0.39166500  0.23422100  1
  C  C31  1  0.99261400  0.32743900  0.30024100  1
  C  C32  1  0.99575600  0.22418700  0.28618700  1
  C  C33  1  0.99921600  0.78800100  0.29493500  1
  C  C34  1  0.04939000  0.69361100  0.31669300  1
  C  C35  1  0.12819200  0.63847200  0.26390800  1
  C  C36  1  0.14628400  0.67076100  0.18571800  1
  C  C37  1  0.04170300  0.63462200  0.62607600  1
  C  C38  1  0.01875300  0.36252700  0.61370100  1
  C  C39  1  0.00707800  0.37441700  0.38281500  1
  C  C40  1  0.02995800  0.64599800  0.39495700  1
  C  C41  1  0.59722100  0.42864600  0.48281600  1
  C  C42  1  0.59531100  0.59378800  0.51633900  1
  C  C43  1  0.44625300  0.58399100  0.52513100  1
  C  C44  1  0.45780000  0.41914900  0.49256200  1
  C  C45  1  0.44968900  0.31097600  0.47341200  1
  C  C46  1  0.61668100  0.32163300  0.46284500  1
  C  C47  1  0.90429700  0.84082800  0.34766900  1
  C  C48  1  0.94781700  0.85890900  0.42968400  1
  C  C49  1  0.85689000  0.90820200  0.47885700  1
  C  C50  1  0.72196600  0.93876100  0.44649700  1
  C  C51  1  0.67795000  0.92029900  0.36480700  1
  C  C52  1  0.76892900  0.87144800  0.31544000  1
  N  N1  1  0.97205100  0.10533000  0.90748200  1
  N  N2  1  0.92992500  0.10308900  0.08727300  1
  N  N3  1  0.04415100  0.90626900  0.09920000  1
  N  N4  1  0.09085900  0.91000200  0.92000400  1
  N  N5  1  0.67249000  0.51464800  0.49391100  1
  N  N6  1  0.37614700  0.49455500  0.51489600  1
  O  O1  1  0.91162300  0.60895700  0.59265700  1
  O  O2  1  0.16019700  0.59692600  0.60020300  1
  O  O3  1  0.14945900  0.38984900  0.59492800  1
  O  O4  1  0.90005100  0.40195600  0.57996900  1
  O  O5  1  0.13722600  0.40010300  0.41612100  1
  O  O6  1  0.88833600  0.41184400  0.40875000  1
  O  O7  1  0.89927600  0.61898400  0.41382100  1
  O  O8  1  0.14857400  0.60700100  0.42897300  1
