# Generated by REPEAT Assigner based on pymatgen
data_DB0-m2_o5_o11_f0_nbo.sym.17_sqe
_audit_creation_date              2022-05-24
_audit_creation_method            REPEAT_Assigner
_cell_length_a                    28.992864
_cell_length_b                    18.414893
_cell_length_c                    18.456153
_cell_angle_alpha                 90.000000
_cell_angle_beta                  130.631716
_cell_angle_gamma                 90.000000
_cell_volume                      7478.118085
_symmetry_space_group_name_H-M    P1
_symmetry_Int_Tables_number       1
loop_
    _symmetry_equiv_pos_site_id
    _symmetry_equiv_pos_as_xyz
    1  x,y,z
loop_
    _atom_site_type_symbol
    _atom_site_label
    _atom_site_fract_x
    _atom_site_fract_y
    _atom_site_fract_z
    _atom_type_partial_charge
    O   O1    0.496381  0.939488  0.390208  -0.610359
    O   O2    0.510514  0.064685  0.614635  -0.571855
    O   O3    0.509631  0.939404  0.614200  -0.600984
    O   O4    0.492329  0.064320  0.386548  -0.579596
    O   O5    0.996381  0.439488  0.390208  -0.610400
    O   O6    0.010514  0.564685  0.614635  -0.571844
    O   O7    0.009631  0.439404  0.614200  -0.601020
    O   O8    0.992329  0.564320  0.386548  -0.579582
    C   C1    0.489912  0.002150  0.349957  0.768655
    C   C2    0.509254  0.002499  0.647751  0.836682
    C   C3    0.989912  0.502151  0.349957  0.768671
    C   C4    0.009254  0.502499  0.647751  0.836694
    O   O9    0.588811  0.940798  0.584608  -0.523500
    O   O10   0.411497  0.062491  0.422619  -0.590481
    O   O11   0.413039  0.937715  0.420898  -0.551296
    O   O12   0.587359  0.065764  0.580297  -0.577683
    O   O13   0.088811  0.440798  0.584608  -0.523536
    O   O14   0.911497  0.562491  0.422619  -0.590480
    O   O15   0.913039  0.437715  0.420898  -0.551321
    O   O16   0.087359  0.565764  0.580297  -0.577673
    C   C5    0.615471  0.003098  0.600909  0.650728
    C   C6    0.383955  0.999091  0.395720  0.601428
    C   C7    0.115471  0.503098  0.600909  0.650751
    C   C8    0.883955  0.499091  0.395720  0.601453
    Cu  Cu1   0.500883  0.929466  0.500216  0.985615
    Cu  Cu2   0.499061  0.074113  0.498449  0.997078
    Cu  Cu3   0.000883  0.429466  0.500216  0.985537
    Cu  Cu4   0.999061  0.574113  0.498449  0.997172
    C   C9    0.781303  0.033462  0.811468  0.090328
    C   C10   0.218302  0.031931  0.187267  0.079754
    C   C11   0.281303  0.533462  0.811468  0.090329
    C   C12   0.718302  0.531931  0.187267  0.079753
    C   C13   0.818757  0.038159  0.793290  -0.371771
    C   C14   0.181080  0.036082  0.205912  -0.349644
    C   C15   0.318757  0.538159  0.793290  -0.371769
    C   C16   0.681080  0.536082  0.205912  -0.349644
    H   H1    0.799349  0.025362  0.883938  0.106109
    H   H2    0.200157  0.025246  0.114550  0.108171
    H   H3    0.299349  0.525362  0.883938  0.106109
    H   H4    0.700157  0.525246  0.114550  0.108169
    H   H5    0.801876  0.053148  0.723118  0.210866
    H   H6    0.198446  0.049535  0.276826  0.204195
    H   H7    0.301876  0.553148  0.723118  0.210866
    H   H8    0.698446  0.549535  0.276826  0.204194
    C   C17   0.715207  0.042128  0.736441  -0.180566
    C   C18   0.284375  0.039736  0.262611  -0.183854
    C   C19   0.215207  0.542128  0.736441  -0.180571
    C   C20   0.784375  0.539736  0.262611  -0.183849
    C   C21   0.681307  0.001433  0.657253  -0.141671
    C   C22   0.317981  0.995766  0.338556  -0.099148
    C   C23   0.181307  0.501433  0.657253  -0.141674
    C   C24   0.817981  0.495766  0.338556  -0.099169
    H   H9    0.692063  0.073161  0.754336  0.150892
    H   H10   0.307651  0.073760  0.247361  0.146851
    H   H11   0.192063  0.573161  0.754336  0.150894
    H   H12   0.807651  0.573760  0.247361  0.146851
    C   C25   0.489942  0.004876  0.271579  -0.126005
    C   C26   0.510186  0.005179  0.727118  -0.188331
    C   C27   0.989942  0.504876  0.271579  -0.125994
    C   C28   0.010186  0.505179  0.727118  -0.188284
    C   C29   0.491484  0.010717  0.207719  -0.120571
    C   C30   0.508974  0.010932  0.791342  -0.081669
    C   C31   0.991484  0.510717  0.207719  -0.120593
    C   C32   0.008974  0.510932  0.791342  -0.081757
    O   O17   0.992023  0.128786  0.053524  -0.592292
    O   O18   0.006396  0.917667  0.944393  -0.594930
    O   O19   0.008359  0.128778  0.946337  -0.591109
    O   O20   0.992710  0.917655  0.053955  -0.594991
    O   O21   0.492023  0.628786  0.053524  -0.592295
    O   O22   0.506396  0.417667  0.944393  -0.594951
    O   O23   0.508359  0.628778  0.946337  -0.591119
    O   O24   0.492710  0.417655  0.053955  -0.594995
    C   C33   0.000326  0.162294  0.000084  0.868416
    C   C34   0.999515  0.883561  0.999121  0.762499
    C   C35   0.500326  0.662294  0.000084  0.868412
    C   C36   0.499515  0.383561  0.999121  0.762494
    O   O25   0.906856  0.026044  0.957180  -0.567768
    O   O26   0.092882  0.025290  0.041938  -0.565928
    O   O27   0.406856  0.526044  0.957180  -0.567759
    O   O28   0.592882  0.525290  0.041938  -0.565942
    O   O29   0.917015  0.027721  0.843036  -0.599836
    O   O30   0.082737  0.026914  0.156107  -0.595382
    O   O31   0.417015  0.527721  0.843036  -0.599848
    O   O32   0.582737  0.526914  0.156107  -0.595373
    C   C37   0.883911  0.027147  0.868186  0.697149
    C   C38   0.115826  0.026071  0.130935  0.683574
    C   C39   0.383911  0.527147  0.868186  0.697147
    C   C40   0.615826  0.526071  0.130935  0.683577
    Cu  Cu5   0.994075  0.023257  0.065484  0.998851
    Cu  Cu6   0.005652  0.023284  0.933616  0.998833
    Cu  Cu7   0.494075  0.523257  0.065484  0.998906
    Cu  Cu8   0.505652  0.523284  0.933616  0.998790
    O   O33   0.552235  0.127297  0.058789  -0.560850
    O   O34   0.448204  0.915881  0.939989  -0.577149
    O   O35   0.447815  0.127014  0.939934  -0.560039
    O   O36   0.552662  0.916157  0.059525  -0.577881
    O   O37   0.052235  0.627297  0.058789  -0.560872
    O   O38   0.948204  0.415882  0.939989  -0.577132
    O   O39   0.947815  0.627014  0.939934  -0.560007
    O   O40   0.052662  0.416157  0.059525  -0.577912
    C   C41   0.499952  0.161183  0.999330  0.765613
    C   C42   0.500486  0.882468  0.999866  0.670496
    C   C43   0.999952  0.661183  0.999330  0.765566
    C   C44   0.000486  0.382468  0.999866  0.670472
    O   O41   0.548265  0.024106  0.157186  -0.570541
    O   O42   0.452193  0.023874  0.841918  -0.573123
    O   O43   0.048265  0.524106  0.157186  -0.570572
    O   O44   0.952193  0.523874  0.841918  -0.573098
    O   O45   0.443840  0.023487  0.043949  -0.591577
    O   O46   0.556613  0.023818  0.955145  -0.583403
    O   O47   0.943840  0.523487  0.043949  -0.591549
    O   O48   0.056613  0.523818  0.955145  -0.583437
    C   C45   0.494626  0.017854  0.132865  0.758032
    C   C46   0.505853  0.017946  0.866243  0.740340
    C   C47   0.994626  0.517854  0.132865  0.758051
    C   C48   0.005853  0.517947  0.866243  0.740411
    Cu  Cu9   0.560716  0.021702  0.065115  1.000299
    Cu  Cu10  0.439743  0.021376  0.933988  1.004830
    Cu  Cu11  0.060716  0.521702  0.065115  1.000165
    Cu  Cu12  0.939743  0.521376  0.933988  1.004975
    C   C49   0.000498  0.239789  0.000225  -0.238389
    C   C50   0.999609  0.805215  0.999182  -0.100547
    C   C51   0.500498  0.739789  0.000224  -0.238378
    C   C52   0.499609  0.305215  0.999182  -0.100521
    C   C53   0.500563  0.804972  0.000146  -0.011419
    C   C54   0.499765  0.239528  0.999256  -0.150293
    C   C55   0.000563  0.304972  0.000146  -0.011398
    C   C56   0.999765  0.739528  0.999256  -0.150254
    C   C57   0.709664  0.946786  0.634800  0.270259
    C   C58   0.664570  0.900323  0.546830  -0.319503
    H   H13   0.644580  0.858039  0.561853  0.086720
    H   H14   0.628883  0.934519  0.485062  0.098617
    H   H15   0.689436  0.872070  0.528263  0.056034
    H   H16   0.735437  0.975941  0.618907  -0.010005
    H   H17   0.740591  0.910127  0.696683  0.000065
    C   C59   0.288640  0.937697  0.355489  0.290989
    C   C60   0.332319  0.889338  0.441994  -0.292358
    H   H18   0.353286  0.848494  0.427082  0.083415
    H   H19   0.367237  0.922360  0.505913  0.078521
    H   H20   0.306060  0.859358  0.456785  0.049942
    H   H21   0.260981  0.963952  0.369615  -0.015181
    H   H22   0.259088  0.902579  0.291442  -0.017365
    C   C61   0.209664  0.446786  0.634800  0.270256
    C   C62   0.164569  0.400323  0.546830  -0.319508
    H   H23   0.144580  0.358039  0.561853  0.086732
    H   H24   0.128883  0.434519  0.485062  0.098621
    H   H25   0.189436  0.372070  0.528263  0.056026
    H   H26   0.235437  0.475941  0.618907  -0.010006
    H   H27   0.240591  0.410127  0.696683  0.000067
    C   C63   0.788640  0.437698  0.355489  0.291009
    C   C64   0.832319  0.389338  0.441994  -0.292365
    H   H28   0.853286  0.348494  0.427082  0.083416
    H   H29   0.867237  0.422360  0.505913  0.078521
    H   H30   0.806060  0.359359  0.456785  0.049946
    H   H31   0.760981  0.463952  0.369616  -0.015184
    H   H32   0.759088  0.402580  0.291443  -0.017369
