# generated using pymatgen
data_ZnH15C28NO4
_symmetry_space_group_name_H-M   'P 1'
_cell_length_a   17.54869600
_cell_length_b   8.54939000
_cell_length_c   13.45930300
_cell_angle_alpha   90.00000000
_cell_angle_beta   90.98730800
_cell_angle_gamma   90.00000000
_symmetry_Int_Tables_number   1
_chemical_formula_structural   ZnH15C28NO4
_chemical_formula_sum   'Zn2 H30 C56 N2 O8'
_cell_volume   2019.00813183
_cell_formula_units_Z   2
loop_
 _symmetry_equiv_pos_site_id
 _symmetry_equiv_pos_as_xyz
  1  'x, y, z'
loop_
 _atom_site_type_symbol
 _atom_site_label
 _atom_site_symmetry_multiplicity
 _atom_site_fract_x
 _atom_site_fract_y
 _atom_site_fract_z
 _atom_site_occupancy
  Zn  Zn1  1  0.91534600  0.50881400  0.50709400  1
  Zn  Zn2  1  0.08465400  0.50881400  0.49290600  1
  H  H1  1  0.99711100  0.25872500  0.83701800  1
  H  H2  1  0.00284000  0.75886400  0.16301400  1
  H  H3  1  0.00288800  0.25872500  0.16298300  1
  H  H4  1  0.99716000  0.75886400  0.83698600  1
  H  H5  1  0.03055500  0.00885200  0.56905900  1
  H  H6  1  0.96944500  0.00885200  0.43094100  1
  H  H7  1  0.30581100  0.49034200  0.73620100  1
  H  H8  1  0.69418900  0.49034200  0.26379900  1
  H  H9  1  0.43954600  0.48931100  0.74730500  1
  H  H10  1  0.56045400  0.48931100  0.25269500  1
  H  H11  1  0.55319400  0.52244000  0.75233200  1
  H  H12  1  0.44680600  0.52244000  0.24766800  1
  H  H13  1  0.80903400  0.49815100  0.35677900  1
  H  H14  1  0.19096600  0.49815100  0.64322100  1
  H  H15  1  0.81014500  0.52543500  0.66637600  1
  H  H16  1  0.18985500  0.52543500  0.33362400  1
  H  H17  1  0.63893400  0.71289500  0.83468100  1
  H  H18  1  0.69870800  0.70273100  0.00013800  1
  H  H19  1  0.78097600  0.58722100  0.11628500  1
  H  H20  1  0.86253600  0.49287200  0.06211100  1
  H  H21  1  0.78407500  0.37637100  0.10645600  1
  H  H22  1  0.81773800  0.28819100  0.91875700  1
  H  H23  1  0.75714500  0.29800000  0.75307700  1
  H  H24  1  0.36106600  0.71289500  0.16532000  1
  H  H25  1  0.30129200  0.70273100  0.99986300  1
  H  H26  1  0.21902400  0.58722100  0.88371600  1
  H  H27  1  0.13746400  0.49287200  0.93789000  1
  H  H28  1  0.21592500  0.37637100  0.89354400  1
  H  H29  1  0.18226200  0.28819100  0.08124300  1
  H  H30  1  0.24285400  0.29800000  0.24692400  1
  C  C1  1  0.01087700  0.14850300  0.69587700  1
  C  C2  1  0.98909300  0.86914400  0.30414100  1
  C  C3  1  0.98912300  0.14850300  0.30412400  1
  C  C4  1  0.01090600  0.86914400  0.69586000  1
  C  C5  1  0.00183000  0.14922700  0.79743700  1
  C  C6  1  0.99813800  0.86838000  0.20258000  1
  C  C7  1  0.99817000  0.14922700  0.20256400  1
  C  C8  1  0.00186200  0.86838000  0.79742000  1
  C  C9  1  0.00106100  0.00879500  0.84864000  1
  C  C10  1  0.99893900  0.00879500  0.15136100  1
  C  C11  1  0.02015200  0.00883500  0.64736000  1
  C  C12  1  0.97984800  0.00883500  0.35264000  1
  C  C13  1  0.99996400  0.00878100  0.95523100  1
  C  C14  1  0.00003600  0.00878100  0.04476900  1
  C  C15  1  0.00706100  0.72707400  0.63570700  1
  C  C16  1  0.99295400  0.29059600  0.36425600  1
  C  C17  1  0.99293800  0.72707400  0.36429300  1
  C  C18  1  0.00704600  0.29059600  0.63574500  1
  C  C19  1  0.77746200  0.51385200  0.59827800  1
  C  C20  1  0.22253800  0.51385200  0.40172200  1
  C  C21  1  0.77763900  0.50169000  0.42510100  1
  C  C22  1  0.22236000  0.50169000  0.57489900  1
  C  C23  1  0.65854700  0.50583500  0.50791900  1
  C  C24  1  0.34145300  0.50583500  0.49208100  1
  C  C25  1  0.69818900  0.50901700  0.59750800  1
  C  C26  1  0.30181100  0.50901700  0.40249300  1
  C  C27  1  0.65794800  0.51286600  0.68464700  1
  C  C28  1  0.34205200  0.51286600  0.31535400  1
  C  C29  1  0.69931500  0.50158600  0.42175600  1
  C  C30  1  0.30068500  0.50158600  0.57824500  1
  C  C31  1  0.45892800  0.50542600  0.58768000  1
  C  C32  1  0.54107100  0.50542600  0.41232000  1
  C  C33  1  0.46124200  0.51011000  0.40847000  1
  C  C34  1  0.53875800  0.51011000  0.59153100  1
  C  C35  1  0.42080700  0.50705700  0.49606300  1
  C  C36  1  0.57919200  0.50705700  0.50393800  1
  C  C37  1  0.41582800  0.49743800  0.67359100  1
  C  C38  1  0.58417200  0.49743800  0.32641000  1
  C  C39  1  0.33779600  0.49609400  0.66838700  1
  C  C40  1  0.66220400  0.49609400  0.33161300  1
  C  C41  1  0.57958100  0.51663300  0.68128300  1
  C  C42  1  0.42041800  0.51663300  0.31871800  1
  C  C43  1  0.69589000  0.50870200  0.78236900  1
  C  C44  1  0.67843500  0.61974700  0.85283600  1
  C  C45  1  0.71222900  0.61395600  0.94603900  1
  C  C46  1  0.76277000  0.49532900  0.96965900  1
  C  C47  1  0.79977300  0.48777100  0.06988400  1
  C  C48  1  0.77882700  0.38214700  0.90010400  1
  C  C49  1  0.74513200  0.38820700  0.80688300  1
  C  C50  1  0.30411000  0.50870200  0.21763100  1
  C  C51  1  0.32156500  0.61974700  0.14716400  1
  C  C52  1  0.28777100  0.61395600  0.05396200  1
  C  C53  1  0.23722900  0.49532900  0.03034200  1
  C  C54  1  0.20022700  0.48777100  0.93011600  1
  C  C55  1  0.22117300  0.38214700  0.09989700  1
  C  C56  1  0.25486800  0.38820700  0.19311800  1
  N  N1  1  0.81552900  0.50868900  0.51249400  1
  N  N2  1  0.18447100  0.50868900  0.48750700  1
  O  O1  1  0.07010300  0.67791900  0.59513400  1
  O  O2  1  0.92996200  0.33958900  0.40496100  1
  O  O3  1  0.92989700  0.67791900  0.40486700  1
  O  O4  1  0.07003700  0.33958900  0.59503900  1
  O  O5  1  0.93938800  0.67226100  0.61103400  1
  O  O6  1  0.06058700  0.34555700  0.38885900  1
  O  O7  1  0.06061100  0.67226100  0.38896700  1
  O  O8  1  0.93941200  0.34555700  0.61114200  1
