# Generated by REPEAT Assigner based on pymatgen
data_DB0-m3_o46_o23_f0_fsc.sym.93_sqe
_audit_creation_date              2022-05-24
_audit_creation_method            REPEAT_Assigner
_cell_length_a                    8.543801
_cell_length_b                    8.729620
_cell_length_c                    14.168316
_cell_angle_alpha                 90.382223
_cell_angle_beta                  92.915205
_cell_angle_gamma                 82.878820
_cell_volume                      1047.223151
_symmetry_space_group_name_H-M    P1
_symmetry_Int_Tables_number       1
loop_
    _symmetry_equiv_pos_site_id
    _symmetry_equiv_pos_as_xyz
    1  x,y,z
loop_
    _atom_site_type_symbol
    _atom_site_label
    _atom_site_fract_x
    _atom_site_fract_y
    _atom_site_fract_z
    _atom_type_partial_charge
    C   C1   0.097189  0.801871  0.973804  -0.283141
    C   C2   0.966995  0.724936  0.960960  -0.112064
    H   H1   0.982770  0.602233  0.948171  0.130716
    C   C3   0.818267  0.798876  0.974737  -0.026137
    C   C4   0.795432  0.954288  0.993739  -0.337511
    H   H2   0.677730  0.009444  0.005596  0.143522
    C   C5   0.923483  0.036211  0.000319  0.226249
    C   C6   0.075370  0.959079  0.992490  0.244352
    H   H3   0.321123  0.985846  0.987210  0.139810
    C   C7   0.203422  0.041002  0.999070  -0.342971
    C   C8   0.180588  0.196412  0.018078  -0.028724
    H   H4   0.016084  0.393053  0.044649  0.122247
    C   C9   0.031858  0.270351  0.031857  -0.111359
    C   C10  0.901663  0.193417  0.019011  -0.267811
    O   O1   0.305313  0.636671  0.903973  -0.765168
    O   O2   0.319379  0.678130  0.064996  -0.726472
    C   C11  0.252908  0.708032  0.980287  0.971622
    O   O3   0.354747  0.359846  0.087449  -0.748806
    O   O4   0.352705  0.318035  0.926290  -0.727413
    C   C12  0.308116  0.290016  0.011014  0.898498
    O   O5   0.693543  0.358621  0.088850  -0.766920
    O   O6   0.679476  0.317160  0.927817  -0.738651
    C   C13  0.745942  0.287257  0.012531  0.978592
    O   O7   0.644107  0.635445  0.905377  -0.737799
    O   O8   0.646148  0.677254  0.066519  -0.696232
    C   C14  0.690740  0.705275  0.981804  0.860902
    Zn  Zn1  0.505032  0.519916  0.100888  1.068803
    Zn  Zn2  0.493822  0.475378  0.891930  1.108631
    C   C15  0.609862  0.622590  0.458980  0.100749
    C   C16  0.565472  0.350973  0.435375  0.044969
    C   C17  0.541009  0.326842  0.539115  -0.337689
    H   H5   0.735119  0.533591  0.586727  0.046956
    H   H6   0.730966  0.597456  0.433481  0.046563
    H   H7   0.500807  0.270255  0.392338  0.034880
    H   H8   0.693122  0.327636  0.422377  0.006458
    H   H9   0.651893  0.269492  0.573962  0.098772
    H   H10  0.445549  0.253076  0.546315  0.067290
    N   N1   0.487287  0.455484  0.768503  -0.000024
    C   C18  0.504733  0.516393  0.408319  0.272652
    C   C19  0.615546  0.589618  0.564191  -0.229840
    C   C20  0.494808  0.482085  0.584759  0.738522
    C   C21  0.333771  0.550315  0.544446  -0.238117
    C   C22  0.335597  0.551036  0.437617  0.076708
    C   C23  0.489695  0.464263  0.687148  -0.229686
    C   C24  0.509417  0.532252  0.305729  -0.185765
    N   N2   0.511575  0.539852  0.224312  0.026425
    H   H11  0.280177  0.663921  0.409166  -0.008443
    H   H12  0.266775  0.460024  0.408894  0.013884
    H   H13  0.305329  0.669658  0.571123  0.055727
    H   H14  0.590389  0.698584  0.604356  0.035605
    H   H15  0.242641  0.479670  0.566447  0.061986
    C   C25  0.552218  0.792080  0.439892  0.322210
    O   O9   0.667120  0.881644  0.473867  -0.603990
    H   H16  0.441519  0.828128  0.475849  -0.031008
    H   H17  0.530794  0.812405  0.362920  -0.026183
    H   H18  0.608327  0.964951  0.510410  0.363623
