# Generated by REPEAT Assigner based on pymatgen
data_DB0-m2_o18_o89_f0_fsc
_audit_creation_date              2022-05-24
_audit_creation_method            REPEAT_Assigner
_cell_length_a                    6.551992
_cell_length_b                    13.603242
_cell_length_c                    13.324007
_cell_angle_alpha                 77.914640
_cell_angle_beta                  100.518317
_cell_angle_gamma                 97.731623
_cell_volume                      1135.970582
_symmetry_space_group_name_H-M    P1
_symmetry_Int_Tables_number       1
loop_
    _symmetry_equiv_pos_site_id
    _symmetry_equiv_pos_as_xyz
    1  x,y,z
loop_
    _atom_site_type_symbol
    _atom_site_label
    _atom_site_fract_x
    _atom_site_fract_y
    _atom_site_fract_z
    _atom_type_partial_charge
    O   O1   0.138045  0.929347  0.895105  -0.649030
    O   O2   0.861969  0.070648  0.104906  -0.649065
    O   O3   0.211304  0.098359  0.892835  -0.651014
    O   O4   0.788710  0.901637  0.107176  -0.651077
    C   C1   0.232944  0.016997  0.858801  0.745071
    C   C2   0.767070  0.982999  0.141211  0.745125
    O   O5   0.726700  0.939426  0.892654  -0.664687
    O   O6   0.273315  0.060569  0.107358  -0.664732
    O   O7   0.795863  0.109363  0.884866  -0.719881
    O   O8   0.204151  0.890633  0.115146  -0.719838
    C   C3   0.681748  0.032019  0.851320  0.866029
    C   C4   0.318267  0.967976  0.148691  0.865964
    Cu  Cu1  0.962281  0.902150  0.002239  0.988202
    Cu  Cu2  0.037733  0.097845  0.997773  0.988244
    N   N1   0.081377  0.237245  0.001717  0.038941
    N   N2   0.918638  0.762751  0.998295  0.038814
    C   C5   0.962532  0.371228  0.054709  -0.352379
    C   C6   0.037482  0.628768  0.945302  -0.352482
    C   C7   0.931831  0.274895  0.034947  0.053130
    C   C8   0.068183  0.725101  0.965064  0.053279
    C   C9   0.262226  0.293115  0.985351  -0.244375
    C   C10  0.737788  0.706881  0.014660  -0.244313
    C   C11  0.298314  0.391542  0.003349  0.095360
    C   C12  0.701700  0.608453  0.996663  0.095343
    C   C13  0.146633  0.429309  0.039672  0.276855
    C   C14  0.853381  0.570686  0.960339  0.276894
    C   C15  0.484093  0.451654  0.988495  -0.012723
    C   C16  0.515921  0.548342  0.011516  -0.012766
    C   C17  0.362019  0.583453  0.049565  -0.086897
    C   C18  0.637995  0.416543  0.950446  -0.086943
    C   C19  0.178748  0.524194  0.063143  -0.332872
    C   C20  0.821266  0.475802  0.936868  -0.332874
    H   H1   0.059834  0.552176  0.093127  0.189836
    H   H2   0.940180  0.447820  0.906884  0.189830
    H   H3   0.621724  0.742300  0.037972  0.183981
    H   H4   0.378290  0.257695  0.962039  0.183997
    H   H5   0.209961  0.772245  0.950000  0.121949
    H   H6   0.790053  0.227750  0.050011  0.121999
    H   H7   0.844583  0.400230  0.084446  0.184980
    H   H8   0.155431  0.599766  0.915565  0.185017
    H   H9   0.379980  0.656652  0.070346  0.128046
    H   H10  0.620034  0.343344  0.929665  0.128067
    C   C21  0.587368  0.065013  0.660656  -0.035723
    C   C22  0.412646  0.934982  0.339356  -0.035611
    H   H11  0.751683  0.079734  0.655253  0.148293
    H   H12  0.248332  0.920261  0.344758  0.148228
    C   C23  0.443002  0.058858  0.571633  -0.370037
    C   C24  0.557013  0.941138  0.428379  -0.369991
    H   H13  0.494837  0.072422  0.496980  0.165386
    H   H14  0.505177  0.927574  0.503031  0.165361
    C   C25  0.234607  0.030955  0.578498  0.436237
    C   C26  0.765407  0.969040  0.421514  0.435936
    C   C27  0.170682  0.017223  0.673716  -0.147483
    C   C28  0.829332  0.982772  0.326295  -0.147437
    H   H15  0.007106  0.998265  0.679505  0.066573
    H   H16  0.992908  0.001731  0.320506  0.066742
    C   C29  0.313460  0.027825  0.762039  -0.045993
    C   C30  0.686554  0.972171  0.237972  -0.045942
    C   C31  0.524170  0.047591  0.756936  -0.156358
    C   C32  0.475845  0.952405  0.243075  -0.156420
    N   N3   0.088860  0.015531  0.489184  -0.219542
    N   N4   0.911154  0.984465  0.510827  -0.219225
