# generated using pymatgen
data_ZnH15C28NO4
_symmetry_space_group_name_H-M   'P 1'
_cell_length_a   14.09355100
_cell_length_b   14.84469100
_cell_length_c   16.02271100
_cell_angle_alpha   93.96627800
_cell_angle_beta   91.39935100
_cell_angle_gamma   98.74648600
_symmetry_Int_Tables_number   1
_chemical_formula_structural   ZnH15C28NO4
_chemical_formula_sum   'Zn2 H30 C56 N2 O8'
_cell_volume   3303.18787604
_cell_formula_units_Z   2
loop_
 _symmetry_equiv_pos_site_id
 _symmetry_equiv_pos_as_xyz
  1  'x, y, z'
loop_
 _atom_site_type_symbol
 _atom_site_label
 _atom_site_symmetry_multiplicity
 _atom_site_fract_x
 _atom_site_fract_y
 _atom_site_fract_z
 _atom_site_occupancy
  Zn  Zn1  1  0.51739000  0.59788600  0.47444300  1
  Zn  Zn2  1  0.46917800  0.39983200  0.51690900  1
  H  H1  1  0.00200400  0.59636300  0.46842100  1
  H  H2  1  0.98456500  0.40132000  0.52284700  1
  H  H3  1  0.55041000  0.74082600  0.01359300  1
  H  H4  1  0.43896500  0.25665900  0.97780500  1
  H  H5  1  0.50470600  0.54968700  0.21005300  1
  H  H6  1  0.48092600  0.44805900  0.78127300  1
  H  H7  1  0.44250900  0.27298800  0.26610400  1
  H  H8  1  0.54540000  0.72462300  0.72528500  1
  H  H9  1  0.55710800  0.77287300  0.87306100  1
  H  H10  1  0.43171700  0.22466300  0.11835100  1
  H  H11  1  0.52763600  0.64027300  0.12011000  1
  H  H12  1  0.46175700  0.35721700  0.87128500  1
  H  H13  1  0.45581900  0.76932000  0.53157900  1
  H  H14  1  0.52922500  0.22844000  0.45843700  1
  H  H15  1  0.64369400  0.69484900  0.35342700  1
  H  H16  1  0.33910700  0.30184200  0.63495900  1
  H  H17  1  0.30208900  0.14782400  0.67511600  1
  H  H18  1  0.68452400  0.84950000  0.31600300  1
  H  H19  1  0.40972700  0.87260900  0.60172900  1
  H  H20  1  0.60105200  0.13032600  0.40807900  1
  H  H21  1  0.21731100  0.89165600  0.60985700  1
  H  H22  1  0.11724100  0.84634300  0.72782500  1
  H  H23  1  0.16678100  0.90913800  0.87100800  1
  H  H24  1  0.31735300  0.01653000  0.89630400  1
  H  H25  1  0.41798900  0.06164200  0.77859900  1
  H  H26  1  0.59204600  0.06386100  0.24156500  1
  H  H27  1  0.71407500  0.11403600  0.14079800  1
  H  H28  1  0.88372400  0.10261400  0.17029100  1
  H  H29  1  0.93148900  0.04198200  0.30133100  1
  H  H30  1  0.80977200  0.99216000  0.40253900  1
  C  C1  1  0.50532600  0.55223900  0.65546200  1
  C  C2  1  0.48119900  0.44547800  0.33589500  1
  C  C3  1  0.31055400  0.51256400  0.49181700  1
  C  C4  1  0.67601900  0.48513400  0.49947900  1
  C  C5  1  0.77634600  0.47763000  0.50156200  1
  C  C6  1  0.21022600  0.52006200  0.48971900  1
  C  C7  1  0.96116000  0.46390900  0.50538100  1
  C  C8  1  0.02540900  0.53377400  0.48588600  1
  C  C9  1  0.12596700  0.52632900  0.48796600  1
  C  C10  1  0.86060300  0.47135800  0.50330600  1
  C  C11  1  0.51225600  0.58186500  0.74513800  1
  C  C12  1  0.47468300  0.41580900  0.24622600  1
  C  C13  1  0.54028600  0.70080500  0.85397900  1
  C  C14  1  0.44799600  0.29676800  0.13741400  1
  C  C15  1  0.53366100  0.67343700  0.77026200  1
  C  C16  1  0.45407300  0.32418300  0.22112200  1
  C  C17  1  0.49754500  0.51816500  0.80464400  1
  C  C18  1  0.48922300  0.47950800  0.18670900  1
  C  C19  1  0.50425100  0.54496600  0.89031000  1
  C  C20  1  0.48343000  0.45263700  0.10106000  1
  C  C21  1  0.52582600  0.63750900  0.91328600  1
  C  C22  1  0.46239600  0.36005800  0.07809700  1
  C  C23  1  0.49019000  0.48268800  0.95335100  1
  C  C24  1  0.49778700  0.51489200  0.03802200  1
  C  C25  1  0.51977400  0.60876800  0.05754100  1
  C  C26  1  0.46883600  0.38877000  0.93384400  1
  C  C27  1  0.53341500  0.66843100  0.99600600  1
  C  C28  1  0.45538700  0.32909300  0.99538500  1
  C  C29  1  0.35471900  0.16133900  0.62800000  1
  C  C30  1  0.63545300  0.83692500  0.36599500  1
  C  C31  1  0.37435700  0.24917700  0.60486700  1
  C  C32  1  0.61195300  0.74832400  0.38622200  1
  C  C33  1  0.48152100  0.20539300  0.50630000  1
  C  C34  1  0.50743700  0.79293300  0.48680600  1
  C  C35  1  0.46492900  0.11465200  0.52799200  1
  C  C36  1  0.53002400  0.88486500  0.46971800  1
  C  C37  1  0.40133800  0.09379200  0.59114800  1
  C  C38  1  0.59592200  0.90612400  0.40839500  1
  C  C39  1  0.50964000  0.04493700  0.48843900  1
  C  C40  1  0.48796700  0.95517400  0.51129900  1
  C  C41  1  0.42581400  0.93796000  0.57640400  1
  C  C42  1  0.57667200  0.06316100  0.42713200  1
  C  C43  1  0.38396000  0.00574600  0.61624100  1
  C  C44  1  0.62023400  0.99571200  0.38874300  1
  C  C45  1  0.32295500  0.98109400  0.68645900  1
  C  C46  1  0.23929300  0.91953200  0.67267800  1
  C  C47  1  0.18306500  0.89405500  0.73886900  1
  C  C48  1  0.21084000  0.92922100  0.81913600  1
  C  C49  1  0.29516600  0.98950300  0.83329300  1
  C  C50  1  0.35144200  0.01503800  0.76715700  1
  C  C51  1  0.69283200  0.02296000  0.32763400  1
  C  C52  1  0.66651500  0.05857800  0.25471900  1
  C  C53  1  0.73497400  0.08676700  0.19811200  1
  C  C54  1  0.83007400  0.08040300  0.21464900  1
  C  C55  1  0.85682000  0.04630600  0.28804700  1
  C  C56  1  0.78842700  0.01807700  0.34469100  1
  N  N1  1  0.43754900  0.26985300  0.54542700  1
  N  N2  1  0.54922100  0.72789900  0.44607400  1
  O  O1  1  0.52076800  0.61466900  0.60111900  1
  O  O2  1  0.46575700  0.38300000  0.39023300  1
  O  O3  1  0.48421200  0.46458100  0.63313400  1
  O  O4  1  0.50232300  0.53318000  0.35819700  1
  O  O5  1  0.37227800  0.58453800  0.47673900  1
  O  O6  1  0.61428600  0.41321900  0.51456100  1
  O  O7  1  0.33566900  0.43409300  0.50871600  1
  O  O8  1  0.65086900  0.56355700  0.48259900  1
