# Generated by REPEAT Assigner based on pymatgen
data_DB0-m2_o16_o16_f0_pcu.sym.14
_audit_creation_date              2022-05-24
_audit_creation_method            REPEAT_Assigner
_cell_length_a                    20.280261
_cell_length_b                    19.182955
_cell_length_c                    12.218535
_cell_angle_alpha                 90.000000
_cell_angle_beta                  130.043613
_cell_angle_gamma                 90.000000
_cell_volume                      3639.020910
_symmetry_space_group_name_H-M    P1
_symmetry_Int_Tables_number       1
loop_
    _symmetry_equiv_pos_site_id
    _symmetry_equiv_pos_as_xyz
    1  x,y,z
loop_
    _atom_site_type_symbol
    _atom_site_label
    _atom_site_fract_x
    _atom_site_fract_y
    _atom_site_fract_z
    _atom_type_partial_charge
    O   O1   0.612408  0.929612  0.568146  -0.604698
    O   O2   0.612410  0.069748  0.567328  -0.605423
    O   O3   0.108884  0.426575  0.561783  -0.592312
    O   O4   0.112264  0.569815  0.567186  -0.624556
    O   O5   0.568321  0.926975  0.699684  -0.515077
    O   O6   0.567562  0.073971  0.697599  -0.522251
    O   O7   0.068636  0.426589  0.698964  -0.528590
    O   O8   0.068109  0.573631  0.698387  -0.517804
    C   C1   0.616858  0.903695  0.671913  0.692291
    C   C2   0.616310  0.096571  0.669997  0.702232
    C   C3   0.116335  0.403066  0.669861  0.697282
    C   C4   0.116657  0.596414  0.670561  0.684163
    Cu  Cu1  0.528576  0.999445  0.432334  0.885074
    Cu  Cu2  0.028695  0.500416  0.432052  0.859295
    Cu  Cu3  0.481623  0.000071  0.592679  0.731923
    Cu  Cu4  0.981968  0.499699  0.592747  0.751750
    O   O9   0.441860  0.072723  0.324662  -0.604886
    O   O10  0.442052  0.926229  0.325697  -0.593709
    O   O11  0.938315  0.569947  0.319732  -0.583380
    O   O12  0.941823  0.426531  0.324593  -0.583301
    O   O13  0.396917  0.069517  0.456091  -0.575030
    O   O14  0.397671  0.929898  0.458074  -0.570038
    O   O15  0.897462  0.569540  0.457172  -0.578648
    O   O16  0.897809  0.429958  0.457577  -0.577793
    C   C5   0.391164  0.093620  0.349824  0.728809
    C   C6   0.391911  0.905305  0.351940  0.709240
    C   C7   0.891096  0.593597  0.350195  0.713128
    C   C8   0.891828  0.405572  0.351091  0.736035
    C   C9   0.681083  0.314207  0.135545  0.275181
    C   C10  0.680295  0.685448  0.136365  0.268509
    C   C11  0.180929  0.814165  0.137636  0.276210
    C   C12  0.180426  0.184862  0.134634  0.272946
    H   H1   0.248254  0.883515  0.314669  0.147614
    H   H2   0.247022  0.116423  0.311840  0.143355
    H   H3   0.747529  0.383226  0.312084  0.141514
    H   H4   0.746426  0.615813  0.312132  0.145546
    H   H5   0.550200  0.246852  0.914714  0.133395
    H   H6   0.549601  0.754541  0.915124  0.130911
    H   H7   0.049956  0.745256  0.916338  0.132065
    H   H8   0.049765  0.252734  0.914364  0.132926
    C   C13  0.321838  0.856560  0.251363  -0.072293
    C   C14  0.321309  0.142285  0.248749  -0.090963
    C   C15  0.821866  0.356943  0.249748  -0.101034
    C   C16  0.820864  0.642140  0.249515  -0.083058
    C   C17  0.755587  0.148105  0.774340  -0.016286
    C   C18  0.755606  0.852222  0.776245  -0.023007
    C   C19  0.255741  0.647704  0.775581  -0.033646
    C   C20  0.253663  0.350285  0.770655  -0.023979
    C   C21  0.325700  0.688370  0.874139  -0.151234
    C   C22  0.323308  0.309055  0.867174  -0.145503
    C   C23  0.825604  0.188920  0.872057  -0.156209
    C   C24  0.825320  0.811296  0.873877  -0.152336
    C   C25  0.326303  0.729659  0.966418  -0.160899
    C   C26  0.324918  0.267791  0.960661  -0.165888
    C   C27  0.826698  0.230059  0.964910  -0.155375
    C   C28  0.826046  0.769542  0.965912  -0.161604
    C   C29  0.755155  0.234005  0.957305  0.027977
    C   C30  0.754586  0.765521  0.958297  0.041617
    C   C31  0.254713  0.733955  0.958314  0.041268
    C   C32  0.254051  0.264544  0.955152  0.037661
    C   C33  0.682132  0.194691  0.852840  0.259827
    C   C34  0.682116  0.805418  0.854406  0.247140
    C   C35  0.181805  0.694779  0.853330  0.235847
    C   C36  0.181535  0.304653  0.852064  0.255103
    C   C37  0.254416  0.775967  0.052866  0.051353
    C   C38  0.253786  0.222653  0.049901  0.041235
    C   C39  0.754734  0.276085  0.051466  0.052185
    C   C40  0.753985  0.723352  0.052361  0.042354
    C   C41  0.682100  0.276984  0.039821  0.015819
    C   C42  0.681469  0.722856  0.040973  0.020585
    C   C43  0.181836  0.776904  0.041512  0.014409
    C   C44  0.181416  0.222258  0.039020  0.022762
    C   C45  0.608750  0.242535  0.929790  -0.136343
    C   C46  0.608397  0.757796  0.930984  -0.133029
    C   C47  0.108468  0.742302  0.931150  -0.134408
    C   C48  0.108405  0.257364  0.929808  -0.142035
    C   C49  0.607709  0.203696  0.834809  -0.262735
    C   C50  0.607867  0.796760  0.836628  -0.260867
    C   C51  0.107486  0.703718  0.835849  -0.254820
    C   C52  0.107547  0.296500  0.835163  -0.256999
    C   C53  0.324070  0.817856  0.158233  -0.175296
    C   C54  0.323233  0.180580  0.154788  -0.164669
    C   C55  0.824201  0.318122  0.156737  -0.167152
    C   C56  0.823208  0.680997  0.156785  -0.163886
    C   C57  0.251074  0.853130  0.243250  -0.240241
    C   C58  0.250575  0.146155  0.240650  -0.228898
    C   C59  0.751012  0.353211  0.241212  -0.224104
    C   C60  0.750059  0.646057  0.241463  -0.228833
    C   C61  0.684078  0.148840  0.765238  -0.236217
    C   C62  0.684317  0.851507  0.767365  -0.223523
    C   C63  0.184094  0.648754  0.765961  -0.203247
    C   C64  0.183226  0.350304  0.764014  -0.228229
    H   H9   0.381693  0.822522  0.171585  0.110869
    H   H10  0.380181  0.175644  0.166848  0.112239
    H   H11  0.881633  0.322807  0.170154  0.108064
    H   H12  0.880524  0.676151  0.169813  0.103749
    H   H13  0.759055  0.113398  0.708845  0.091134
    H   H14  0.759963  0.887169  0.711625  0.093239
    H   H15  0.259536  0.612802  0.710321  0.098518
    H   H16  0.257275  0.384820  0.704700  0.089521
    H   H17  0.385062  0.757695  0.042870  0.141465
    H   H18  0.383667  0.239422  0.035934  0.141929
    H   H19  0.885714  0.257882  0.041355  0.142623
    H   H20  0.884849  0.741586  0.042682  0.142291
    H   H21  0.382511  0.686318  0.883479  0.126645
    H   H22  0.378628  0.311138  0.872802  0.125260
    H   H23  0.881872  0.186869  0.879917  0.126613
    H   H24  0.881588  0.814095  0.882087  0.126366
    H   H25  0.546145  0.183054  0.744863  0.139694
    H   H26  0.546633  0.818078  0.747429  0.138600
    H   H27  0.046063  0.682380  0.747183  0.135738
    H   H28  0.046249  0.317844  0.745515  0.139997
    C   C65  0.676347  0.997477  0.303675  -0.263923
    C   C66  0.176640  0.501264  0.304515  -0.271110
    H   H29  0.695198  0.997550  0.495685  0.185200
    H   H30  0.194006  0.503116  0.495541  0.180102
    H   H31  0.715903  0.000441  0.141097  0.145369
    H   H32  0.216124  0.499373  0.140679  0.144452
    H   H33  0.744570  0.996845  0.358992  0.127081
    H   H34  0.245074  0.503349  0.361215  0.129708
    N   N1   0.563866  0.999232  0.312103  -0.065387
    N   N2   0.063418  0.499305  0.311017  -0.055764
    C   C67  0.362045  0.999111  0.639576  -0.021034
    C   C68  0.862880  0.499917  0.640082  -0.025868
    C   C69  0.328881  0.997656  0.708064  -0.148816
    C   C70  0.829749  0.500419  0.708535  -0.149702
    C   C71  0.382745  0.997807  0.854498  -0.115016
    C   C72  0.883594  0.500550  0.854805  -0.110822
    C   C73  0.471555  0.998166  0.934198  0.030358
    C   C74  0.972266  0.500439  0.934456  0.023577
    C   C75  0.502937  0.999199  0.860137  0.225266
    C   C76  0.003407  0.500194  0.860426  0.232938
    C   C77  0.529900  0.998065  0.085155  -0.094052
    C   C78  0.030520  0.500620  0.085363  -0.083679
    C   C79  0.617373  0.998324  0.156962  0.328607
    C   C80  0.117953  0.500099  0.157536  0.322749
    C   C81  0.647390  0.999440  0.083873  -0.279258
    C   C82  0.147723  0.500021  0.083889  -0.274869
    C   C83  0.591319  0.999813  0.937941  -0.133200
    C   C84  0.091329  0.500634  0.937722  -0.133997
    C   C85  0.504581  0.998283  0.168057  0.004043
    C   C86  0.004608  0.501489  0.167127  -0.009543
    C   C87  0.648536  0.997878  0.380231  -0.066457
    C   C88  0.148161  0.501234  0.380071  -0.055683
    N   N3   0.447759  0.000760  0.714273  -0.115164
    N   N4   0.948392  0.499900  0.714679  -0.119587
    H   H35  0.438358  0.998330  0.122491  0.108938
    H   H36  0.938061  0.503843  0.119586  0.112492
    H   H37  0.318343  0.999334  0.524222  0.159102
    H   H38  0.819420  0.500542  0.524925  0.162829
    H   H39  0.352005  0.997482  0.900533  0.131683
    H   H40  0.852673  0.500412  0.900434  0.131630
    H   H41  0.259861  0.996870  0.646422  0.115333
    H   H42  0.760993  0.500813  0.647404  0.115548
    H   H43  0.620048  0.001302  0.889418  0.148008
    H   H44  0.119204  0.500603  0.887977  0.144637
    F   F1   0.610384  0.313555  0.125059  -0.205042
    F   F2   0.609494  0.685733  0.125630  -0.202005
    F   F3   0.109957  0.814007  0.126707  -0.203749
    F   F4   0.110184  0.185692  0.125428  -0.202675
