# Generated by REPEAT Assigner based on pymatgen
data_DB0-m3_o14_o16_f0_pcu.sym.10
_audit_creation_date              2022-05-24
_audit_creation_method            REPEAT_Assigner
_cell_length_a                    9.840782
_cell_length_b                    10.978894
_cell_length_c                    13.664390
_cell_angle_alpha                 89.989761
_cell_angle_beta                  74.521652
_cell_angle_gamma                 90.000210
_cell_volume                      1422.769073
_symmetry_space_group_name_H-M    P1
_symmetry_Int_Tables_number       1
loop_
    _symmetry_equiv_pos_site_id
    _symmetry_equiv_pos_as_xyz
    1  x,y,z
loop_
    _atom_site_type_symbol
    _atom_site_label
    _atom_site_fract_x
    _atom_site_fract_y
    _atom_site_fract_z
    _atom_type_partial_charge
    O   O1   0.396138  0.692435  0.494789  -0.518702
    O   O2   0.627105  0.689898  0.490285  -0.694626
    C   C1   0.513781  0.749397  0.486912  0.626433
    O   O3   0.333868  0.519778  0.658238  -0.740437
    O   O4   0.564495  0.519418  0.654990  -0.702850
    C   C2   0.432556  0.519578  0.705514  0.897656
    Zn  Zn1  0.348696  0.512901  0.507467  0.972452
    Zn  Zn2  0.658442  0.508613  0.504080  1.041772
    O   O5   0.379197  0.331307  0.514836  -0.541168
    O   O6   0.615790  0.327256  0.513646  -0.606718
    O   O7   0.438663  0.498578  0.356065  -0.663639
    O   O8   0.676900  0.494101  0.353253  -0.666117
    C   C3   0.494001  0.271541  0.517821  0.654984
    C   C4   0.574283  0.491688  0.307393  0.879686
    C   C5   0.766027  0.393289  0.044800  0.224207
    H   H1   0.792698  0.341142  0.853200  0.098193
    C   C6   0.611663  0.472125  0.196696  -0.367531
    C   C7   0.258704  0.559331  0.867133  0.076875
    C   C8   0.219157  0.574645  0.970227  -0.103657
    C   C9   0.312072  0.551448  0.026955  -0.273665
    C   C10  0.446086  0.505283  0.981858  0.120389
    C   C11  0.483108  0.483404  0.877162  0.277115
    C   C12  0.542199  0.477192  0.039044  -0.029469
    C   C13  0.669021  0.421620  0.991347  -0.074538
    C   C14  0.697969  0.390310  0.890484  -0.022928
    C   C15  0.606048  0.419192  0.834611  -0.304794
    C   C16  0.515625  0.502412  0.142781  -0.119741
    C   C17  0.738151  0.418388  0.146605  0.367963
    C   C18  0.392571  0.519584  0.818259  -0.375001
    H   H2   0.421923  0.548168  0.184723  0.099835
    H   H3   0.182768  0.580117  0.825583  0.064369
    H   H4   0.271375  0.566367  0.107081  0.187881
    H   H5   0.114343  0.607201  0.007145  0.069637
    H   H6   0.631507  0.383339  0.758725  0.148074
    H   H7   0.709538  0.901675  0.521233  0.164879
    C   C19  0.308047  0.894925  0.415607  -0.132125
    H   H8   0.333378  0.811159  0.373457  0.092545
    C   C20  0.182755  0.949817  0.415814  -0.114930
    H   H9   0.110467  0.905914  0.379745  0.087066
    C   C21  0.146633  0.057037  0.467003  -0.075742
    H   H10  0.043805  0.096543  0.474208  0.097339
    C   C22  0.242982  0.116515  0.506456  -0.223779
    H   H11  0.204346  0.196317  0.550506  0.098967
    C   C23  0.377817  0.068947  0.495843  0.197708
    C   C24  0.400216  0.948455  0.464521  0.100557
    C   C25  0.514120  0.884202  0.481635  -0.106368
    C   C26  0.618894  0.948333  0.508940  -0.167363
    H   H12  0.697915  0.120564  0.536556  0.074763
    C   C27  0.610272  0.073189  0.520219  -0.028298
    C   C28  0.489828  0.135832  0.515822  -0.194934
    H   H13  0.924660  0.362383  0.407627  0.140746
    C   C29  0.811514  0.681367  0.620047  -0.347786
    H   H14  0.702629  0.680438  0.627972  0.249662
    C   C30  0.851103  0.775180  0.671100  -0.043268
    H   H15  0.774010  0.840289  0.711568  0.104141
    C   C31  0.986738  0.784075  0.673223  -0.172434
    H   H16  0.016548  0.858161  0.715434  0.125077
    C   C32  0.082404  0.697014  0.626776  0.207146
    C   C33  0.047156  0.603286  0.566390  0.013307
    C   C34  0.906336  0.597144  0.563131  0.281620
    N   N1   0.861746  0.510831  0.506670  -0.142433
    C   C35  0.957143  0.431098  0.453348  0.018999
    H   H17  0.170983  0.370719  0.412509  0.129320
    C   C36  0.097229  0.436060  0.456281  -0.018003
    N   N2   0.142982  0.520423  0.512219  -0.052489
    O   O9   0.834417  0.384122  0.197263  -0.466608
    H   H18  0.904280  0.451155  0.184823  0.294880
    O   O10  0.210027  0.707109  0.645162  -0.259365
    H   H19  0.191193  0.734911  0.716317  0.257390
    O   O11  0.890324  0.337434  0.997437  -0.472828
    H   H20  0.957732  0.405184  0.974556  0.280703
