# generated using pymatgen
data_FeH6C20N3O10
_symmetry_space_group_name_H-M   'P 1'
_cell_length_a   15.72132700
_cell_length_b   17.32827200
_cell_length_c   11.10340900
_cell_angle_alpha   109.02660400
_cell_angle_beta   89.26781400
_cell_angle_gamma   104.47297700
_symmetry_Int_Tables_number   1
_chemical_formula_structural   FeH6C20N3O10
_chemical_formula_sum   'Fe2 H12 C40 N6 O20'
_cell_volume   2761.01872310
_cell_formula_units_Z   2
loop_
 _symmetry_equiv_pos_site_id
 _symmetry_equiv_pos_as_xyz
  1  'x, y, z'
loop_
 _atom_site_type_symbol
 _atom_site_label
 _atom_site_symmetry_multiplicity
 _atom_site_fract_x
 _atom_site_fract_y
 _atom_site_fract_z
 _atom_site_occupancy
  Fe  Fe1  1  0.50594000  0.99681500  0.26904300  1
  Fe  Fe2  1  0.49056100  0.00260200  0.73479700  1
  H  H1  1  0.18192500  0.02742900  0.83076300  1
  H  H2  1  0.22401200  0.96478100  0.22093500  1
  H  H3  1  0.06449500  0.05123900  0.80034200  1
  H  H4  1  0.92143400  0.05486400  0.75032900  1
  H  H5  1  0.07505300  0.94443100  0.25357600  1
  H  H6  1  0.93198900  0.94805700  0.20356100  1
  H  H7  1  0.77248300  0.03453100  0.78298400  1
  H  H8  1  0.81458000  0.97192800  0.17319100  1
  H  H9  1  0.47075100  0.27741400  0.41350500  1
  H  H10  1  0.54824400  0.32814500  0.86415000  1
  H  H11  1  0.44842500  0.67128000  0.13962700  1
  H  H12  1  0.52590300  0.72200200  0.59027400  1
  C  C1  1  0.28521400  0.99724000  0.06598800  1
  C  C2  1  0.27206000  0.01387900  0.95451500  1
  C  C3  1  0.18886000  0.01676900  0.91947800  1
  C  C4  1  0.21423800  0.97826600  0.13448200  1
  C  C5  1  0.13177000  0.98116600  0.09904800  1
  C  C6  1  0.11758900  0.00286300  0.99331100  1
  C  C7  1  0.03278300  0.00869700  0.96398000  1
  C  C8  1  0.01556400  0.03330100  0.86132300  1
  C  C9  1  0.93262100  0.03666300  0.83188300  1
  C  C10  1  0.06386700  0.96264000  0.17202900  1
  C  C11  1  0.98092500  0.96600500  0.14259100  1
  C  C12  1  0.96370700  0.99061800  0.03994400  1
  C  C13  1  0.87890400  0.99645900  0.01061800  1
  C  C14  1  0.86472100  0.01814800  0.90487400  1
  C  C15  1  0.78225700  0.02105200  0.86944200  1
  C  C16  1  0.80763600  0.98257200  0.08446500  1
  C  C17  1  0.72443500  0.98546900  0.04943300  1
  C  C18  1  0.71128200  0.00209400  0.93794600  1
  C  C19  1  0.65384600  0.97633300  0.13669800  1
  C  C20  1  0.47980700  0.83420600  0.27863800  1
  C  C21  1  0.37288900  0.00600000  0.12053700  1
  C  C22  1  0.47901100  0.14014500  0.45100300  1
  C  C23  1  0.51756500  0.85925800  0.55279900  1
  C  C24  1  0.62361500  0.99336000  0.88339500  1
  C  C25  1  0.51678000  0.16520800  0.72516500  1
  C  C26  1  0.34265500  0.02304400  0.86727300  1
  C  C27  1  0.49409800  0.22264500  0.55042700  1
  C  C28  1  0.48668500  0.28928700  0.51338500  1
  C  C29  1  0.50301900  0.37023000  0.59966400  1
  C  C30  1  0.52599200  0.38416500  0.72696900  1
  C  C31  1  0.53289900  0.31699000  0.76441900  1
  C  C32  1  0.51599400  0.23561000  0.67782200  1
  C  C33  1  0.49704900  0.56063800  0.45303300  1
  C  C34  1  0.49965200  0.43878600  0.55072700  1
  C  C35  1  0.47070400  0.61526200  0.27679800  1
  C  C36  1  0.46376900  0.68243300  0.23935700  1
  C  C37  1  0.48063800  0.76380600  0.32596500  1
  C  C38  1  0.50253400  0.77677000  0.45336100  1
  C  C39  1  0.50997700  0.71013200  0.49039300  1
  C  C40  1  0.49367300  0.62919500  0.40410400  1
  N  N1  1  0.55568900  0.51592500  0.60057700  1
  N  N2  1  0.55386200  0.57624900  0.55300000  1
  N  N3  1  0.44101300  0.48349900  0.40318100  1
  N  N4  1  0.44283900  0.42317600  0.45075900  1
  N  N5  1  0.53719700  0.46538700  0.82225400  1
  N  N6  1  0.45952600  0.53404600  0.18150600  1
  O  O1  1  0.58735100  0.00932300  0.13522900  1
  O  O2  1  0.46146800  0.81864300  0.15670300  1
  O  O3  1  0.66151500  0.94259000  0.22467700  1
  O  O4  1  0.50317700  0.91294400  0.35569200  1
  O  O5  1  0.38317400  0.95729400  0.18549100  1
  O  O6  1  0.43802300  0.07085700  0.12226700  1
  O  O7  1  0.54628800  0.11152800  0.40264800  1
  O  O8  1  0.39818500  0.09545600  0.40923800  1
  O  O9  1  0.45025600  0.88781900  0.60114100  1
  O  O10  1  0.59837300  0.90399800  0.59458200  1
  O  O11  1  0.61335800  0.04210200  0.81848900  1
  O  O12  1  0.55847400  0.92849100  0.88159500  1
  O  O13  1  0.33503500  0.05689500  0.77941100  1
  O  O14  1  0.49339500  0.08646900  0.64811600  1
  O  O15  1  0.40911100  0.98998500  0.86864100  1
  O  O16  1  0.53509400  0.18077000  0.84710600  1
  O  O17  1  0.48109900  0.50937500  0.82276700  1
  O  O18  1  0.58993000  0.48633400  0.92351500  1
  O  O19  1  0.40680200  0.51309100  0.08023300  1
  O  O20  1  0.51563500  0.49007100  0.18101000  1
