# generated using pymatgen
data_ZnH15C26N3O4
_symmetry_space_group_name_H-M   'P 1'
_cell_length_a   13.12466500
_cell_length_b   13.83725700
_cell_length_c   15.96950200
_cell_angle_alpha   94.56989700
_cell_angle_beta   90.04629900
_cell_angle_gamma   90.63893300
_symmetry_Int_Tables_number   1
_chemical_formula_structural   ZnH15C26N3O4
_chemical_formula_sum   'Zn2 H30 C52 N6 O8'
_cell_volume   2890.80701154
_cell_formula_units_Z   2
loop_
 _symmetry_equiv_pos_site_id
 _symmetry_equiv_pos_as_xyz
  1  'x, y, z'
loop_
 _atom_site_type_symbol
 _atom_site_label
 _atom_site_symmetry_multiplicity
 _atom_site_fract_x
 _atom_site_fract_y
 _atom_site_fract_z
 _atom_site_occupancy
  Zn  Zn1  1  0.53876700  0.89883300  0.49012400  1
  Zn  Zn2  1  0.46123200  0.10116400  0.50985200  1
  H  H1  1  0.71270400  0.17158300  0.02304900  1
  H  H2  1  0.28729700  0.82841400  0.97692700  1
  H  H3  1  0.00995700  0.02257600  0.71931700  1
  H  H4  1  0.99004300  0.97742100  0.28065900  1
  H  H5  1  0.98056300  0.08048000  0.95593400  1
  H  H6  1  0.01943700  0.91951600  0.04404200  1
  H  H7  1  0.38493900  0.85357300  0.09632100  1
  H  H8  1  0.61506100  0.14642400  0.90365600  1
  H  H9  1  0.17317400  0.99856500  0.33023300  1
  H  H10  1  0.82682700  0.00143400  0.66974200  1
  H  H11  1  0.82720100  0.99344900  0.33782200  1
  H  H12  1  0.17279800  0.00654900  0.66215400  1
  H  H13  1  0.56568900  0.16037100  0.28272100  1
  H  H14  1  0.43430700  0.83962200  0.71725200  1
  H  H15  1  0.63529800  0.19159900  0.14696000  1
  H  H16  1  0.36470100  0.80839500  0.85301400  1
  H  H17  1  0.45810000  0.88576000  0.23656700  1
  H  H18  1  0.54190000  0.11423500  0.76341000  1
  H  H19  1  0.66666667  0.56197800  0.55164600  1
  H  H20  1  0.33329600  0.43802000  0.44832400  1
  H  H21  1  0.66800600  0.28849800  0.47162300  1
  H  H22  1  0.75659300  0.38823600  0.49417700  1
  H  H23  1  0.76154300  0.28304200  0.55437800  1
  H  H24  1  0.67925700  0.42422700  0.63320700  1
  H  H25  1  0.59543900  0.32182000  0.61786700  1
  H  H26  1  0.24333400  0.61177700  0.50572500  1
  H  H27  1  0.33200100  0.71142700  0.52839400  1
  H  H28  1  0.23853400  0.71704600  0.44560500  1
  H  H29  1  0.40457200  0.67818300  0.38210800  1
  H  H30  1  0.32074800  0.57578100  0.36676000  1
  C  C1  1  0.82662900  0.06171900  0.22117900  1
  C  C2  1  0.17337200  0.93828000  0.77879700  1
  C  C3  1  0.77200400  0.11175100  0.16715300  1
  C  C4  1  0.22799700  0.88824800  0.83282300  1
  C  C5  1  0.82307300  0.10561400  0.09167000  1
  C  C6  1  0.17692800  0.89438500  0.90830600  1
  C  C7  1  0.91356800  0.03097300  0.17940600  1
  C  C8  1  0.08643300  0.96902600  0.82057100  1
  C  C9  1  0.78491100  0.13494500  0.02025400  1
  C  C10  1  0.21509000  0.86505200  0.97972200  1
  C  C11  1  0.82244300  0.10372800  0.93570100  1
  C  C12  1  0.17755700  0.89626800  0.06427500  1
  C  C13  1  0.76246800  0.09428600  0.86432600  1
  C  C14  1  0.23753200  0.90571100  0.13565000  1
  C  C15  1  0.82116800  0.05617600  0.80003100  1
  C  C16  1  0.17883300  0.94382200  0.19994500  1
  C  C17  1  0.91759900  0.04470800  0.83332600  1
  C  C18  1  0.08240100  0.95528900  0.16665000  1
  C  C19  1  0.00865200  0.01314400  0.78595000  1
  C  C20  1  0.99134800  0.98685300  0.21402700  1
  C  C21  1  0.33810600  0.88408700  0.14710400  1
  C  C22  1  0.66189500  0.11591000  0.85287200  1
  C  C23  1  0.37883300  0.90198600  0.22665100  1
  C  C24  1  0.62116700  0.09801000  0.77332600  1
  C  C25  1  0.32129700  0.94426500  0.29269700  1
  C  C26  1  0.67870300  0.05573200  0.70727900  1
  C  C27  1  0.21919100  0.96610700  0.27964900  1
  C  C28  1  0.78080900  0.03389100  0.72032700  1
  C  C29  1  0.78775500  0.03993000  0.29759900  1
  C  C30  1  0.21224400  0.96006800  0.70237700  1
  C  C31  1  0.69220300  0.07506600  0.31888000  1
  C  C32  1  0.30779500  0.92493000  0.68109400  1
  C  C33  1  0.64076400  0.13373400  0.26640400  1
  C  C34  1  0.35923400  0.86626000  0.73356900  1
  C  C35  1  0.67938000  0.15102700  0.18890500  1
  C  C36  1  0.32062000  0.84897000  0.81107000  1
  C  C37  1  0.37363900  0.96453600  0.37392800  1
  C  C38  1  0.62636000  0.03546100  0.62604800  1
  C  C39  1  0.63748300  0.04581800  0.39196800  1
  C  C40  1  0.36251500  0.95417900  0.60800700  1
  C  C41  1  0.56383300  0.44060400  0.54139700  1
  C  C42  1  0.43616700  0.55939500  0.45857500  1
  C  C43  1  0.46908700  0.40615400  0.51290300  1
  C  C44  1  0.53091200  0.59384500  0.48707100  1
  C  C45  1  0.40626900  0.46564900  0.47144800  1
  C  C46  1  0.59373100  0.53435000  0.52852400  1
  C  C47  1  0.44050300  0.30596300  0.51802100  1
  C  C48  1  0.55949700  0.69403500  0.48195400  1
  C  C49  1  0.63596700  0.37840300  0.58506100  1
  C  C50  1  0.71037800  0.33145300  0.52211100  1
  C  C51  1  0.36403700  0.62160100  0.41491000  1
  C  C52  1  0.28962600  0.66855400  0.47785800  1
  N  N1  1  0.91059600  0.05629100  0.09918800  1
  N  N2  1  0.08940600  0.94370800  0.90078800  1
  N  N3  1  0.91767200  0.07466200  0.91604500  1
  N  N4  1  0.08232800  0.92533400  0.08393100  1
  N  N5  1  0.57421400  0.77650000  0.47988600  1
  N  N6  1  0.42578600  0.22349800  0.52009000  1
  O  O1  1  0.37283700  0.05270100  0.41151500  1
  O  O2  1  0.62716100  0.94729700  0.58846100  1
  O  O3  1  0.43336300  0.89662900  0.39816900  1
  O  O4  1  0.56663600  0.10336800  0.60180600  1
  O  O5  1  0.63633400  0.95418300  0.40847000  1
  O  O6  1  0.36366500  0.04581400  0.59150600  1
  O  O7  1  0.57598600  0.11020500  0.42739000  1
  O  O8  1  0.42401200  0.88979200  0.57258400  1
