# generated using pymatgen
data_Zn2H19C28(NO3)3
_symmetry_space_group_name_H-M   'P 1'
_cell_length_a   8.52483300
_cell_length_b   10.69429200
_cell_length_c   14.25110600
_cell_angle_alpha   97.80554000
_cell_angle_beta   90.10270900
_cell_angle_gamma   90.00840500
_symmetry_Int_Tables_number   1
_chemical_formula_structural   Zn2H19C28(NO3)3
_chemical_formula_sum   'Zn2 H19 C28 N3 O9'
_cell_volume   1287.19142225
_cell_formula_units_Z   1
loop_
 _symmetry_equiv_pos_site_id
 _symmetry_equiv_pos_as_xyz
  1  'x, y, z'
loop_
 _atom_site_type_symbol
 _atom_site_label
 _atom_site_symmetry_multiplicity
 _atom_site_fract_x
 _atom_site_fract_y
 _atom_site_fract_z
 _atom_site_occupancy
  Zn  Zn1  1  0.50191500  0.49376200  0.10369900  1
  Zn  Zn2  1  0.50167200  0.50678600  0.89560100  1
  H  H1  1  0.61299700  0.89677500  0.01485300  1
  H  H2  1  0.99816100  0.59322200  0.05688400  1
  H  H3  1  0.99831300  0.40810400  0.94269800  1
  H  H4  1  0.25668500  0.90361100  0.99235700  1
  H  H5  1  0.25704200  0.09662500  0.00546300  1
  H  H6  1  0.69362600  0.63625500  0.59339400  1
  H  H7  1  0.71330100  0.60296600  0.43386800  1
  H  H8  1  0.51086100  0.29245000  0.41258600  1
  H  H9  1  0.69894100  0.36782700  0.40635700  1
  H  H10  1  0.72060900  0.41011800  0.56444300  1
  H  H11  1  0.55949600  0.30533900  0.57314100  1
  H  H12  1  0.27770300  0.58802200  0.42888600  1
  H  H13  1  0.26492100  0.41876400  0.40838200  1
  H  H14  1  0.26953000  0.58554000  0.58409200  1
  H  H15  1  0.53699400  0.69573300  0.42923900  1
  H  H16  1  0.50244100  0.70713200  0.58740500  1
  H  H17  1  0.11304600  0.40030000  0.56138300  1
  H  H18  1  0.24777800  0.38153300  0.65531700  1
  H  H19  1  0.19201300  0.22747200  0.50734100  1
  C  C1  1  0.00000900  0.69119500  0.04602300  1
  C  C2  1  0.14055200  0.74792200  0.03160900  1
  C  C3  1  0.14369800  0.86882400  0.00979100  1
  C  C4  1  0.86123100  0.75198200  0.03304100  1
  C  C5  1  0.86329900  0.87698700  0.01599700  1
  C  C6  1  0.00552300  0.93749900  0.00735300  1
  C  C7  1  0.00554100  0.06337900  0.99160400  1
  C  C8  1  0.14384400  0.13170800  0.98857600  1
  C  C9  1  0.14056400  0.25283000  0.96716400  1
  C  C10  1  0.72482700  0.94210000  0.00782400  1
  C  C11  1  0.86355000  0.12475200  0.98380000  1
  C  C12  1  0.86159300  0.24942100  0.96681500  1
  C  C13  1  0.00008300  0.31007700  0.95341500  1
  C  C14  1  0.28175800  0.67081500  0.02184900  1
  C  C15  1  0.28178400  0.32971900  0.97700200  1
  C  C16  1  0.71962500  0.32684800  0.97701100  1
  C  C17  1  0.71991000  0.67354800  0.02270700  1
  C  C18  1  0.58798000  0.61092700  0.45455100  1
  C  C19  1  0.58040100  0.37778200  0.43843800  1
  C  C20  1  0.59563200  0.39264400  0.54528500  1
  C  C21  1  0.50065400  0.49377200  0.41040900  1
  C  C22  1  0.57498700  0.62353500  0.56145600  1
  C  C23  1  0.49949200  0.50537000  0.58873500  1
  C  C24  1  0.33106100  0.49899200  0.55172100  1
  C  C25  1  0.33250500  0.49944300  0.44525800  1
  C  C26  1  0.50084000  0.51190800  0.69198100  1
  C  C27  1  0.50189800  0.48811400  0.30727400  1
  C  C28  1  0.23840000  0.38678400  0.57838000  1
  N  N1  1  0.72741300  0.06368000  0.99263600  1
  N  N2  1  0.50163300  0.51499900  0.77344500  1
  N  N3  1  0.50253400  0.48554400  0.22585500  1
  O  O1  1  0.33277900  0.63448200  0.93569600  1
  O  O2  1  0.33709100  0.62737700  0.09712400  1
  O  O3  1  0.33298800  0.36602900  0.06321000  1
  O  O4  1  0.33671000  0.37320000  0.90178500  1
  O  O5  1  0.67037000  0.36562500  0.06325700  1
  O  O6  1  0.66571000  0.37248700  0.90228400  1
  O  O7  1  0.67020800  0.63493700  0.93643500  1
  O  O8  1  0.66615700  0.62801400  0.09740000  1
  O  O9  1  0.28964600  0.27366500  0.52755700  1
