# generated using pymatgen
data_Zn3H8C30(OF)12
_symmetry_space_group_name_H-M   'P 1'
_cell_length_a   37.88350600
_cell_length_b   21.83469600
_cell_length_c   21.80639400
_cell_angle_alpha   90.00000000
_cell_angle_beta   122.59829200
_cell_angle_gamma   90.00000000
_symmetry_Int_Tables_number   1
_chemical_formula_structural   Zn3H8C30(OF)12
_chemical_formula_sum   'Zn12 H32 C120 O48 F48'
_cell_volume   15196.19363374
_cell_formula_units_Z   4
loop_
 _symmetry_equiv_pos_site_id
 _symmetry_equiv_pos_as_xyz
  1  'x, y, z'
loop_
 _atom_site_type_symbol
 _atom_site_label
 _atom_site_symmetry_multiplicity
 _atom_site_fract_x
 _atom_site_fract_y
 _atom_site_fract_z
 _atom_site_occupancy
  Zn  Zn1  1  0.99998200  0.93020000  0.99981100  1
  Zn  Zn2  1  0.49998200  0.43020000  0.99981100  1
  Zn  Zn3  1  0.00006900  0.06903700  0.00013600  1
  Zn  Zn4  1  0.50006900  0.56903700  0.00013600  1
  Zn  Zn5  1  0.49726500  0.00027200  0.56688900  1
  Zn  Zn6  1  0.50277300  0.00039500  0.43325500  1
  Zn  Zn7  1  0.99726500  0.50027200  0.56688900  1
  Zn  Zn8  1  0.00277300  0.50039500  0.43325500  1
  Zn  Zn9  1  0.95249700  0.00049200  0.45617700  1
  Zn  Zn10  1  0.04745900  0.00037700  0.54370700  1
  Zn  Zn11  1  0.45249700  0.50049200  0.45617700  1
  Zn  Zn12  1  0.54745900  0.50037700  0.54370700  1
  H  H1  1  0.27937100  0.94670800  0.35837200  1
  H  H2  1  0.72081100  0.94782900  0.64185800  1
  H  H3  1  0.77937100  0.44670800  0.35837200  1
  H  H4  1  0.22081100  0.44782900  0.64185800  1
  H  H5  1  0.21007800  0.93271800  0.27911800  1
  H  H6  1  0.79014600  0.93423500  0.72111900  1
  H  H7  1  0.71007800  0.43271800  0.27911800  1
  H  H8  1  0.29014600  0.43423500  0.72111900  1
  H  H9  1  0.21488200  0.04586700  0.29688300  1
  H  H10  1  0.78503000  0.04734800  0.70302300  1
  H  H11  1  0.71488200  0.54586700  0.29688300  1
  H  H12  1  0.28503000  0.54734800  0.70302300  1
  H  H13  1  0.21607100  0.96680500  0.11784400  1
  H  H14  1  0.78410400  0.96834900  0.88233900  1
  H  H15  1  0.71607100  0.46680500  0.11784400  1
  H  H16  1  0.28410400  0.46834900  0.88233900  1
  H  H17  1  0.21947200  0.04880400  0.12960800  1
  H  H18  1  0.78048100  0.05032500  0.87033800  1
  H  H19  1  0.71947200  0.54880400  0.12960800  1
  H  H20  1  0.28048100  0.55032500  0.87033800  1
  H  H21  1  0.21820400  0.90083000  0.21121100  1
  H  H22  1  0.78212400  0.90232900  0.78913900  1
  H  H23  1  0.71820400  0.40083000  0.21121100  1
  H  H24  1  0.28212400  0.40232900  0.78913900  1
  H  H25  1  0.28980700  0.03915900  0.19449900  1
  H  H26  1  0.71017200  0.04027300  0.80551900  1
  H  H27  1  0.78980700  0.53915900  0.19449900  1
  H  H28  1  0.21017200  0.54027300  0.80551900  1
  H  H29  1  0.05480700  0.19457000  0.49310500  1
  H  H30  1  0.94655800  0.19442600  0.50689000  1
  H  H31  1  0.55480700  0.69457000  0.49310500  1
  H  H32  1  0.44655800  0.69442600  0.50689000  1
  C  C1  1  0.99871300  0.99820100  0.11864600  1
  C  C2  1  0.00132400  0.00099800  0.88126200  1
  C  C3  1  0.49871300  0.49820100  0.11864600  1
  C  C4  1  0.50132400  0.50099800  0.88126200  1
  C  C5  1  0.08197700  0.99836000  0.07865600  1
  C  C6  1  0.91809100  0.00088300  0.92132100  1
  C  C7  1  0.58197700  0.49836000  0.07865600  1
  C  C8  1  0.41809100  0.50088300  0.92132100  1
  C  C9  1  0.22573500  0.93980800  0.24893600  1
  C  C10  1  0.77448200  0.94125200  0.75129900  1
  C  C11  1  0.72573500  0.43980800  0.24893600  1
  C  C12  1  0.27448200  0.44125200  0.75129900  1
  C  C13  1  0.22522600  0.05266600  0.25849500  1
  C  C14  1  0.77468400  0.05410800  0.74141300  1
  C  C15  1  0.72522600  0.55266600  0.25849500  1
  C  C16  1  0.27468400  0.55410800  0.74141300  1
  C  C17  1  0.27261400  0.05652300  0.30085100  1
  C  C18  1  0.72728800  0.05769800  0.69908000  1
  C  C19  1  0.77261400  0.55652300  0.30085100  1
  C  C20  1  0.22728800  0.55769800  0.69908000  1
  C  C21  1  0.37329000  0.99990900  0.36984600  1
  C  C22  1  0.62677000  0.00056900  0.63029100  1
  C  C23  1  0.87329000  0.49990900  0.36984600  1
  C  C24  1  0.12677000  0.50056900  0.63029100  1
  C  C25  1  0.21058000  0.99900800  0.20602200  1
  C  C26  1  0.78948400  0.00054900  0.79404200  1
  C  C27  1  0.71058000  0.49900800  0.20602200  1
  C  C28  1  0.28948400  0.50054900  0.79404200  1
  C  C29  1  0.27268400  0.94334200  0.30234800  1
  C  C30  1  0.72752000  0.94451700  0.69789900  1
  C  C31  1  0.77268400  0.44334200  0.30234800  1
  C  C32  1  0.22752000  0.44451700  0.69789900  1
  C  C33  1  0.28971200  0.99961400  0.28557800  1
  C  C34  1  0.71035000  0.00070200  0.71452900  1
  C  C35  1  0.78971200  0.49961400  0.28557800  1
  C  C36  1  0.21035000  0.50070200  0.71452900  1
  C  C37  1  0.27581900  0.99960700  0.20583300  1
  C  C38  1  0.72426000  0.00079500  0.79428100  1
  C  C39  1  0.77581900  0.49960700  0.20583300  1
  C  C40  1  0.22426000  0.50079500  0.79428100  1
  C  C41  1  0.22849900  0.00426800  0.15858700  1
  C  C42  1  0.77156800  0.00572900  0.84148700  1
  C  C43  1  0.72849900  0.50426800  0.15858700  1
  C  C44  1  0.27156800  0.50572900  0.84148700  1
  C  C45  1  0.33555000  0.99977200  0.33172100  1
  C  C46  1  0.66451000  0.00061400  0.66840700  1
  C  C47  1  0.83555000  0.49977200  0.33172100  1
  C  C48  1  0.16451000  0.50061400  0.66840700  1
  C  C49  1  0.16473500  0.99877200  0.16018000  1
  C  C50  1  0.83533100  0.00059900  0.83985700  1
  C  C51  1  0.66473500  0.49877200  0.16018000  1
  C  C52  1  0.33533100  0.50059900  0.83985700  1
  C  C53  1  0.12697400  0.99857200  0.12276400  1
  C  C54  1  0.87309300  0.00068700  0.87724800  1
  C  C55  1  0.62697400  0.49857200  0.12276400  1
  C  C56  1  0.37309300  0.50068700  0.87724800  1
  C  C57  1  0.97229900  0.03714200  0.19251400  1
  C  C58  1  0.02626500  0.04133500  0.80574000  1
  C  C59  1  0.47229900  0.53714200  0.19251400  1
  C  C60  1  0.52626500  0.54133500  0.80574000  1
  C  C61  1  0.97201000  0.03666300  0.25539900  1
  C  C62  1  0.02656900  0.04045900  0.74287100  1
  C  C63  1  0.47201000  0.53666300  0.25539900  1
  C  C64  1  0.52656900  0.54045900  0.74287100  1
  C  C65  1  0.99938600  0.99930000  0.31268000  1
  C  C66  1  0.00058300  0.00082200  0.68716000  1
  C  C67  1  0.49938600  0.49930000  0.31268000  1
  C  C68  1  0.50058300  0.50082200  0.68716000  1
  C  C69  1  0.02633500  0.96136500  0.30617000  1
  C  C70  1  0.97503900  0.96107600  0.69524900  1
  C  C71  1  0.52633500  0.46136500  0.30617000  1
  C  C72  1  0.47503900  0.46107600  0.69524900  1
  C  C73  1  0.02537600  0.95995500  0.24217700  1
  C  C74  1  0.97604900  0.96016000  0.75929500  1
  C  C75  1  0.52537600  0.45995500  0.24217700  1
  C  C76  1  0.47604900  0.46016000  0.75929500  1
  C  C77  1  0.99869000  0.99833700  0.18550000  1
  C  C78  1  0.00131600  0.00075100  0.81437700  1
  C  C79  1  0.49869000  0.49833700  0.18550000  1
  C  C80  1  0.50131600  0.50075100  0.81437700  1
  C  C81  1  0.49956800  0.18706400  0.50069800  1
  C  C82  1  0.99956800  0.68706400  0.50069800  1
  C  C83  1  0.50029000  0.88051000  0.49905200  1
  C  C84  1  0.00029000  0.38051000  0.49905200  1
  C  C85  1  0.41824300  0.00006400  0.41541400  1
  C  C86  1  0.58181600  0.00052300  0.58472200  1
  C  C87  1  0.91824300  0.50006400  0.41541400  1
  C  C88  1  0.08181600  0.50052300  0.58472200  1
  C  C89  1  0.49973100  0.12012700  0.50107500  1
  C  C90  1  0.99973100  0.62012700  0.50107500  1
  C  C91  1  0.99912500  0.88061800  0.49958400  1
  C  C92  1  0.49912500  0.38061800  0.49958400  1
  C  C93  1  0.99993900  0.99992800  0.38005300  1
  C  C94  1  0.00002100  0.00092300  0.61978100  1
  C  C95  1  0.49993900  0.49992800  0.38005300  1
  C  C96  1  0.50002100  0.50092300  0.61978100  1
  C  C97  1  0.00083500  0.12019300  0.50034800  1
  C  C98  1  0.50083500  0.62019300  0.50034800  1
  C  C99  1  0.53025900  0.78198300  0.49422600  1
  C  C100  1  0.47073900  0.78191700  0.50490100  1
  C  C101  1  0.03025900  0.28198300  0.49422600  1
  C  C102  1  0.97073900  0.28191700  0.50490100  1
  C  C103  1  0.03099000  0.21887000  0.49630200  1
  C  C104  1  0.97027300  0.21878900  0.50345600  1
  C  C105  1  0.53099000  0.71887000  0.49630200  1
  C  C106  1  0.47027300  0.71878900  0.50345600  1
  C  C107  1  0.00069800  0.18710300  0.50003500  1
  C  C108  1  0.50069800  0.68710300  0.50003500  1
  C  C109  1  0.50043100  0.81364500  0.49940100  1
  C  C110  1  0.00043100  0.31364500  0.49940100  1
  C  C111  1  0.47366100  0.21855600  0.43672100  1
  C  C112  1  0.52532300  0.21909600  0.56431200  1
  C  C113  1  0.97366100  0.71855600  0.43672100  1
  C  C114  1  0.02532300  0.71909600  0.56431200  1
  C  C115  1  0.97283900  0.78168000  0.43669900  1
  C  C116  1  0.02584900  0.78222000  0.56360600  1
  C  C117  1  0.47283900  0.28168000  0.43669900  1
  C  C118  1  0.52584900  0.28222000  0.56360600  1
  C  C119  1  0.99927100  0.81369700  0.49996900  1
  C  C120  1  0.49927100  0.31369700  0.49996900  1
  O  O1  1  0.00035300  0.94530800  0.09182700  1
  O  O2  1  0.00157100  0.94818000  0.91015200  1
  O  O3  1  0.50035300  0.44530800  0.09182700  1
  O  O4  1  0.50157100  0.44818000  0.91015200  1
  O  O5  1  0.99768700  0.05102600  0.08906400  1
  O  O6  1  0.00051200  0.05396100  0.90882300  1
  O  O7  1  0.49768700  0.55102600  0.08906400  1
  O  O8  1  0.50051200  0.55396100  0.90882300  1
  O  O9  1  0.06258500  0.94538200  0.06082300  1
  O  O10  1  0.93767300  0.94806400  0.94198900  1
  O  O11  1  0.56258500  0.44538200  0.06082300  1
  O  O12  1  0.43767300  0.44806400  0.94198900  1
  O  O13  1  0.06238000  0.05119500  0.05901600  1
  O  O14  1  0.93749400  0.05383500  0.93806300  1
  O  O15  1  0.56238000  0.55119500  0.05901600  1
  O  O16  1  0.43749400  0.55383500  0.93806300  1
  O  O17  1  0.49866100  0.90917300  0.55038300  1
  O  O18  1  0.50179900  0.90882500  0.44744900  1
  O  O19  1  0.99866100  0.40917300  0.55038300  1
  O  O20  1  0.00179900  0.40882500  0.44744900  1
  O  O21  1  0.43577600  0.00203300  0.48622900  1
  O  O22  1  0.56428100  0.99967500  0.51388200  1
  O  O23  1  0.93577600  0.50203300  0.48622900  1
  O  O24  1  0.06428100  0.49967500  0.51388200  1
  O  O25  1  0.43964800  0.99806300  0.38412900  1
  O  O26  1  0.56040800  0.00123100  0.61603000  1
  O  O27  1  0.93964800  0.49806300  0.38412900  1
  O  O28  1  0.06040800  0.50123100  0.61603000  1
  O  O29  1  0.49916300  0.09176800  0.55357200  1
  O  O30  1  0.50047100  0.09141100  0.44890300  1
  O  O31  1  0.99916300  0.59176800  0.55357200  1
  O  O32  1  0.00047100  0.59141100  0.44890300  1
  O  O33  1  0.96288900  0.90897500  0.46614600  1
  O  O34  1  0.03525800  0.90931400  0.53270900  1
  O  O35  1  0.46288900  0.40897500  0.46614600  1
  O  O36  1  0.53525800  0.40931400  0.53270900  1
  O  O37  1  0.96399700  0.00000200  0.37558500  1
  O  O38  1  0.03592700  0.00333100  0.62421400  1
  O  O39  1  0.46399700  0.50000200  0.37558500  1
  O  O40  1  0.53592700  0.50333100  0.62421400  1
  O  O41  1  0.03636700  0.00018400  0.44193700  1
  O  O42  1  0.96363300  0.99826400  0.55794900  1
  O  O43  1  0.53636700  0.50018400  0.44193700  1
  O  O44  1  0.46363300  0.49826400  0.55794900  1
  O  O45  1  0.96476000  0.09151700  0.46975400  1
  O  O46  1  0.03700800  0.09183800  0.53110100  1
  O  O47  1  0.46476000  0.59151700  0.46975400  1
  O  O48  1  0.53700800  0.59183800  0.53110100  1
  F  F1  1  0.29143000  0.89079900  0.29759800  1
  F  F2  1  0.70891900  0.89187400  0.70281100  1
  F  F3  1  0.79143000  0.39079900  0.29759800  1
  F  F4  1  0.20891900  0.39187400  0.70281100  1
  F  F5  1  0.94553100  0.07441500  0.13688400  1
  F  F6  1  0.05165600  0.08081700  0.85981500  1
  F  F7  1  0.44553100  0.57441500  0.13688400  1
  F  F8  1  0.55165600  0.58081700  0.85981500  1
  F  F9  1  0.94585500  0.07481300  0.26155200  1
  F  F10  1  0.05131200  0.08035500  0.73511900  1
  F  F11  1  0.44585500  0.57481300  0.26155200  1
  F  F12  1  0.55131200  0.58035500  0.73511900  1
  F  F13  1  0.05287500  0.92373000  0.36157000  1
  F  F14  1  0.94990400  0.92123500  0.64142500  1
  F  F15  1  0.55287500  0.42373000  0.36157000  1
  F  F16  1  0.44990400  0.42123500  0.64142500  1
  F  F17  1  0.05198500  0.92243300  0.23650800  1
  F  F18  1  0.95083700  0.92083200  0.76652800  1
  F  F19  1  0.55198500  0.42243300  0.23650800  1
  F  F20  1  0.45083700  0.42083200  0.76652800  1
  F  F21  1  0.55989200  0.81272900  0.48981400  1
  F  F22  1  0.44097600  0.81259200  0.50900200  1
  F  F23  1  0.05989200  0.31272900  0.48981400  1
  F  F24  1  0.94097600  0.31259200  0.50900200  1
  F  F25  1  0.44776100  0.18773000  0.37410200  1
  F  F26  1  0.55136900  0.18880600  0.62728300  1
  F  F27  1  0.94776100  0.68773000  0.37410200  1
  F  F28  1  0.05136900  0.68880600  0.62728300  1
  F  F29  1  0.94704000  0.81200300  0.37363100  1
  F  F30  1  0.05150400  0.81307700  0.62632100  1
  F  F31  1  0.44704000  0.31200300  0.37363100  1
  F  F32  1  0.55150400  0.31307700  0.62632100  1
  F  F33  1  0.20821200  0.10653300  0.22047800  1
  F  F34  1  0.79156200  0.10808000  0.77926900  1
  F  F35  1  0.70821200  0.60653300  0.22047800  1
  F  F36  1  0.29156200  0.60808000  0.77926900  1
  F  F37  1  0.28806300  0.06045600  0.37439900  1
  F  F38  1  0.71181100  0.06152800  0.62551400  1
  F  F39  1  0.78806300  0.56045600  0.37439900  1
  F  F40  1  0.21181100  0.56152800  0.62551400  1
  F  F41  1  0.28450200  0.10823800  0.27982000  1
  F  F42  1  0.71527300  0.10935400  0.71998600  1
  F  F43  1  0.78450200  0.60823800  0.27982000  1
  F  F44  1  0.21527300  0.60935400  0.71998600  1
  F  F45  1  0.28876300  0.94651500  0.18910800  1
  F  F46  1  0.71146700  0.94763700  0.81117000  1
  F  F47  1  0.78876300  0.44651500  0.18910800  1
  F  F48  1  0.21146700  0.44763700  0.81117000  1
