# generated using pymatgen
data_ZnH19C39(NO2)3
_symmetry_space_group_name_H-M   'P 1'
_cell_length_a   16.54492700
_cell_length_b   16.63750800
_cell_length_c   17.42254900
_cell_angle_alpha   98.93475300
_cell_angle_beta   90.72343500
_cell_angle_gamma   90.06539700
_symmetry_Int_Tables_number   1
_chemical_formula_structural   ZnH19C39(NO2)3
_chemical_formula_sum   'Zn2 H38 C78 N6 O12'
_cell_volume   4737.24706644
_cell_formula_units_Z   2
loop_
 _symmetry_equiv_pos_site_id
 _symmetry_equiv_pos_as_xyz
  1  'x, y, z'
loop_
 _atom_site_type_symbol
 _atom_site_label
 _atom_site_symmetry_multiplicity
 _atom_site_fract_x
 _atom_site_fract_y
 _atom_site_fract_z
 _atom_site_occupancy
  Zn  Zn1  1  0.50019800  0.51085800  0.08640500  1
  Zn  Zn2  1  0.49986500  0.48810700  0.91331800  1
  H  H1  1  0.92193400  0.72108800  0.05936900  1
  H  H2  1  0.07826600  0.27739300  0.93991900  1
  H  H3  1  0.30969200  0.92012100  0.99631100  1
  H  H4  1  0.69042400  0.07901100  0.00419800  1
  H  H5  1  0.30976100  0.07742300  0.99567000  1
  H  H6  1  0.69035900  0.92173600  0.00497300  1
  H  H7  1  0.91922000  0.27811600  0.94256800  1
  H  H8  1  0.08089500  0.72040800  0.05663400  1
  H  H9  1  0.62690300  0.52452300  0.19773000  1
  H  H10  1  0.37311200  0.47690200  0.80248700  1
  H  H11  1  0.00118100  0.07064300  0.03552500  1
  H  H12  1  0.99891000  0.92865700  0.96502200  1
  H  H13  1  0.77889900  0.81425200  0.13056300  1
  H  H14  1  0.22508000  0.18090700  0.86987700  1
  H  H15  1  0.68251900  0.65955100  0.88278500  1
  H  H16  1  0.31274300  0.34425500  0.11665000  1
  H  H17  1  0.78487200  0.76477400  0.88355000  1
  H  H18  1  0.21071500  0.23868300  0.11603200  1
  H  H19  1  0.22846000  0.81759300  0.12538700  1
  H  H20  1  0.77053700  0.18023500  0.87472400  1
  H  H21  1  0.33036300  0.71172300  0.12705000  1
  H  H22  1  0.66856600  0.28603900  0.87293000  1
  H  H23  1  0.30983000  0.65349700  0.87920700  1
  H  H24  1  0.69139400  0.34672600  0.12042000  1
  H  H25  1  0.20778300  0.75889600  0.87928200  1
  H  H26  1  0.79347100  0.24137500  0.12048100  1
  H  H27  1  0.67681400  0.70804900  0.13147500  1
  H  H28  1  0.32715700  0.28711400  0.86877100  1
  H  H29  1  0.37460200  0.51520100  0.18919700  1
  H  H30  1  0.62563000  0.47929600  0.80965900  1
  H  H31  1  0.69911800  0.52196200  0.31598400  1
  H  H32  1  0.30078300  0.48034600  0.68445100  1
  H  H33  1  0.22408200  0.50435000  0.43325000  1
  H  H34  1  0.77570900  0.50207300  0.56820200  1
  H  H35  1  0.22784700  0.49070600  0.56807900  1
  H  H36  1  0.77199200  0.51441200  0.43302400  1
  H  H37  1  0.20107600  0.57166200  0.23911800  1
  H  H38  1  0.79990200  0.54007200  0.78016700  1
  C  C1  1  0.25628900  0.95751100  0.99635000  1
  C  C2  1  0.74382300  0.04159100  0.00397400  1
  C  C3  1  0.25633600  0.04010600  0.99648000  1
  C  C4  1  0.74378000  0.95900400  0.00389000  1
  C  C5  1  0.17624900  0.06358900  0.99675900  1
  C  C6  1  0.82386500  0.93548500  0.00338500  1
  C  C7  1  0.17619900  0.93418100  0.99757900  1
  C  C8  1  0.82390500  0.06488600  0.00253000  1
  C  C9  1  0.15109800  0.13956500  0.99437500  1
  C  C10  1  0.84899300  0.85950500  0.00580300  1
  C  C11  1  0.06538300  0.16255900  0.98796400  1
  C  C12  1  0.93471900  0.83643900  0.01214200  1
  C  C13  1  0.04073700  0.23200600  0.96019700  1
  C  C14  1  0.95939500  0.76672600  0.03942700  1
  C  C15  1  0.95767600  0.23237900  0.96159500  1
  C  C16  1  0.04245000  0.76635500  0.03796700  1
  C  C17  1  0.93438100  0.16315200  0.99019200  1
  C  C18  1  0.06572900  0.83582800  0.00979000  1
  C  C19  1  0.84899200  0.14071400  0.99913300  1
  C  C20  1  0.15111600  0.85833200  0.00090500  1
  C  C21  1  0.75760200  0.77981800  0.07632800  1
  C  C22  1  0.24454300  0.21715300  0.92387900  1
  C  C23  1  0.70005500  0.71977100  0.07658100  1
  C  C24  1  0.30201800  0.27724200  0.92349900  1
  C  C25  1  0.67230800  0.67605300  0.00719100  1
  C  C26  1  0.32752100  0.32317800  0.99262500  1
  C  C27  1  0.70305500  0.69267900  0.93784200  1
  C  C28  1  0.29434400  0.30899600  0.06181300  1
  C  C29  1  0.76099600  0.75209800  0.93789200  1
  C  C30  1  0.23647400  0.24950800  0.06184400  1
  C  C31  1  0.78816000  0.79587000  0.00694600  1
  C  C32  1  0.21183000  0.20326600  0.99310200  1
  C  C33  1  0.24651600  0.78121700  0.07149200  1
  C  C34  1  0.75298000  0.21714700  0.92851100  1
  C  C35  1  0.30397500  0.72129700  0.07215500  1
  C  C36  1  0.69550300  0.27704100  0.92776500  1
  C  C37  1  0.32765700  0.67501900  0.00322000  1
  C  C38  1  0.67243300  0.32397700  0.99656900  1
  C  C39  1  0.29273000  0.68888400  0.93389800  1
  C  C40  1  0.70799300  0.31080000  0.06583500  1
  C  C41  1  0.23489600  0.74832100  0.93357500  1
  C  C42  1  0.76586200  0.25140700  0.06623100  1
  C  C43  1  0.21195100  0.79474700  0.00218700  1
  C  C44  1  0.78817700  0.20430400  0.99776000  1
  C  C45  1  0.61047100  0.61278300  0.00628200  1
  C  C46  1  0.38956200  0.38622100  0.99345300  1
  C  C47  1  0.38956500  0.61200800  0.00304900  1
  C  C48  1  0.61049800  0.38696000  0.99669100  1
  C  C49  1  0.42899300  0.51856900  0.22425200  1
  C  C50  1  0.57106700  0.47921000  0.77519800  1
  C  C51  1  0.57033200  0.52355100  0.22788500  1
  C  C52  1  0.42965100  0.47715100  0.77216300  1
  C  C53  1  0.35391900  0.51074400  0.34156000  1
  C  C54  1  0.64597200  0.48797900  0.65794000  1
  C  C55  1  0.42669500  0.51596100  0.30355400  1
  C  C56  1  0.57323500  0.48392600  0.69628000  1
  C  C57  1  0.49859700  0.51491200  0.34427500  1
  C  C58  1  0.50131000  0.48518300  0.65562200  1
  C  C59  1  0.57049700  0.51966900  0.30624700  1
  C  C60  1  0.42942600  0.48101100  0.69379800  1
  C  C61  1  0.64275200  0.51821500  0.34593200  1
  C  C62  1  0.35714800  0.48308300  0.65426400  1
  C  C63  1  0.28266700  0.50056700  0.46027200  1
  C  C64  1  0.71718300  0.50169700  0.54015900  1
  C  C65  1  0.35431400  0.50378900  0.42019400  1
  C  C66  1  0.64555700  0.49476600  0.57931400  1
  C  C67  1  0.42714200  0.50154500  0.45992600  1
  C  C68  1  0.57274800  0.49690000  0.53956800  1
  C  C69  1  0.28415900  0.49324000  0.53775800  1
  C  C70  1  0.71570500  0.50931700  0.46274000  1
  C  C71  1  0.35662600  0.48976400  0.57651000  1
  C  C72  1  0.64326000  0.51089600  0.42353600  1
  C  C73  1  0.49903500  0.50733500  0.42205300  1
  C  C74  1  0.50085900  0.49169800  0.57759100  1
  C  C75  1  0.57163400  0.50500800  0.46178300  1
  C  C76  1  0.42825600  0.49415200  0.53789300  1
  C  C77  1  0.27707000  0.51209600  0.29856700  1
  C  C78  1  0.72295000  0.48591200  0.70046400  1
  N  N1  1  0.12742700  0.99893400  0.99760700  1
  N  N2  1  0.87267900  0.00012300  0.00241600  1
  N  N3  1  0.00035400  0.12142800  0.00754600  1
  N  N4  1  0.99974300  0.87770100  0.99274600  1
  N  N5  1  0.50007600  0.52179200  0.18808100  1
  N  N6  1  0.49997900  0.47721900  0.81164000  1
  O  O1  1  0.58235500  0.57772000  0.93868400  1
  O  O2  1  0.41772400  0.42123100  0.06104300  1
  O  O3  1  0.58571200  0.59353900  0.07237400  1
  O  O4  1  0.41435400  0.40541300  0.92733900  1
  O  O5  1  0.41780600  0.59580400  0.06971600  1
  O  O6  1  0.58225300  0.40315000  0.93000400  1
  O  O7  1  0.41435800  0.57435900  0.93576700  1
  O  O8  1  0.58571900  0.42462100  0.06397700  1
  O  O9  1  0.23318900  0.45231400  0.28890600  1
  O  O10  1  0.25484300  0.58111700  0.26742300  1
  O  O11  1  0.76714200  0.42693700  0.68675500  1
  O  O12  1  0.74576100  0.55131400  0.75641400  1
