# generated using pymatgen
data_FeH10C24NO10
_symmetry_space_group_name_H-M   'P 1'
_cell_length_a   15.35304000
_cell_length_b   17.04125100
_cell_length_c   11.74722400
_cell_angle_alpha   72.13736100
_cell_angle_beta   101.23438700
_cell_angle_gamma   111.37288500
_symmetry_Int_Tables_number   1
_chemical_formula_structural   FeH10C24NO10
_chemical_formula_sum   'Fe2 H20 C48 N2 O20'
_cell_volume   2712.16578973
_cell_formula_units_Z   2
loop_
 _symmetry_equiv_pos_site_id
 _symmetry_equiv_pos_as_xyz
  1  'x, y, z'
loop_
 _atom_site_type_symbol
 _atom_site_label
 _atom_site_symmetry_multiplicity
 _atom_site_fract_x
 _atom_site_fract_y
 _atom_site_fract_z
 _atom_site_occupancy
  Fe  Fe1  1  0.48579800  0.98749800  0.75341900  1
  Fe  Fe2  1  0.48950300  0.98755800  0.26189100  1
  H  H1  1  0.77807600  0.99477800  0.28836800  1
  H  H2  1  0.92988200  0.99879500  0.24754900  1
  H  H3  1  0.81808500  0.97406700  0.89537600  1
  H  H4  1  0.00370500  0.94172200  0.11635900  1
  H  H5  1  0.05111000  0.98898400  0.76173300  1
  H  H6  1  0.19683200  0.97629500  0.72973200  1
  H  H7  1  0.16941600  0.03264000  0.10452600  1
  H  H8  1  0.67191500  0.41133200  0.51018600  1
  H  H9  1  0.64786400  0.64676400  0.64643900  1
  H  H10  1  0.30840500  0.56463000  0.50670800  1
  H  H11  1  0.33416000  0.33080100  0.36821400  1
  H  H12  1  0.53048300  0.43050300  0.24907400  1
  H  H13  1  0.53486000  0.31301700  0.17705300  1
  H  H14  1  0.48142600  0.25916100  0.59698700  1
  H  H15  1  0.49593900  0.71700700  0.41818100  1
  H  H16  1  0.45169000  0.66406100  0.84134100  1
  H  H17  1  0.45589800  0.54693800  0.76838200  1
  H  H18  1  0.79422900  0.62230200  0.67333700  1
  H  H19  1  0.17365100  0.47249700  0.41262100  1
  H  H20  1  0.18662600  0.35569300  0.34340500  1
  C  C1  1  0.78659700  0.99222500  0.20052100  1
  C  C2  1  0.87193900  0.99379000  0.17812300  1
  C  C3  1  0.88353200  0.98891700  0.06766000  1
  C  C4  1  0.80835000  0.98009700  0.98051700  1
  C  C5  1  0.72184700  0.97848900  0.00160100  1
  C  C6  1  0.71092000  0.98326800  0.11428100  1
  C  C7  1  0.97394200  0.98644000  0.04758800  1
  C  C8  1  0.01829600  0.03157600  0.94788800  1
  C  C9  1  0.10922300  0.99546200  0.83082600  1
  C  C10  1  0.19095800  0.98664100  0.81382200  1
  C  C11  1  0.26710400  0.99691300  0.89918300  1
  C  C12  1  0.25867900  0.00944200  0.00788400  1
  C  C13  1  0.17625800  0.01931300  0.02314800  1
  C  C14  1  0.10272400  0.01507000  0.93363600  1
  C  C15  1  0.47645100  0.11707500  0.55157600  1
  C  C16  1  0.35661100  0.00324500  0.86525800  1
  C  C17  1  0.64702500  0.97628000  0.90107000  1
  C  C18  1  0.47257600  0.82947800  0.72148500  1
  C  C19  1  0.50942700  0.14667800  0.29624600  1
  C  C20  1  0.33231000  0.00902600  0.10975400  1
  C  C21  1  0.62053900  0.97320200  0.14998100  1
  C  C22  1  0.50115600  0.85895800  0.46444900  1
  C  C23  1  0.66376300  0.46210000  0.53948800  1
  C  C24  1  0.74200600  0.51432200  0.59357700  1
  C  C25  1  0.73415200  0.58022600  0.63121400  1
  C  C26  1  0.64914800  0.59378700  0.61555200  1
  C  C27  1  0.56975400  0.54120800  0.56217300  1
  C  C28  1  0.57721400  0.47498800  0.52352100  1
  C  C29  1  0.48364200  0.55479000  0.54684400  1
  C  C30  1  0.40496900  0.50209800  0.49255900  1
  C  C31  1  0.41237100  0.43596500  0.45354200  1
  C  C32  1  0.49847900  0.42237100  0.46892800  1
  C  C33  1  0.31834700  0.51455500  0.47749100  1
  C  C34  1  0.24060700  0.46222900  0.42395600  1
  C  C35  1  0.24787400  0.39687000  0.38523100  1
  C  C36  1  0.33289200  0.38344700  0.39988400  1
  C  C37  1  0.52117600  0.36662300  0.31024600  1
  C  C38  1  0.52326800  0.29947200  0.26992700  1
  C  C39  1  0.50910200  0.21641800  0.34596900  1
  C  C40  1  0.49493900  0.20253700  0.46535100  1
  C  C41  1  0.49423700  0.27065000  0.50505100  1
  C  C42  1  0.50575800  0.35219300  0.42761100  1
  C  C43  1  0.48492000  0.70566300  0.51079100  1
  C  C44  1  0.48434700  0.77363100  0.55097300  1
  C  C45  1  0.47290200  0.75998200  0.67131300  1
  C  C46  1  0.46126500  0.67739000  0.74778600  1
  C  C47  1  0.46316700  0.61042900  0.70691400  1
  C  C48  1  0.47596200  0.62459800  0.58861500  1
  N  N1  1  0.83051400  0.50037500  0.61031200  1
  N  N2  1  0.99087300  0.10058000  0.86044600  1
  O  O1  1  0.53828900  0.10360700  0.64325200  1
  O  O2  1  0.43049200  0.07207600  0.87250000  1
  O  O3  1  0.39388800  0.05714400  0.54485200  1
  O  O4  1  0.35974200  0.94831500  0.80979900  1
  O  O5  1  0.56758700  0.98584700  0.90921500  1
  O  O6  1  0.66263900  0.97113200  0.79811700  1
  O  O7  1  0.48091600  0.90870600  0.65404300  1
  O  O8  1  0.46533100  0.81238100  0.83668400  1
  O  O9  1  0.49412600  0.06596000  0.36185500  1
  O  O10  1  0.52204300  0.16483800  0.18251100  1
  O  O11  1  0.40625200  0.98826800  0.10715100  1
  O  O12  1  0.31992800  0.02227900  0.20882100  1
  O  O13  1  0.58270700  0.92021200  0.47120600  1
  O  O14  1  0.61502400  0.02837100  0.20333000  1
  O  O15  1  0.43896300  0.87119100  0.37267500  1
  O  O16  1  0.54879400  0.90233200  0.14506600  1
  O  O17  1  0.83845800  0.43812400  0.57530200  1
  O  O18  1  0.90385500  0.54960000  0.66152400  1
  O  O19  1  0.95245000  0.14555700  0.89373900  1
  O  O20  1  0.02648400  0.13320600  0.75764700  1
