# generated using pymatgen
data_Zn3H15C35(O4F)3
_symmetry_space_group_name_H-M   'P 1'
_cell_length_a   18.65039700
_cell_length_b   18.92525200
_cell_length_c   18.97995900
_cell_angle_alpha   109.59651500
_cell_angle_beta   109.61883700
_cell_angle_gamma   108.77136700
_symmetry_Int_Tables_number   1
_chemical_formula_structural   Zn3H15C35(O4F)3
_chemical_formula_sum   'Zn6 H30 C70 O24 F6'
_cell_volume   5183.78992549
_cell_formula_units_Z   2
loop_
 _symmetry_equiv_pos_site_id
 _symmetry_equiv_pos_as_xyz
  1  'x, y, z'
loop_
 _atom_site_type_symbol
 _atom_site_label
 _atom_site_symmetry_multiplicity
 _atom_site_fract_x
 _atom_site_fract_y
 _atom_site_fract_z
 _atom_site_occupancy
  Zn  Zn1  1  0.49743700  0.43602000  0.43627200  1
  Zn  Zn2  1  0.50018500  0.57440000  0.57744900  1
  Zn  Zn3  1  0.93581800  0.43538300  0.01345400  1
  Zn  Zn4  1  0.06884700  0.57191400  0.00656900  1
  Zn  Zn5  1  0.92292800  0.00359900  0.44423300  1
  Zn  Zn6  1  0.07627600  0.00530200  0.56879100  1
  H  H1  1  0.19188300  0.59186400  0.32797000  1
  H  H2  1  0.37041700  0.66545000  0.37562000  1
  H  H3  1  0.32030200  0.59214300  0.19911500  1
  H  H4  1  0.32451300  0.44519200  0.20054600  1
  H  H5  1  0.14691700  0.37175700  0.15398400  1
  H  H6  1  0.19708400  0.44510600  0.33029100  1
  H  H7  1  0.75172100  0.67750900  0.66157900  1
  H  H8  1  0.88955400  0.77589500  0.79330300  1
  H  H9  1  0.00043300  0.89748800  0.80305100  1
  H  H10  1  0.97487100  0.91948300  0.68242400  1
  H  H11  1  0.73450700  0.76556600  0.39068000  1
  H  H12  1  0.53975200  0.32798800  0.56867800  1
  H  H13  1  0.53748600  0.19491100  0.54931200  1
  H  H14  1  0.66194200  0.19470200  0.64855700  1
  H  H15  1  0.78762400  0.32777200  0.76877900  1
  H  H16  1  0.86352100  0.62292700  0.87785900  1
  H  H17  1  0.24657100  0.32832200  0.34828100  1
  H  H18  1  0.11146300  0.22509200  0.21553800  1
  H  H19  1  0.00274000  0.10215100  0.20635600  1
  H  H20  1  0.02795900  0.08392500  0.32945100  1
  H  H21  1  0.26221600  0.24694100  0.62389300  1
  H  H22  1  0.00755400  0.64094100  0.26871700  1
  H  H23  1  0.94315700  0.69435000  0.03335500  1
  H  H24  1  0.94413800  0.93079200  0.12789900  1
  H  H25  1  0.97386200  0.93849100  0.26424400  1
  H  H26  1  0.00984600  0.75494100  0.37930500  1
  H  H27  1  0.00340700  0.37361800  0.75514200  1
  H  H28  1  0.05539300  0.30537700  0.98088500  1
  H  H29  1  0.03747500  0.06172900  0.87242000  1
  H  H30  1  0.01226100  0.06116000  0.73939600  1
  C  C1  1  0.62802000  0.62094900  0.51303300  1
  C  C2  1  0.38640100  0.51559800  0.38918000  1
  C  C3  1  0.36943400  0.38948400  0.50038900  1
  C  C4  1  0.61035200  0.49370700  0.62479400  1
  C  C5  1  0.31880200  0.59881400  0.32446200  1
  C  C6  1  0.22296000  0.55860800  0.30007600  1
  C  C7  1  0.19833500  0.51857800  0.20637900  1
  C  C8  1  0.29285300  0.55874300  0.22952400  1
  C  C9  1  0.29387900  0.47854000  0.22913500  1
  C  C10  1  0.19840600  0.43849900  0.20498200  1
  C  C11  1  0.22410100  0.47852600  0.29967700  1
  C  C12  1  0.31862900  0.51859700  0.32286800  1
  C  C13  1  0.79827500  0.73037300  0.66321300  1
  C  C14  1  0.87690000  0.78551800  0.73830600  1
  C  C15  1  0.93899000  0.85324800  0.74358600  1
  C  C16  1  0.92370400  0.86470000  0.67321000  1
  C  C17  1  0.84551700  0.80815600  0.59554100  1
  C  C18  1  0.78093200  0.74205800  0.59213200  1
  C  C19  1  0.70000800  0.68712400  0.51744600  1
  C  C20  1  0.68515900  0.69583600  0.44564800  1
  C  C21  1  0.74861000  0.76036200  0.44821900  1
  C  C22  1  0.82898600  0.81722000  0.52213800  1
  C  C23  1  0.59688500  0.33166500  0.61313300  1
  C  C24  1  0.59415700  0.25507000  0.60228200  1
  C  C25  1  0.66352700  0.25491900  0.65814900  1
  C  C26  1  0.73445200  0.33126000  0.72717800  1
  C  C27  1  0.73700700  0.40911900  0.74079200  1
  C  C28  1  0.66958400  0.40965900  0.68051900  1
  C  C29  1  0.67454700  0.48792600  0.69030300  1
  C  C30  1  0.74383000  0.56366300  0.76268600  1
  C  C31  1  0.80978400  0.56277500  0.82213400  1
  C  C32  1  0.80703800  0.48648800  0.81249500  1
  C  C33  1  0.20105000  0.27522100  0.34749000  1
  C  C34  1  0.12380700  0.21718000  0.27151000  1
  C  C35  1  0.06289800  0.14871600  0.26654700  1
  C  C36  1  0.07777700  0.13943900  0.33812400  1
  C  C37  1  0.15426100  0.19892200  0.41659800  1
  C  C38  1  0.21800400  0.26570100  0.41992600  1
  C  C39  1  0.29756900  0.32316200  0.49581100  1
  C  C40  1  0.31170400  0.31610500  0.56844200  1
  C  C41  1  0.24888700  0.25095500  0.56579800  1
  C  C42  1  0.16996400  0.19182100  0.49092800  1
  C  C43  1  0.98992400  0.62109000  0.11918900  1
  C  C44  1  0.12691500  0.51516500  0.13735000  1
  C  C45  1  0.01469300  0.38625100  0.90074200  1
  C  C46  1  0.87754900  0.49107500  0.88160800  1
  C  C47  1  0.00652500  0.12246700  0.63459700  1
  C  C48  1  0.89112800  0.88544100  0.51793300  1
  C  C49  1  0.99279300  0.88653100  0.37844900  1
  C  C50  1  0.10805100  0.12343600  0.49505900  1
  C  C51  1  0.95180100  0.74729600  0.08661600  1
  C  C52  1  0.94158100  0.81116900  0.07303900  1
  C  C53  1  0.95047800  0.87967500  0.13792700  1
  C  C54  1  0.96650400  0.88294900  0.21546300  1
  C  C55  1  0.97400600  0.81751800  0.22943900  1
  C  C56  1  0.97067100  0.75097300  0.16551300  1
  C  C57  1  0.98445100  0.68806500  0.18053600  1
  C  C58  1  0.99685200  0.68963900  0.25679200  1
  C  C59  1  0.99925600  0.75472100  0.31962600  1
  C  C60  1  0.98779100  0.81881200  0.30702900  1
  C  C61  1  0.04377700  0.25244100  0.92527700  1
  C  C62  1  0.04822300  0.18452400  0.93401100  1
  C  C63  1  0.03583600  0.11598400  0.86622300  1
  C  C64  1  0.02259500  0.11678400  0.79078700  1
  C  C65  1  0.02126300  0.18630100  0.78184400  1
  C  C66  1  0.02720900  0.25269400  0.84827800  1
  C  C67  1  0.01856500  0.31932400  0.83756900  1
  C  C68  1  0.00977600  0.32184200  0.76363500  1
  C  C69  1  0.00596500  0.25746100  0.69875800  1
  C  C70  1  0.01139400  0.18926900  0.70674900  1
  O  O1  1  0.59458200  0.54054800  0.45523700  1
  O  O2  1  0.59916400  0.64503600  0.56612300  1
  O  O3  1  0.41390600  0.46179500  0.36264900  1
  O  O4  1  0.41253500  0.56375800  0.47069900  1
  O  O5  1  0.39834300  0.36532600  0.44738600  1
  O  O6  1  0.40305200  0.46987700  0.55851900  1
  O  O7  1  0.58484600  0.44665500  0.54314900  1
  O  O8  1  0.58372400  0.54852400  0.65095800  1
  O  O9  1  0.94386600  0.54109800  0.09836100  1
  O  O10  1  0.04239600  0.64414000  0.08955300  1
  O  O11  1  0.04627800  0.46207200  0.11187900  1
  O  O12  1  0.14757100  0.56239100  0.10267900  1
  O  O13  1  0.96263700  0.36318700  0.93084200  1
  O  O14  1  0.06034800  0.46619500  0.92120600  1
  O  O15  1  0.85716500  0.44451100  0.91698700  1
  O  O16  1  0.95825200  0.54567700  0.90861700  1
  O  O17  1  0.94500700  0.09279700  0.55635800  1
  O  O18  1  0.06459500  0.09658800  0.65045500  1
  O  O19  1  0.85843100  0.91435400  0.46860300  1
  O  O20  1  0.97520800  0.91247200  0.55950100  1
  O  O21  1  0.93452300  0.91219700  0.36257700  1
  O  O22  1  0.05415100  0.91609800  0.45667300  1
  O  O23  1  0.02397800  0.09643100  0.45340300  1
  O  O24  1  0.14081200  0.09461500  0.54449500  1
  F  F1  1  0.74889900  0.64032900  0.77552800  1
  F  F2  1  0.38936000  0.37151400  0.64235600  1
  F  F3  1  0.92374300  0.80692600  0.99592900  1
  F  F4  1  0.06376900  0.18484600  0.00920400  1
  F  F5  1  0.99796000  0.26229200  0.62708600  1
  F  F6  1  0.60639700  0.64254200  0.37267200  1
