# generated using pymatgen
data_ZnH11C17(NO2)3
_symmetry_space_group_name_H-M   'P 1'
_cell_length_a   8.56862100
_cell_length_b   13.38834600
_cell_length_c   14.42049900
_cell_angle_alpha   90.00000000
_cell_angle_beta   90.00000000
_cell_angle_gamma   90.00000000
_symmetry_Int_Tables_number   1
_chemical_formula_structural   ZnH11C17(NO2)3
_chemical_formula_sum   'Zn2 H22 C34 N6 O12'
_cell_volume   1654.31478111
_cell_formula_units_Z   2
loop_
 _symmetry_equiv_pos_site_id
 _symmetry_equiv_pos_as_xyz
  1  'x, y, z'
loop_
 _atom_site_type_symbol
 _atom_site_label
 _atom_site_symmetry_multiplicity
 _atom_site_fract_x
 _atom_site_fract_y
 _atom_site_fract_z
 _atom_site_occupancy
  Zn  Zn1  1  0.47933400  0.48639400  0.10421000  1
  Zn  Zn2  1  0.47933400  0.51360600  0.89579000  1
  H  H1  1  0.22850100  0.83620100  0.00093800  1
  H  H2  1  0.73016300  0.16379800  0.99906100  1
  H  H3  1  0.22850100  0.16379900  0.99906200  1
  H  H4  1  0.73016300  0.83620200  0.00093900  1
  H  H5  1  0.97933100  0.56595200  0.04370900  1
  H  H6  1  0.97933100  0.43404800  0.95629100  1
  H  H7  1  0.44302600  0.29767500  0.35601400  1
  H  H8  1  0.67185500  0.18716600  0.31139600  1
  H  H9  1  0.56362200  0.11049700  0.39250700  1
  H  H10  1  0.76927600  0.13409100  0.41125200  1
  H  H11  1  0.44302700  0.70232500  0.64398600  1
  H  H12  1  0.67185500  0.81283400  0.68860400  1
  H  H13  1  0.56362200  0.88950300  0.60749300  1
  H  H14  1  0.76927600  0.86590900  0.58874800  1
  H  H15  1  0.51768800  0.66570000  0.32056000  1
  H  H16  1  0.39443900  0.80861300  0.27274600  1
  H  H17  1  0.28995000  0.87610200  0.36163000  1
  H  H18  1  0.18933300  0.78411600  0.29197100  1
  H  H19  1  0.51768800  0.33430000  0.67944000  1
  H  H20  1  0.39443900  0.19138700  0.72725400  1
  H  H21  1  0.28995000  0.12389800  0.63837000  1
  H  H22  1  0.18933300  0.21588400  0.70802900  1
  C  C1  1  0.11868700  0.69438600  0.02046500  1
  C  C2  1  0.83997700  0.30561300  0.97953400  1
  C  C3  1  0.11868700  0.30561400  0.97953500  1
  C  C4  1  0.83997700  0.69438700  0.02046600  1
  C  C5  1  0.11930000  0.79649400  0.00801200  1
  C  C6  1  0.83936400  0.20350600  0.99198800  1
  C  C7  1  0.11930000  0.20350700  0.99198800  1
  C  C8  1  0.83936400  0.79649400  0.00801200  1
  C  C9  1  0.97933200  0.84797500  0.00618500  1
  C  C10  1  0.97933200  0.15202500  0.99381500  1
  C  C11  1  0.47967600  0.51096300  0.59533800  1
  C  C12  1  0.47967600  0.48903700  0.40466100  1
  C  C13  1  0.97933200  0.64525100  0.03199200  1
  C  C14  1  0.97933200  0.35474900  0.96800800  1
  C  C15  1  0.97933200  0.95502800  0.00146800  1
  C  C16  1  0.97933200  0.04497200  0.99853200  1
  C  C17  1  0.47946800  0.52147100  0.69453700  1
  C  C18  1  0.47946800  0.47852900  0.30546300  1
  C  C19  1  0.47756800  0.41642700  0.55634700  1
  C  C20  1  0.47756800  0.58357300  0.44365300  1
  C  C21  1  0.48195500  0.59454600  0.53907500  1
  C  C22  1  0.48195500  0.40545400  0.46092400  1
  C  C23  1  0.26041500  0.63430700  0.01362600  1
  C  C24  1  0.69825100  0.36569100  0.98637300  1
  C  C25  1  0.26041500  0.36569300  0.98637400  1
  C  C26  1  0.69825100  0.63430900  0.01362700  1
  C  C27  1  0.61881800  0.25691400  0.44074400  1
  C  C28  1  0.65833600  0.16643400  0.38542500  1
  C  C29  1  0.61881800  0.74308600  0.55925600  1
  C  C30  1  0.65833600  0.83356600  0.61457500  1
  C  C31  1  0.34057000  0.72453200  0.39568700  1
  C  C32  1  0.30154500  0.80306000  0.32602000  1
  C  C33  1  0.34057000  0.27546800  0.60431300  1
  C  C34  1  0.30154500  0.19694000  0.67398000  1
  N  N1  1  0.47933900  0.47332200  0.22537100  1
  N  N2  1  0.47933900  0.52667800  0.77462900  1
  N  N3  1  0.48814600  0.30898600  0.42128300  1
  N  N4  1  0.48814600  0.69101400  0.57871700  1
  N  N5  1  0.47114100  0.66905700  0.38623200  1
  N  N6  1  0.47114100  0.33094300  0.61376800  1
  O  O1  1  0.31356000  0.61356100  0.93040800  1
  O  O2  1  0.64510700  0.38643900  0.06959100  1
  O  O3  1  0.64662100  0.40917600  0.91088600  1
  O  O4  1  0.31204600  0.59082400  0.08911500  1
  O  O5  1  0.31356000  0.38643900  0.06959200  1
  O  O6  1  0.64510700  0.61356100  0.93040900  1
  O  O7  1  0.64662100  0.59082400  0.08911400  1
  O  O8  1  0.31204600  0.40917600  0.91088400  1
  O  O9  1  0.70699300  0.28490300  0.50177600  1
  O  O10  1  0.70699300  0.71509700  0.49822400  1
  O  O11  1  0.25157800  0.70922400  0.46008700  1
  O  O12  1  0.25157800  0.29077600  0.53991300  1
