# generated using pymatgen
data_Zn3H36(C25O7)2
_symmetry_space_group_name_H-M   'P 1'
_cell_length_a   47.82599100
_cell_length_b   35.54405100
_cell_length_c   31.98547400
_cell_angle_alpha   90.00000000
_cell_angle_beta   132.16096000
_cell_angle_gamma   90.00000000
_symmetry_Int_Tables_number   1
_chemical_formula_structural   Zn3H36(C25O7)2
_chemical_formula_sum   'Zn12 H144 C200 O56'
_cell_volume   40304.68199496
_cell_formula_units_Z   4
loop_
 _symmetry_equiv_pos_site_id
 _symmetry_equiv_pos_as_xyz
  1  'x, y, z'
loop_
 _atom_site_type_symbol
 _atom_site_label
 _atom_site_symmetry_multiplicity
 _atom_site_fract_x
 _atom_site_fract_y
 _atom_site_fract_z
 _atom_site_occupancy
  Zn  Zn1  1  0.99993500  0.04193400  0.49978000  1
  Zn  Zn2  1  0.49993500  0.54193400  0.49978000  1
  Zn  Zn3  1  0.00010100  0.95671400  0.49994700  1
  Zn  Zn4  1  0.50010100  0.45671400  0.49994700  1
  Zn  Zn5  1  0.04274800  0.99766600  0.04269200  1
  Zn  Zn6  1  0.95731400  0.99749200  0.95706700  1
  Zn  Zn7  1  0.54274800  0.49766600  0.04269200  1
  Zn  Zn8  1  0.45731400  0.49749200  0.95706700  1
  Zn  Zn9  1  0.49985600  0.99766900  0.95240300  1
  Zn  Zn10  1  0.50017300  0.99748800  0.04735500  1
  Zn  Zn11  1  0.99985600  0.49766900  0.95240300  1
  Zn  Zn12  1  0.00017300  0.49748800  0.04735500  1
  H  H1  1  0.03104100  0.05034400  0.24533400  1
  H  H2  1  0.96889800  0.04977900  0.75407700  1
  H  H3  1  0.53104100  0.55034400  0.24533400  1
  H  H4  1  0.46889800  0.54977900  0.75407700  1
  H  H5  1  0.03305300  0.04994200  0.31678900  1
  H  H6  1  0.96688800  0.04913300  0.68262500  1
  H  H7  1  0.53305300  0.54994200  0.31678900  1
  H  H8  1  0.46688800  0.54913300  0.68262500  1
  H  H9  1  0.02705700  0.94521000  0.31144000  1
  H  H10  1  0.97311500  0.94441200  0.68865800  1
  H  H11  1  0.52705700  0.44521000  0.31144000  1
  H  H12  1  0.47311500  0.44441200  0.68865800  1
  H  H13  1  0.05896500  0.98478700  0.34544200  1
  H  H14  1  0.94112000  0.98391200  0.65440200  1
  H  H15  1  0.55896500  0.48478700  0.34544200  1
  H  H16  1  0.44112000  0.48391200  0.65440200  1
  H  H17  1  0.05967100  0.98843800  0.27573400  1
  H  H18  1  0.94040800  0.98780300  0.72408600  1
  H  H19  1  0.55967100  0.48843800  0.27573400  1
  H  H20  1  0.44040800  0.48780300  0.72408600  1
  H  H21  1  0.03093200  0.94656000  0.24496400  1
  H  H22  1  0.96924100  0.94599600  0.75512700  1
  H  H23  1  0.53093200  0.44656000  0.24496400  1
  H  H24  1  0.46924100  0.44599600  0.75512700  1
  H  H25  1  0.93940000  0.00314300  0.22278900  1
  H  H26  1  0.06064400  0.00254000  0.77692800  1
  H  H27  1  0.43940000  0.50314300  0.22278900  1
  H  H28  1  0.56064400  0.50254000  0.77692800  1
  H  H29  1  0.95753100  0.95574600  0.24435500  1
  H  H30  1  0.04261700  0.95509100  0.75567200  1
  H  H31  1  0.45753100  0.45574600  0.24435500  1
  H  H32  1  0.54261700  0.45509100  0.75567200  1
  H  H33  1  0.93873100  0.99675500  0.15177400  1
  H  H34  1  0.06132900  0.99639900  0.84798500  1
  H  H35  1  0.43873100  0.49675500  0.15177400  1
  H  H36  1  0.56132900  0.49639900  0.84798500  1
  H  H37  1  0.98272900  0.05748000  0.26812200  1
  H  H38  1  0.01719600  0.05677400  0.73124300  1
  H  H39  1  0.48272900  0.55748000  0.26812200  1
  H  H40  1  0.51719600  0.55677400  0.73124300  1
  H  H41  1  0.96182600  0.95177500  0.17857800  1
  H  H42  1  0.03833400  0.95135400  0.82147600  1
  H  H43  1  0.46182600  0.45177500  0.17857800  1
  H  H44  1  0.53833400  0.45135400  0.82147600  1
  H  H45  1  0.31126100  0.99896700  0.87806000  1
  H  H46  1  0.68876900  0.99523800  0.12175400  1
  H  H47  1  0.81126100  0.49896700  0.87806000  1
  H  H48  1  0.18876900  0.49523800  0.12175400  1
  H  H49  1  0.38003300  0.99811400  0.94762800  1
  H  H50  1  0.61999300  0.99462500  0.05222100  1
  H  H51  1  0.88003300  0.49811400  0.94762800  1
  H  H52  1  0.11999300  0.49462500  0.05222100  1
  H  H53  1  0.38009400  0.99792200  0.81365200  1
  H  H54  1  0.61993700  0.00084600  0.18602400  1
  H  H55  1  0.88009400  0.49792200  0.81365200  1
  H  H56  1  0.11993700  0.50084600  0.18602400  1
  H  H57  1  0.31133200  0.99885400  0.74509500  1
  H  H58  1  0.68870200  0.00148700  0.25454300  1
  H  H59  1  0.81133200  0.49885400  0.74509500  1
  H  H60  1  0.18870200  0.50148700  0.25454300  1
  H  H61  1  0.11983900  0.93995000  0.62364900  1
  H  H62  1  0.87988400  0.93828900  0.37954700  1
  H  H63  1  0.61983900  0.43995000  0.62364900  1
  H  H64  1  0.37988400  0.43828900  0.37954700  1
  H  H65  1  0.12012700  0.06036700  0.61695000  1
  H  H66  1  0.88022000  0.05886900  0.37929400  1
  H  H67  1  0.62012700  0.56036700  0.61695000  1
  H  H68  1  0.38022000  0.55886900  0.37929400  1
  H  H69  1  0.18887900  0.05979700  0.68551000  1
  H  H70  1  0.81147000  0.05868000  0.31074900  1
  H  H71  1  0.68887900  0.55979700  0.68551000  1
  H  H72  1  0.31147000  0.55868000  0.31074900  1
  H  H73  1  0.50113400  0.80888600  0.93375600  1
  H  H74  1  0.49809200  0.80912900  0.06370300  1
  H  H75  1  0.00113400  0.30888600  0.93375600  1
  H  H76  1  0.99809200  0.30912900  0.06370300  1
  H  H77  1  0.50128500  0.87749700  0.93328900  1
  H  H78  1  0.49822000  0.87774300  0.06414800  1
  H  H79  1  0.00128500  0.37749700  0.93328900  1
  H  H80  1  0.99822000  0.37774300  0.06414800  1
  H  H81  1  0.93938600  0.18627200  0.94084600  1
  H  H82  1  0.05934900  0.18601500  0.05667000  1
  H  H83  1  0.43938600  0.68627200  0.94084600  1
  H  H84  1  0.55934900  0.68601500  0.05667000  1
  H  H85  1  0.93882100  0.11766300  0.94046300  1
  H  H86  1  0.05962800  0.11740300  0.05709900  1
  H  H87  1  0.43882100  0.61766300  0.94046300  1
  H  H88  1  0.55962800  0.61740300  0.05709900  1
  H  H89  1  0.49889700  0.18627200  0.06599900  1
  H  H90  1  0.50196700  0.18602300  0.93608000  1
  H  H91  1  0.99889700  0.68627200  0.06599900  1
  H  H92  1  0.00196700  0.68602300  0.93608000  1
  H  H93  1  0.49873600  0.11766200  0.06645900  1
  H  H94  1  0.50182900  0.11741100  0.93562900  1
  H  H95  1  0.99873600  0.61766200  0.06645900  1
  H  H96  1  0.00182900  0.61741100  0.93562900  1
  H  H97  1  0.94069900  0.80914000  0.94277000  1
  H  H98  1  0.06068200  0.80887900  0.05925000  1
  H  H99  1  0.44069900  0.30914000  0.94277000  1
  H  H100  1  0.56068200  0.30887900  0.05925000  1
  H  H101  1  0.94042300  0.87775200  0.94233000  1
  H  H102  1  0.06124900  0.87748800  0.05962900  1
  H  H103  1  0.44042300  0.37775200  0.94233000  1
  H  H104  1  0.56124900  0.37748800  0.05962900  1
  H  H105  1  0.96134200  0.10104700  0.13079200  1
  H  H106  1  0.00701900  0.08125600  0.17144500  1
  H  H107  1  0.02713300  0.11467300  0.25731300  1
  H  H108  1  0.00459300  0.14744500  0.19971700  1
  H  H109  1  0.97878700  0.12881700  0.21794300  1
  H  H110  1  0.03848400  0.10077400  0.86830900  1
  H  H111  1  0.99285200  0.08089500  0.82778000  1
  H  H112  1  0.97266100  0.11406300  0.74170500  1
  H  H113  1  0.99512200  0.14699500  0.79910100  1
  H  H114  1  0.02097400  0.12829400  0.78099200  1
  H  H115  1  0.46134200  0.60104700  0.13079200  1
  H  H116  1  0.50701900  0.58125600  0.17144500  1
  H  H117  1  0.52713300  0.61467300  0.25731300  1
  H  H118  1  0.50459300  0.64744500  0.19971700  1
  H  H119  1  0.47878700  0.62881700  0.21794300  1
  H  H120  1  0.53848400  0.60077400  0.86830900  1
  H  H121  1  0.49285200  0.58089500  0.82778000  1
  H  H122  1  0.47266100  0.61406300  0.74170500  1
  H  H123  1  0.49512200  0.64699500  0.79910100  1
  H  H124  1  0.52097400  0.62829400  0.78099200  1
  H  H125  1  0.17116000  0.90217700  0.72415700  1
  H  H126  1  0.18871900  0.94842000  0.75534500  1
  H  H127  1  0.25395800  0.92784600  0.80581300  1
  H  H128  1  0.23207100  0.89817500  0.82291200  1
  H  H129  1  0.23678400  0.88162100  0.77434200  1
  H  H130  1  0.82834900  0.89834900  0.28125400  1
  H  H131  1  0.81104100  0.94392400  0.24743400  1
  H  H132  1  0.74569200  0.92450000  0.19811000  1
  H  H133  1  0.76741300  0.89277200  0.18277300  1
  H  H134  1  0.76261600  0.87898000  0.23221200  1
  H  H135  1  0.67116000  0.40217700  0.72415700  1
  H  H136  1  0.68871900  0.44842000  0.75534500  1
  H  H137  1  0.75395800  0.42784600  0.80581300  1
  H  H138  1  0.73207100  0.39817500  0.82291200  1
  H  H139  1  0.73678400  0.38162100  0.77434200  1
  H  H140  1  0.32834900  0.39834900  0.28125400  1
  H  H141  1  0.31104100  0.44392400  0.24743400  1
  H  H142  1  0.24569200  0.42450000  0.19811000  1
  H  H143  1  0.26741300  0.39277200  0.18277300  1
  H  H144  1  0.26261600  0.37898000  0.23221200  1
  C  C1  1  0.07384700  0.00023300  0.57401800  1
  C  C2  1  0.92618800  0.99842200  0.42570800  1
  C  C3  1  0.57384700  0.50023300  0.57401800  1
  C  C4  1  0.42618800  0.49842200  0.42570800  1
  C  C5  1  0.00002500  0.00003500  0.41803100  1
  C  C6  1  0.00001300  0.99860100  0.58169700  1
  C  C7  1  0.50002500  0.50003500  0.41803100  1
  C  C8  1  0.50001300  0.49860100  0.58169700  1
  C  C9  1  0.00533700  0.03899500  0.27848700  1
  C  C10  1  0.99462900  0.03828300  0.72099800  1
  C  C11  1  0.50533700  0.53899500  0.27848700  1
  C  C12  1  0.49462900  0.53828300  0.72099800  1
  C  C13  1  0.03168900  0.97454900  0.30548400  1
  C  C14  1  0.96841900  0.97377700  0.69442500  1
  C  C15  1  0.53168900  0.47454900  0.30548400  1
  C  C16  1  0.46841900  0.47377700  0.69442500  1
  C  C17  1  0.03276400  0.97563100  0.25920900  1
  C  C18  1  0.96734300  0.97502000  0.74069300  1
  C  C19  1  0.53276400  0.47563100  0.25920900  1
  C  C20  1  0.46734300  0.47502000  0.74069300  1
  C  C21  1  0.99963000  0.99785700  0.12630700  1
  C  C22  1  0.00042400  0.99761000  0.87344400  1
  C  C23  1  0.49963000  0.49785700  0.12630700  1
  C  C24  1  0.50042400  0.49761000  0.87344400  1
  C  C25  1  0.99989700  0.99932900  0.28930000  1
  C  C26  1  0.00015500  0.99857100  0.71044400  1
  C  C27  1  0.49989700  0.49932900  0.28930000  1
  C  C28  1  0.50015500  0.49857100  0.71044400  1
  C  C29  1  0.00392500  0.03894400  0.22968800  1
  C  C30  1  0.99603900  0.03839900  0.76979900  1
  C  C31  1  0.50392500  0.53894400  0.22968800  1
  C  C32  1  0.49603900  0.53839900  0.76979900  1
  C  C33  1  0.99986200  0.99870900  0.21013400  1
  C  C34  1  0.00019300  0.99822600  0.78961600  1
  C  C35  1  0.49986200  0.49870900  0.21013400  1
  C  C36  1  0.50019300  0.49822600  0.78961600  1
  C  C37  1  0.96340400  0.98171600  0.18973200  1
  C  C38  1  0.03668900  0.98125900  0.81012700  1
  C  C39  1  0.46340400  0.48171600  0.18973200  1
  C  C40  1  0.53668900  0.48125900  0.81012700  1
  C  C41  1  0.96254700  0.98413700  0.23614600  1
  C  C42  1  0.03753900  0.98351700  0.76369600  1
  C  C43  1  0.46254700  0.48413700  0.23614600  1
  C  C44  1  0.53753900  0.48351700  0.76369600  1
  C  C45  1  0.99976400  0.99814300  0.16417900  1
  C  C46  1  0.00029200  0.99780400  0.83557300  1
  C  C47  1  0.49976400  0.49814300  0.16417900  1
  C  C48  1  0.50029200  0.49780400  0.83557300  1
  C  C49  1  0.99995600  0.99965800  0.33522200  1
  C  C50  1  0.00009300  0.99872000  0.66451700  1
  C  C51  1  0.49995600  0.49965800  0.33522200  1
  C  C52  1  0.50009300  0.49872000  0.66451700  1
  C  C53  1  0.99999300  0.99986200  0.37300600  1
  C  C54  1  0.00005200  0.99872600  0.62672900  1
  C  C55  1  0.49999300  0.49986200  0.37300600  1
  C  C56  1  0.50005200  0.49872600  0.62672900  1
  C  C57  1  0.32659600  0.99876400  0.86424400  1
  C  C58  1  0.67343400  0.99649900  0.13553800  1
  C  C59  1  0.82659600  0.49876400  0.86424400  1
  C  C60  1  0.17343400  0.49649900  0.13553800  1
  C  C61  1  0.36541600  0.99827100  0.90332100  1
  C  C62  1  0.63461300  0.99615200  0.09648100  1
  C  C63  1  0.86541600  0.49827100  0.90332100  1
  C  C64  1  0.13461300  0.49615200  0.09648100  1
  C  C65  1  0.38501700  0.99798700  0.88561500  1
  C  C66  1  0.61501200  0.99772200  0.11414900  1
  C  C67  1  0.88501700  0.49798700  0.88561500  1
  C  C68  1  0.11501200  0.49772200  0.11414900  1
  C  C69  1  0.36545000  0.99813000  0.82857300  1
  C  C70  1  0.63458100  0.99958600  0.17113400  1
  C  C71  1  0.86545000  0.49813000  0.82857300  1
  C  C72  1  0.13458100  0.49958600  0.17113400  1
  C  C73  1  0.32663100  0.99868100  0.78967800  1
  C  C74  1  0.67340200  0.99998400  0.21000500  1
  C  C75  1  0.82663100  0.49868100  0.78967800  1
  C  C76  1  0.17340200  0.49998400  0.21000500  1
  C  C77  1  0.30729700  0.99905800  0.80756300  1
  C  C78  1  0.69273600  0.99849300  0.19215600  1
  C  C79  1  0.80729700  0.49905800  0.80756300  1
  C  C80  1  0.19273600  0.49849300  0.19215600  1
  C  C81  1  0.26700200  0.99964800  0.76713000  1
  C  C82  1  0.73303300  0.99887900  0.23256700  1
  C  C83  1  0.76700200  0.49964800  0.76713000  1
  C  C84  1  0.23303300  0.49887900  0.23256700  1
  C  C85  1  0.23312100  0.99996700  0.73328700  1
  C  C86  1  0.76691500  0.99901000  0.26640500  1
  C  C87  1  0.73312100  0.49996700  0.73328700  1
  C  C88  1  0.26691500  0.49901000  0.26640500  1
  C  C89  1  0.17344100  0.96652800  0.67637800  1
  C  C90  1  0.82642000  0.96515800  0.32526600  1
  C  C91  1  0.67344100  0.46652800  0.67637800  1
  C  C92  1  0.32642000  0.46515800  0.32526600  1
  C  C93  1  0.13458300  0.96652200  0.63702600  1
  C  C94  1  0.86527800  0.96496600  0.36462900  1
  C  C95  1  0.63458300  0.46652200  0.63702600  1
  C  C96  1  0.36527800  0.46496600  0.36462900  1
  C  C97  1  0.11507200  0.00015800  0.61545700  1
  C  C98  1  0.88496400  0.99854800  0.38426500  1
  C  C99  1  0.61507200  0.50015800  0.61545700  1
  C  C100  1  0.38496400  0.49854800  0.38426500  1
  C  C101  1  0.13471500  0.03372100  0.63319500  1
  C  C102  1  0.86549600  0.03225900  0.36458600  1
  C  C103  1  0.63471500  0.53372100  0.63319500  1
  C  C104  1  0.36549600  0.53225900  0.36458600  1
  C  C105  1  0.17353300  0.03357200  0.67190300  1
  C  C106  1  0.82667800  0.03232600  0.32587500  1
  C  C107  1  0.67353300  0.53357200  0.67190300  1
  C  C108  1  0.32667800  0.53232600  0.32587500  1
  C  C109  1  0.19281100  0.00003700  0.69323000  1
  C  C110  1  0.80722500  0.99884600  0.30647400  1
  C  C111  1  0.69281100  0.50003700  0.69323000  1
  C  C112  1  0.30722500  0.49884600  0.30647400  1
  C  C113  1  0.99912800  0.07125900  0.99880800  1
  C  C114  1  0.49912800  0.57125900  0.99880800  1
  C  C115  1  0.99941400  0.99767600  0.08111200  1
  C  C116  1  0.00063300  0.99751300  0.91863300  1
  C  C117  1  0.49941400  0.49767600  0.08111200  1
  C  C118  1  0.50063300  0.49751300  0.91863300  1
  C  C119  1  0.00093400  0.92389700  0.00095100  1
  C  C120  1  0.50093400  0.42389700  0.00095100  1
  C  C121  1  0.49985800  0.92389300  0.99872300  1
  C  C122  1  0.99985800  0.42389300  0.99872300  1
  C  C123  1  0.42624000  0.99770300  0.92700500  1
  C  C124  1  0.57378900  0.99753400  0.07277200  1
  C  C125  1  0.92624000  0.49770300  0.92700500  1
  C  C126  1  0.07378900  0.49753400  0.07277200  1
  C  C127  1  0.50017200  0.07126300  0.00103600  1
  C  C128  1  0.00017200  0.57126300  0.00103600  1
  C  C129  1  0.50049600  0.82417400  0.96231800  1
  C  C130  1  0.49879100  0.82431000  0.03513500  1
  C  C131  1  0.00049600  0.32417400  0.96231800  1
  C  C132  1  0.99879100  0.32431000  0.03513500  1
  C  C133  1  0.50057500  0.86295700  0.96222800  1
  C  C134  1  0.49886900  0.86309400  0.03521200  1
  C  C135  1  0.00057500  0.36295700  0.96222800  1
  C  C136  1  0.99886900  0.36309400  0.03521200  1
  C  C137  1  0.49976300  0.88264900  0.99871800  1
  C  C138  1  0.99976300  0.38264900  0.99871800  1
  C  C139  1  0.49960500  0.80486200  0.99873100  1
  C  C140  1  0.99960500  0.30486200  0.99873100  1
  C  C141  1  0.49952600  0.76451700  0.99874000  1
  C  C142  1  0.99952600  0.26451700  0.99874000  1
  C  C143  1  0.99945900  0.23063300  0.99874800  1
  C  C144  1  0.49945900  0.73063300  0.99874800  1
  C  C145  1  0.96572500  0.17098100  0.96631000  1
  C  C146  1  0.03294700  0.17083700  0.03121400  1
  C  C147  1  0.46572500  0.67098100  0.96631000  1
  C  C148  1  0.53294700  0.67083700  0.03121400  1
  C  C149  1  0.96556700  0.13219900  0.96624600  1
  C  C150  1  0.03294300  0.13205400  0.03130500  1
  C  C151  1  0.46556700  0.63219900  0.96624600  1
  C  C152  1  0.53294300  0.63205400  0.03130500  1
  C  C153  1  0.99921400  0.11250300  0.99878400  1
  C  C154  1  0.49921400  0.61250300  0.99878400  1
  C  C155  1  0.99937600  0.19028900  0.99875700  1
  C  C156  1  0.49937600  0.69028900  0.99875700  1
  C  C157  1  0.49954000  0.17098300  0.03744200  1
  C  C158  1  0.50125900  0.17084300  0.96464100  1
  C  C159  1  0.99954000  0.67098300  0.03744200  1
  C  C160  1  0.00125900  0.67084300  0.96464100  1
  C  C161  1  0.49945400  0.13220000  0.03752800  1
  C  C162  1  0.50117600  0.13206100  0.96456000  1
  C  C163  1  0.99945400  0.63220000  0.03752800  1
  C  C164  1  0.00117600  0.63206100  0.96456000  1
  C  C165  1  0.50027100  0.11250600  0.00104400  1
  C  C166  1  0.00027100  0.61250600  0.00104400  1
  C  C167  1  0.50044100  0.19029300  0.00103900  1
  C  C168  1  0.00044100  0.69029300  0.00103900  1
  C  C169  1  0.50052500  0.23063700  0.00103200  1
  C  C170  1  0.00052500  0.73063700  0.00103200  1
  C  C171  1  0.00059600  0.76452000  0.00102400  1
  C  C172  1  0.50059600  0.26452000  0.00102400  1
  C  C173  1  0.96710600  0.82431700  0.96836800  1
  C  C174  1  0.03433900  0.82417100  0.03363900  1
  C  C175  1  0.46710600  0.32431700  0.96836800  1
  C  C176  1  0.53433900  0.32417100  0.03363900  1
  C  C177  1  0.96711200  0.86310000  0.96827600  1
  C  C178  1  0.03449800  0.86295300  0.03369800  1
  C  C179  1  0.46711200  0.36310000  0.96827600  1
  C  C180  1  0.53449800  0.36295300  0.03369800  1
  C  C181  1  0.00084700  0.88265200  0.00097700  1
  C  C182  1  0.50084700  0.38265200  0.00097700  1
  C  C183  1  0.00068200  0.80486400  0.00101200  1
  C  C184  1  0.50068200  0.30486400  0.00101200  1
  C  C185  1  0.98567900  0.09023500  0.17337100  1
  C  C186  1  0.00006700  0.12223500  0.21496800  1
  C  C187  1  0.01417000  0.08985100  0.82579700  1
  C  C188  1  0.99970800  0.12173600  0.78400500  1
  C  C189  1  0.48567900  0.59023500  0.17337100  1
  C  C190  1  0.50006700  0.62223500  0.21496800  1
  C  C191  1  0.51417000  0.58985100  0.82579700  1
  C  C192  1  0.49970800  0.62173600  0.78400500  1
  C  C193  1  0.19349300  0.92328000  0.74029200  1
  C  C194  1  0.23162400  0.90662100  0.78909500  1
  C  C195  1  0.80613300  0.91985900  0.26389700  1
  C  C196  1  0.76791000  0.90289800  0.21605700  1
  C  C197  1  0.69349300  0.42328000  0.74029200  1
  C  C198  1  0.73162400  0.40662100  0.78909500  1
  C  C199  1  0.30613300  0.41985900  0.26389700  1
  C  C200  1  0.26791000  0.40289800  0.21605700  1
  O  O1  1  0.05632100  0.03269800  0.55540200  1
  O  O2  1  0.94387500  0.03082300  0.44252600  1
  O  O3  1  0.55632100  0.53269800  0.55540200  1
  O  O4  1  0.44387500  0.53082300  0.44252600  1
  O  O5  1  0.05619100  0.96781600  0.55725700  1
  O  O6  1  0.94368400  0.96594000  0.44427600  1
  O  O7  1  0.55619100  0.46781600  0.55725700  1
  O  O8  1  0.44368400  0.46594000  0.44427600  1
  O  O9  1  0.00086900  0.03257300  0.43823500  1
  O  O10  1  0.00086400  0.03101900  0.56290100  1
  O  O11  1  0.50086900  0.53257300  0.43823500  1
  O  O12  1  0.50086400  0.53101900  0.56290100  1
  O  O13  1  0.99921200  0.96762000  0.43686700  1
  O  O14  1  0.99912200  0.96606600  0.56144600  1
  O  O15  1  0.49921200  0.46762000  0.43686700  1
  O  O16  1  0.49912200  0.46606600  0.56144600  1
  O  O17  1  0.03162100  0.05357100  0.03044500  1
  O  O18  1  0.96657800  0.05372100  0.96723800  1
  O  O19  1  0.53162100  0.55357100  0.03044500  1
  O  O20  1  0.46657800  0.55372100  0.96723800  1
  O  O21  1  0.03187700  0.99685200  0.09398600  1
  O  O22  1  0.96817100  0.99837500  0.90575900  1
  O  O23  1  0.53187700  0.49685200  0.09398600  1
  O  O24  1  0.46817100  0.49837500  0.90575900  1
  O  O25  1  0.96677700  0.99854300  0.02905800  1
  O  O26  1  0.03327200  0.99669400  0.97068900  1
  O  O27  1  0.46677700  0.49854300  0.02905800  1
  O  O28  1  0.53327200  0.49669400  0.97068900  1
  O  O29  1  0.03348100  0.94143700  0.03253500  1
  O  O30  1  0.96844300  0.94158700  0.96930300  1
  O  O31  1  0.53348100  0.44143700  0.03253500  1
  O  O32  1  0.46844300  0.44158700  0.96930300  1
  O  O33  1  0.50068600  0.94144000  0.96348900  1
  O  O34  1  0.49914100  0.94158100  0.03400900  1
  O  O35  1  0.00068600  0.44144000  0.96348900  1
  O  O36  1  0.99914100  0.44158100  0.03400900  1
  O  O37  1  0.44384000  0.99691400  0.90861800  1
  O  O38  1  0.55619100  0.99840200  0.09115900  1
  O  O39  1  0.94384000  0.49691400  0.90861800  1
  O  O40  1  0.05619100  0.49840200  0.09115900  1
  O  O41  1  0.44382600  0.99851100  0.98069000  1
  O  O42  1  0.55620100  0.99668900  0.01908700  1
  O  O43  1  0.94382600  0.49851100  0.98069000  1
  O  O44  1  0.05620100  0.49668900  0.01908700  1
  O  O45  1  0.50090700  0.05357700  0.96576100  1
  O  O46  1  0.49932500  0.05371800  0.03625700  1
  O  O47  1  0.00090700  0.55357700  0.96576100  1
  O  O48  1  0.99932500  0.55371800  0.03625700  1
  O  O49  1  0.97281000  0.06029700  0.18525200  1
  O  O50  1  0.02710600  0.05986800  0.81409500  1
  O  O51  1  0.47281000  0.56029700  0.18525200  1
  O  O52  1  0.52710600  0.55986800  0.81409500  1
  O  O53  1  0.19277000  0.93326200  0.69734000  1
  O  O54  1  0.80691500  0.93196600  0.30621500  1
  O  O55  1  0.69277000  0.43326200  0.69734000  1
  O  O56  1  0.30691500  0.43196600  0.30621500  1
