# Generated by REPEAT Assigner based on pymatgen
data_DB0-m2_o8_o27_f0_pcu.sym.47_sqe
_audit_creation_date              2022-05-24
_audit_creation_method            REPEAT_Assigner
_cell_length_a                    15.571010
_cell_length_b                    17.042829
_cell_length_c                    19.236547
_cell_angle_alpha                 90.007225
_cell_angle_beta                  92.784807
_cell_angle_gamma                 96.352968
_cell_volume                      5067.462705
_symmetry_space_group_name_H-M    P1
_symmetry_Int_Tables_number       1
loop_
    _symmetry_equiv_pos_site_id
    _symmetry_equiv_pos_as_xyz
    1  x,y,z
loop_
    _atom_site_type_symbol
    _atom_site_label
    _atom_site_fract_x
    _atom_site_fract_y
    _atom_site_fract_z
    _atom_type_partial_charge
    O   O1   0.430632  0.394309  0.500726  -0.591776
    O   O2   0.593697  0.630179  0.498956  -0.649646
    O   O3   0.578843  0.401252  0.511235  -0.645714
    O   O4   0.445591  0.622822  0.490043  -0.609795
    C   C1   0.502204  0.360791  0.507636  0.793343
    C   C2   0.521609  0.663619  0.492826  0.799716
    O   O5   0.436682  0.505209  0.396686  -0.580525
    O   O6   0.587778  0.519844  0.603876  -0.579206
    O   O7   0.584513  0.505332  0.402020  -0.577225
    O   O8   0.439763  0.517960  0.598463  -0.621915
    C   C3   0.510276  0.503113  0.366695  0.610158
    C   C4   0.513761  0.520336  0.633837  0.666288
    Cu  Cu1  0.425904  0.508264  0.497459  0.854990
    Cu  Cu2  0.598475  0.515940  0.502936  0.934389
    C   C5   0.435120  0.506781  0.250739  -0.140305
    C   C6   0.586279  0.529503  0.751779  -0.119512
    H   H1   0.374792  0.511780  0.274938  0.110072
    H   H2   0.648748  0.539790  0.729285  0.104598
    C   C7   0.436526  0.508432  0.179235  0.050825
    C   C8   0.581820  0.527053  0.823181  0.059780
    H   H3   0.377434  0.514801  0.148962  0.078053
    H   H4   0.641512  0.535139  0.854737  0.070146
    C   C9   0.512769  0.504788  0.146236  -0.704879
    C   C10  0.503152  0.512264  0.854193  -0.598218
    C   C11  0.587984  0.494436  0.185642  0.619033
    C   C12  0.427223  0.500635  0.811887  0.460962
    C   C13  0.586145  0.493319  0.257554  -0.317667
    C   C14  0.432676  0.506352  0.740487  -0.123263
    H   H5   0.644752  0.486216  0.288196  0.133336
    H   H6   0.373630  0.498197  0.708195  0.117719
    C   C15  0.510283  0.500665  0.290389  0.060560
    C   C16  0.511515  0.519543  0.710033  -0.065144
    N   N1   0.569097  0.555661  0.036517  -0.404477
    N   N2   0.445512  0.464108  0.964586  -0.088164
    N   N3   0.566426  0.557039  0.967716  -0.340759
    N   N4   0.447779  0.462839  0.033287  -0.515054
    C   C17  0.504205  0.511490  0.930800  0.817784
    C   C18  0.509982  0.508186  0.070058  1.097638
    C   C19  0.495264  0.274388  0.510563  -0.138204
    C   C20  0.523127  0.749906  0.488963  -0.160272
    C   C21  0.566423  0.234975  0.526099  -0.131561
    C   C22  0.445628  0.781729  0.488520  -0.028626
    C   C23  0.557930  0.153366  0.531329  0.182192
    C   C24  0.441126  0.861922  0.483083  -0.287095
    C   C25  0.478269  0.109792  0.513466  -0.055685
    C   C26  0.517969  0.913331  0.479891  0.333618
    C   C27  0.406613  0.150699  0.499182  0.265665
    C   C28  0.596078  0.880230  0.477073  0.066508
    C   C29  0.415577  0.231893  0.499337  -0.303015
    C   C30  0.598338  0.799384  0.482937  -0.179164
    N   N5   0.468527  0.025772  0.514104  -0.093488
    N   N6   0.520104  0.997171  0.476251  -0.244731
    H   H7   0.386262  0.742976  0.491147  0.066992
    H   H8   0.628817  0.268194  0.537233  0.139654
    H   H9   0.358837  0.261977  0.489125  0.170386
    H   H10  0.659456  0.775009  0.481960  0.153294
    N   N7   0.727647  0.521924  0.507508  -0.088350
    N   N8   0.296784  0.502483  0.493063  -0.042480
    C   C31  0.762925  0.461640  0.478522  -0.114185
    C   C32  0.261858  0.559107  0.527536  -0.148858
    C   C33  0.851897  0.463543  0.473381  0.089033
    C   C34  0.173277  0.554657  0.535688  0.068427
    C   C35  0.904380  0.530263  0.498371  0.280612
    C   C36  0.120885  0.490583  0.506146  0.238876
    C   C37  0.866107  0.592206  0.524968  -0.269048
    C   C38  0.158652  0.432423  0.472958  -0.237100
    C   C39  0.777759  0.587225  0.529664  0.018921
    C   C40  0.246837  0.438946  0.466846  0.001992
    N   N9   0.995393  0.539966  0.493530  -0.215692
    N   N10  0.030173  0.480486  0.511916  -0.187960
    H   H11  0.305092  0.607573  0.549198  0.237214
    H   H12  0.719798  0.411877  0.459368  0.185803
    H   H13  0.905974  0.645016  0.542687  0.148990
    H   H14  0.118642  0.381450  0.451512  0.147530
    H   H15  0.749095  0.636395  0.550809  0.120701
    H   H16  0.275601  0.392547  0.441308  0.113149
    C   C41  0.135191  0.615815  0.577946  -0.138295
    C   C42  0.200658  0.664679  0.623614  0.085141
    C   C43  0.240102  0.631195  0.680381  -0.184878
    C   C44  0.301603  0.676180  0.721784  -0.070574
    C   C45  0.323244  0.754794  0.706990  -0.118185
    C   C46  0.282807  0.788697  0.651159  -0.073725
    C   C47  0.221263  0.743881  0.609739  -0.157056
    H   H17  0.086375  0.586018  0.612099  0.137072
    H   H18  0.102855  0.655345  0.541917  0.037450
    H   H19  0.223668  0.569444  0.691845  0.092676
    H   H20  0.333243  0.649890  0.765743  0.079151
    H   H21  0.371762  0.789905  0.739295  0.100869
    H   H22  0.299584  0.850426  0.639679  0.086944
    H   H23  0.190185  0.771119  0.566009  0.115230
    C   C48  0.889837  0.395698  0.440105  -0.201082
    C   C49  0.825645  0.342466  0.397267  0.175499
    C   C50  0.795339  0.268788  0.421726  -0.215989
    C   C51  0.737784  0.218961  0.381017  -0.073202
    C   C52  0.711560  0.242031  0.315441  -0.185114
    C   C53  0.742818  0.314988  0.290685  0.051882
    C   C54  0.799327  0.365395  0.331573  -0.232129
    H   H24  0.918931  0.360359  0.481556  0.038275
    H   H25  0.941013  0.418942  0.405024  0.153862
    H   H26  0.815915  0.249893  0.472901  0.138364
    H   H27  0.713770  0.161519  0.400260  0.091300
    H   H28  0.667076  0.202698  0.283215  0.110949
    H   H29  0.723725  0.332475  0.238936  0.025564
    H   H30  0.823623  0.422498  0.311699  0.090863
    C   C55  0.670761  0.480854  0.153021  -0.693566
    C   C56  0.658449  0.411433  0.104448  0.301922
    C   C57  0.693359  0.417538  0.039693  -0.159229
    C   C58  0.681028  0.354631  0.993892  -0.205491
    C   C59  0.634253  0.285125  0.012688  -0.067282
    C   C60  0.599976  0.278474  0.077438  -0.205992
    C   C61  0.612039  0.341357  0.123319  -0.054178
    H   H31  0.719946  0.469233  0.194139  0.212849
    H   H32  0.696447  0.534745  0.125281  0.135947
    H   H33  0.730267  0.471715  0.024342  0.148212
    H   H34  0.708081  0.359866  0.943170  0.136097
    H   H35  0.624602  0.235806  0.976705  0.105628
    H   H36  0.563385  0.223904  0.092236  0.128518
    H   H37  0.584528  0.335097  0.173823  0.085480
    C   C62  0.337890  0.488808  0.839313  -0.503812
    C   C63  0.310291  0.404046  0.855619  0.186597
    C   C64  0.270571  0.384956  0.917077  -0.184640
    C   C65  0.243171  0.307409  0.932093  -0.107589
    C   C66  0.254183  0.248491  0.885420  -0.107418
    C   C67  0.291947  0.267264  0.823415  -0.112043
    C   C68  0.319432  0.344789  0.808244  -0.185719
    H   H38  0.291012  0.507189  0.799091  0.170195
    H   H39  0.333472  0.527435  0.885053  0.118453
    H   H40  0.260694  0.430628  0.953890  0.131271
    H   H41  0.212704  0.292857  0.980433  0.098660
    H   H42  0.232500  0.187681  0.897151  0.094000
    H   H43  0.299662  0.221127  0.786416  0.105952
    H   H44  0.347570  0.358084  0.758858  0.100599
    C   C69  0.351195  0.885833  0.476639  0.294623
    C   C70  0.323330  0.908467  0.404230  0.186244
    C   C71  0.239279  0.926191  0.393372  -0.331702
    C   C72  0.207555  0.943477  0.327701  0.046093
    C   C73  0.259561  0.942719  0.271941  -0.157929
    C   C74  0.343200  0.924449  0.281955  -0.095465
    C   C75  0.375199  0.906859  0.347570  -0.207402
    H   H45  0.341687  0.930586  0.515948  -0.077149
    H   H46  0.304711  0.835080  0.490353  -0.009608
    H   H47  0.197760  0.926369  0.436796  0.111473
    H   H48  0.141820  0.957653  0.320007  0.070070
    H   H49  0.234821  0.956419  0.220425  0.104934
    H   H50  0.383829  0.923317  0.238052  0.108115
    H   H51  0.440464  0.891236  0.352187  0.120694
    C   C76  0.634366  0.116617  0.561972  -0.370632
    C   C77  0.662651  0.154394  0.630446  0.231913
    C   C78  0.744234  0.194956  0.640319  -0.245576
    C   C79  0.769810  0.229632  0.703833  -0.049019
    C   C80  0.714229  0.223652  0.757674  -0.141300
    C   C81  0.633024  0.182836  0.748068  -0.097146
    C   C82  0.607286  0.148121  0.684599  -0.171347
    H   H52  0.687729  0.125472  0.525774  0.133789
    H   H53  0.619548  0.052849  0.571874  0.155594
    H   H54  0.788383  0.200185  0.598501  0.113840
    H   H55  0.833519  0.261597  0.711388  0.087064
    H   H56  0.734349  0.250888  0.807436  0.106391
    H   H57  0.589501  0.178038  0.790339  0.105825
    H   H58  0.543589  0.115993  0.677477  0.114319
    C   C83  0.317693  0.110775  0.483245  -0.361905
    C   C84  0.284618  0.136259  0.413747  0.365563
    C   C85  0.209595  0.172657  0.407680  -0.285824
    C   C86  0.179171  0.195861  0.343266  -0.016595
    C   C87  0.223479  0.182759  0.284805  -0.187772
    C   C88  0.298380  0.146568  0.290765  -0.080979
    C   C89  0.328974  0.123367  0.355134  -0.213467
    H   H59  0.274800  0.126933  0.524017  0.082847
    H   H60  0.316324  0.046616  0.482665  0.147435
    H   H61  0.174248  0.183291  0.453128  0.113083
    H   H62  0.120449  0.224291  0.338627  0.072015
    H   H63  0.199459  0.200825  0.234300  0.117212
    H   H64  0.332896  0.135911  0.244885  0.105171
    H   H65  0.387370  0.094415  0.359319  0.137804
    C   C90  0.680247  0.930007  0.467810  -0.198197
    C   C91  0.718491  0.905884  0.402667  0.246996
    C   C92  0.796654  0.874417  0.405286  -0.273218
    C   C93  0.831431  0.852278  0.344680  -0.033835
    C   C94  0.788403  0.861676  0.281416  -0.156696
    C   C95  0.710603  0.893352  0.278708  -0.103164
    C   C96  0.675691  0.915482  0.339235  -0.150517
    H   H66  0.724749  0.921194  0.513174  0.064125
    H   H67  0.673341  0.993702  0.464087  0.041727
    H   H68  0.830915  0.866616  0.454596  0.131562
    H   H69  0.892536  0.827587  0.346769  0.083987
    H   H70  0.815770  0.844390  0.233918  0.111104
    H   H71  0.677010  0.900989  0.229082  0.111140
    H   H72  0.614831  0.940589  0.336753  0.089218
