# Generated by REPEAT Assigner based on pymatgen
data_DB0-m2_o2_o15_f0_nbo.sym.60_sqe
_audit_creation_date              2022-05-24
_audit_creation_method            REPEAT_Assigner
_cell_length_a                    30.097520
_cell_length_b                    30.097520
_cell_length_c                    21.566458
_cell_angle_alpha                 90.000000
_cell_angle_beta                  90.000000
_cell_angle_gamma                 90.000000
_cell_volume                      19536.207335
_symmetry_space_group_name_H-M    P1
_symmetry_Int_Tables_number       1
loop_
    _symmetry_equiv_pos_site_id
    _symmetry_equiv_pos_as_xyz
    1  x,y,z
loop_
    _atom_site_type_symbol
    _atom_site_label
    _atom_site_fract_x
    _atom_site_fract_y
    _atom_site_fract_z
    _atom_type_partial_charge
    O   O1    0.463402  0.063358  0.017172  -0.560946
    O   O2    0.063358  0.536597  0.017172  -0.560912
    O   O3    0.536597  0.936642  0.017172  -0.560876
    O   O4    0.936642  0.463403  0.017172  -0.560971
    O   O5    0.536597  0.063358  0.982829  -0.560877
    O   O6    0.936642  0.536598  0.982829  -0.560955
    O   O7    0.463402  0.936642  0.982829  -0.560930
    O   O8    0.063358  0.463402  0.982829  -0.560951
    O   O9    0.963402  0.563358  0.517172  -0.560947
    O   O10   0.563358  0.036598  0.517172  -0.560971
    O   O11   0.036597  0.436642  0.517172  -0.560993
    O   O12   0.436642  0.963403  0.517172  -0.560961
    O   O13   0.036597  0.563358  0.482829  -0.560961
    O   O14   0.436642  0.036598  0.482829  -0.560977
    O   O15   0.963402  0.436642  0.482829  -0.560964
    O   O16   0.563358  0.963403  0.482829  -0.560930
    C   C1    0.500000  0.084229  0.000000  0.563772
    C   C2    0.084229  0.500000  0.000000  0.563786
    C   C3    0.500000  0.915771  0.000000  0.563810
    C   C4    0.915771  0.500000  0.000000  0.563889
    C   C5    0.000000  0.584229  0.500000  0.563839
    C   C6    0.584229  0.000000  0.500000  0.563824
    C   C7    0.000000  0.415771  0.500000  0.563869
    C   C8    0.415771  0.000000  0.500000  0.563862
    O   O17   0.463374  0.987645  0.088428  -0.620088
    O   O18   0.987644  0.536626  0.088428  -0.620113
    O   O19   0.536626  0.012356  0.088428  -0.620110
    O   O20   0.012356  0.463374  0.088428  -0.620113
    O   O21   0.536626  0.987644  0.911572  -0.620103
    O   O22   0.012356  0.536626  0.911572  -0.620150
    O   O23   0.463374  0.012356  0.911572  -0.620087
    O   O24   0.987644  0.463374  0.911573  -0.620171
    O   O25   0.963374  0.487644  0.588428  -0.620144
    O   O26   0.487644  0.036626  0.588428  -0.620094
    O   O27   0.036626  0.512356  0.588428  -0.620135
    O   O28   0.512355  0.963374  0.588428  -0.620094
    O   O29   0.036626  0.487644  0.411572  -0.620102
    O   O30   0.512355  0.036626  0.411572  -0.620123
    O   O31   0.963374  0.512356  0.411573  -0.620093
    O   O32   0.487644  0.963374  0.411572  -0.620145
    C   C9    0.500000  0.000000  0.117528  0.931919
    C   C10   0.000000  0.500000  0.117528  0.931947
    C   C11   0.500000  0.000000  0.882472  0.931891
    C   C12   0.000000  0.500000  0.882472  0.931977
    C   C13   0.000000  0.500000  0.617528  0.931980
    C   C14   0.500000  0.000000  0.617528  0.931935
    C   C15   0.000000  0.500000  0.382472  0.931900
    C   C16   0.500000  0.000000  0.382472  0.931952
    Cu  Cu1   0.456618  0.000000  0.000000  0.930412
    Cu  Cu2   0.000000  0.543381  0.000000  0.930404
    Cu  Cu3   0.543381  0.000000  0.000000  0.930375
    Cu  Cu4   0.000000  0.456619  0.000000  0.930433
    Cu  Cu5   0.956619  0.500000  0.500000  0.930460
    Cu  Cu6   0.500000  0.043381  0.500000  0.930489
    Cu  Cu7   0.043381  0.500000  0.500000  0.930463
    Cu  Cu8   0.500000  0.956619  0.500000  0.930476
    H   H1    0.395378  0.108912  0.193309  0.102994
    H   H2    0.108912  0.604622  0.193310  0.103000
    H   H3    0.604621  0.891088  0.193309  0.102992
    H   H4    0.891088  0.395379  0.193309  0.102987
    H   H5    0.604621  0.108912  0.806691  0.102996
    H   H6    0.891088  0.604622  0.806691  0.103001
    H   H7    0.395378  0.891088  0.806691  0.102999
    H   H8    0.108912  0.395378  0.806691  0.102999
    H   H9    0.895379  0.608912  0.693309  0.102997
    H   H10   0.608912  0.104622  0.693310  0.103002
    H   H11   0.104621  0.391088  0.693309  0.102995
    H   H12   0.391088  0.895379  0.693309  0.102984
    H   H13   0.104621  0.608912  0.306691  0.103002
    H   H14   0.391088  0.104622  0.306691  0.102997
    H   H15   0.895378  0.391088  0.306691  0.102997
    H   H16   0.608912  0.895379  0.306691  0.103004
    C   C17   0.554987  0.941324  0.186467  -0.280662
    C   C18   0.941324  0.445012  0.186467  -0.280659
    C   C19   0.445012  0.058676  0.186467  -0.280652
    C   C20   0.058676  0.554988  0.186467  -0.280641
    C   C21   0.445012  0.941324  0.813534  -0.280643
    C   C22   0.058676  0.445012  0.813534  -0.280626
    C   C23   0.554987  0.058676  0.813534  -0.280643
    C   C24   0.941324  0.554988  0.813534  -0.280621
    C   C25   0.054988  0.441324  0.686467  -0.280671
    C   C26   0.441324  0.945012  0.686467  -0.280670
    C   C27   0.945012  0.558676  0.686467  -0.280653
    C   C28   0.558676  0.054988  0.686467  -0.280651
    C   C29   0.945012  0.441324  0.313534  -0.280667
    C   C30   0.558675  0.945012  0.313534  -0.280599
    C   C31   0.054988  0.558676  0.313534  -0.280661
    C   C32   0.441324  0.054988  0.313534  -0.280652
    C   C33   0.583638  0.914075  0.218314  -0.080817
    C   C34   0.914075  0.416362  0.218314  -0.080826
    C   C35   0.416361  0.085925  0.218314  -0.080834
    C   C36   0.085925  0.583639  0.218314  -0.080844
    C   C37   0.416361  0.914075  0.781687  -0.080843
    C   C38   0.085925  0.416361  0.781687  -0.080852
    C   C39   0.583638  0.085925  0.781687  -0.080839
    C   C40   0.914075  0.583639  0.781687  -0.080856
    C   C41   0.083639  0.414075  0.718314  -0.080834
    C   C42   0.414075  0.916362  0.718314  -0.080823
    C   C43   0.916361  0.585925  0.718314  -0.080840
    C   C44   0.585925  0.083639  0.718314  -0.080852
    C   C45   0.916361  0.414075  0.281687  -0.080839
    C   C46   0.585925  0.916362  0.281687  -0.080885
    C   C47   0.083639  0.585925  0.281687  -0.080847
    C   C48   0.414075  0.083639  0.281687  -0.080846
    C   C49   0.528675  0.972052  0.282137  0.262255
    C   C50   0.972052  0.471325  0.282137  0.262294
    C   C51   0.471325  0.027948  0.282137  0.262270
    C   C52   0.027948  0.528675  0.282137  0.262307
    C   C53   0.471325  0.972052  0.717864  0.262310
    C   C54   0.027948  0.471325  0.717864  0.262291
    C   C55   0.528675  0.027948  0.717864  0.262306
    C   C56   0.972052  0.528675  0.717864  0.262300
    C   C57   0.028675  0.472052  0.782137  0.262219
    C   C58   0.472052  0.971325  0.782137  0.262224
    C   C59   0.971325  0.527948  0.782137  0.262196
    C   C60   0.527948  0.028675  0.782137  0.262243
    C   C61   0.971325  0.472052  0.217864  0.262245
    C   C62   0.527948  0.971325  0.217864  0.262262
    C   C63   0.028675  0.527948  0.217864  0.262240
    C   C64   0.472052  0.028675  0.217864  0.262258
    C   C65   0.500000  0.000000  0.314404  -0.481902
    C   C66   0.000000  0.500000  0.314404  -0.481957
    C   C67   0.500000  0.000000  0.685596  -0.481970
    C   C68   0.000000  0.500000  0.685596  -0.481955
    C   C69   0.000000  0.500000  0.814404  -0.481863
    C   C70   0.500000  0.000000  0.814404  -0.481887
    C   C71   0.000000  0.500000  0.185596  -0.481918
    C   C72   0.500000  0.000000  0.185596  -0.481925
    H   H17   0.554551  0.937868  0.136795  0.163525
    H   H18   0.937868  0.445449  0.136795  0.163533
    H   H19   0.445449  0.062132  0.136795  0.163528
    H   H20   0.062132  0.554551  0.136795  0.163513
    H   H21   0.445449  0.937868  0.863206  0.163528
    H   H22   0.062132  0.445449  0.863206  0.163523
    H   H23   0.554551  0.062132  0.863206  0.163515
    H   H24   0.937868  0.554551  0.863206  0.163523
    H   H25   0.054551  0.437868  0.636795  0.163549
    H   H26   0.437868  0.945449  0.636795  0.163552
    H   H27   0.945449  0.562132  0.636795  0.163540
    H   H28   0.562132  0.054551  0.636795  0.163537
    H   H29   0.945449  0.437868  0.363206  0.163540
    H   H30   0.562132  0.945449  0.363206  0.163530
    H   H31   0.054551  0.562132  0.363206  0.163533
    H   H32   0.437868  0.054551  0.363206  0.163548
    C   C73   0.535815  0.201852  0.976363  -0.163524
    C   C74   0.201852  0.464185  0.976363  -0.163528
    C   C75   0.464184  0.798148  0.976363  -0.163513
    C   C76   0.798148  0.535815  0.976362  -0.163503
    C   C77   0.464185  0.201852  0.023638  -0.163535
    C   C78   0.798148  0.464185  0.023638  -0.163516
    C   C79   0.535815  0.798148  0.023638  -0.163506
    C   C80   0.201852  0.535815  0.023638  -0.163531
    C   C81   0.035815  0.701852  0.476363  -0.163563
    C   C82   0.701852  0.964185  0.476363  -0.163544
    C   C83   0.964185  0.298148  0.476363  -0.163515
    C   C84   0.298148  0.035815  0.476363  -0.163526
    C   C85   0.964185  0.701852  0.523638  -0.163532
    C   C86   0.298148  0.964185  0.523638  -0.163516
    C   C87   0.035815  0.298148  0.523638  -0.163532
    C   C88   0.701852  0.035815  0.523638  -0.163570
    H   H33   0.564572  0.219223  0.958709  0.121897
    H   H34   0.219223  0.435427  0.958709  0.121896
    H   H35   0.435427  0.780777  0.958709  0.121891
    H   H36   0.780777  0.564572  0.958708  0.121889
    H   H37   0.435427  0.219223  0.041292  0.121892
    H   H38   0.780777  0.435428  0.041292  0.121886
    H   H39   0.564572  0.780777  0.041291  0.121891
    H   H40   0.219223  0.564573  0.041291  0.121898
    H   H41   0.064572  0.719223  0.458709  0.121903
    H   H42   0.719223  0.935428  0.458709  0.121898
    H   H43   0.935427  0.280777  0.458709  0.121888
    H   H44   0.280777  0.064573  0.458709  0.121892
    H   H45   0.935428  0.719223  0.541292  0.121896
    H   H46   0.280777  0.935428  0.541292  0.121887
    H   H47   0.064572  0.280777  0.541291  0.121893
    H   H48   0.719223  0.064572  0.541292  0.121904
    C   C89   0.535895  0.156062  0.976522  -0.171648
    C   C90   0.156062  0.464105  0.976522  -0.171652
    C   C91   0.464105  0.843938  0.976522  -0.171641
    C   C92   0.843938  0.535895  0.976522  -0.171685
    C   C93   0.464105  0.156062  0.023479  -0.171634
    C   C94   0.843938  0.464106  0.023479  -0.171660
    C   C95   0.535894  0.843938  0.023479  -0.171655
    C   C96   0.156062  0.535895  0.023479  -0.171656
    C   C97   0.035895  0.656062  0.476522  -0.171615
    C   C98   0.656061  0.964105  0.476522  -0.171645
    C   C99   0.964105  0.343938  0.476522  -0.171664
    C   C100  0.343938  0.035895  0.476522  -0.171668
    C   C101  0.964105  0.656062  0.523479  -0.171637
    C   C102  0.343938  0.964105  0.523479  -0.171658
    C   C103  0.035895  0.343938  0.523479  -0.171670
    C   C104  0.656061  0.035895  0.523479  -0.171641
    H   H49   0.564391  0.138795  0.957875  0.149843
    H   H50   0.138795  0.435608  0.957875  0.149853
    H   H51   0.435608  0.861205  0.957875  0.149848
    H   H52   0.861205  0.564392  0.957874  0.149861
    H   H53   0.435608  0.138795  0.042126  0.149852
    H   H54   0.861205  0.435609  0.042126  0.149860
    H   H55   0.564391  0.861205  0.042126  0.149841
    H   H56   0.138795  0.564392  0.042126  0.149850
    H   H57   0.064392  0.638795  0.457875  0.149846
    H   H58   0.638795  0.935609  0.457875  0.149853
    H   H59   0.935608  0.361205  0.457875  0.149863
    H   H60   0.361205  0.064392  0.457875  0.149861
    H   H61   0.935608  0.638795  0.542126  0.149849
    H   H62   0.361205  0.935608  0.542126  0.149861
    H   H63   0.064392  0.361205  0.542126  0.149866
    H   H64   0.638795  0.064392  0.542126  0.149863
    C   C105  0.500000  0.132902  0.000000  0.075301
    C   C106  0.132902  0.500000  0.000000  0.075316
    C   C107  0.500000  0.867098  0.000000  0.075280
    C   C108  0.867098  0.500000  0.000000  0.075300
    C   C109  0.000000  0.632902  0.500000  0.075268
    C   C110  0.632902  0.000000  0.500000  0.075302
    C   C111  0.000000  0.367098  0.500000  0.075305
    C   C112  0.367098  0.000000  0.500000  0.075308
    C   C113  0.500000  0.225069  0.000000  0.213797
    C   C114  0.225069  0.500000  0.000000  0.213807
    C   C115  0.500000  0.774931  0.000000  0.213781
    C   C116  0.774931  0.500000  0.000000  0.213797
    C   C117  0.000000  0.725069  0.500000  0.213807
    C   C118  0.725069  0.000000  0.500000  0.213809
    C   C119  0.000000  0.274931  0.500000  0.213804
    C   C120  0.274931  0.000000  0.500000  0.213787
    C   C121  0.484270  0.297012  0.050548  -0.145847
    C   C122  0.297012  0.515731  0.050548  -0.145867
    C   C123  0.515730  0.702989  0.050548  -0.145882
    C   C124  0.702989  0.484270  0.050548  -0.145845
    C   C125  0.515730  0.297011  0.949452  -0.145852
    C   C126  0.702989  0.515730  0.949452  -0.145801
    C   C127  0.484269  0.702989  0.949452  -0.145840
    C   C128  0.297011  0.484269  0.949452  -0.145860
    C   C129  0.984270  0.797011  0.550548  -0.145839
    C   C130  0.797011  0.015730  0.550548  -0.145848
    C   C131  0.015730  0.202989  0.550548  -0.145853
    C   C132  0.202988  0.984270  0.550548  -0.145858
    C   C133  0.015730  0.797011  0.449452  -0.145845
    C   C134  0.202988  0.015730  0.449452  -0.145855
    C   C135  0.984269  0.202989  0.449452  -0.145834
    C   C136  0.797011  0.984270  0.449452  -0.145835
    H   H65   0.471738  0.279366  0.090508  0.089933
    H   H66   0.279366  0.528262  0.090507  0.089939
    H   H67   0.528262  0.720634  0.090507  0.089948
    H   H68   0.720634  0.471739  0.090508  0.089941
    H   H69   0.528262  0.279366  0.909492  0.089931
    H   H70   0.720634  0.528261  0.909492  0.089924
    H   H71   0.471738  0.720634  0.909492  0.089932
    H   H72   0.279366  0.471738  0.909493  0.089926
    H   H73   0.971738  0.779366  0.590508  0.089926
    H   H74   0.779366  0.028262  0.590508  0.089934
    H   H75   0.028262  0.220634  0.590508  0.089938
    H   H76   0.220634  0.971738  0.590508  0.089935
    H   H77   0.028262  0.779366  0.409493  0.089934
    H   H78   0.220634  0.028262  0.409493  0.089932
    H   H79   0.971738  0.220634  0.409493  0.089928
    H   H80   0.779366  0.971738  0.409493  0.089925
    C   C137  0.483618  0.342822  0.050698  0.013332
    C   C138  0.342822  0.516382  0.050698  0.013362
    C   C139  0.516382  0.657178  0.050698  0.013424
    C   C140  0.657178  0.483619  0.050698  0.013384
    C   C141  0.516382  0.342822  0.949301  0.013333
    C   C142  0.657178  0.516381  0.949301  0.013237
    C   C143  0.483618  0.657178  0.949301  0.013273
    C   C144  0.342822  0.483618  0.949301  0.013382
    C   C145  0.983618  0.842822  0.550699  0.013315
    C   C146  0.842822  0.016382  0.550699  0.013314
    C   C147  0.016382  0.157178  0.550699  0.013326
    C   C148  0.157178  0.983618  0.550699  0.013329
    C   C149  0.016382  0.842822  0.449302  0.013304
    C   C150  0.157178  0.016382  0.449302  0.013350
    C   C151  0.983618  0.157178  0.449302  0.013319
    C   C152  0.842822  0.983618  0.449302  0.013317
    C   C153  0.500000  0.366416  0.000000  0.017007
    C   C154  0.366416  0.500000  0.000000  0.016951
    C   C155  0.500000  0.633584  0.999999  0.016971
    C   C156  0.633584  0.500000  0.000000  0.017030
    C   C157  0.000000  0.866416  0.500000  0.017015
    C   C158  0.866415  0.000000  0.500000  0.017018
    C   C159  0.000000  0.133584  0.500000  0.017040
    C   C160  0.133584  0.000000  0.500000  0.017024
    C   C161  0.500000  0.273855  0.000000  -0.022104
    C   C162  0.273855  0.500000  0.000000  -0.022109
    C   C163  0.500000  0.726145  0.000000  -0.022107
    C   C164  0.726145  0.500000  0.000000  -0.022143
    C   C165  0.000000  0.773855  0.500000  -0.022104
    C   C166  0.773855  0.000000  0.500000  -0.022106
    C   C167  0.000000  0.226145  0.500000  -0.022119
    C   C168  0.226144  0.000000  0.500000  -0.022103
    O   O33   0.563501  0.511684  0.051240  -0.422074
    O   O34   0.511684  0.436499  0.051240  -0.422115
    O   O35   0.436499  0.488316  0.051240  -0.422112
    O   O36   0.488316  0.563501  0.051240  -0.422075
    O   O37   0.436499  0.511684  0.948759  -0.422118
    O   O38   0.488316  0.436499  0.948759  -0.422132
    O   O39   0.563501  0.488316  0.948759  -0.422081
    O   O40   0.511684  0.563501  0.948759  -0.422048
    O   O41   0.063501  0.011684  0.551241  -0.422113
    O   O42   0.011684  0.936499  0.551241  -0.422133
    O   O43   0.936499  0.988316  0.551241  -0.422125
    O   O44   0.988316  0.063501  0.551241  -0.422131
    O   O45   0.936499  0.011684  0.448760  -0.422137
    O   O46   0.988316  0.936499  0.448760  -0.422133
    O   O47   0.063501  0.988316  0.448760  -0.422121
    O   O48   0.011684  0.063501  0.448760  -0.422130
    C   C169  0.584541  0.500000  0.999999  0.461816
    C   C170  0.500000  0.415459  0.000000  0.461925
    C   C171  0.415459  0.500000  0.000000  0.461905
    C   C172  0.500000  0.584542  0.999999  0.461773
    C   C173  0.084541  0.000000  0.500000  0.461880
    C   C174  0.000000  0.915459  0.500000  0.461958
    C   C175  0.915458  0.000000  0.500000  0.461940
    C   C176  0.000000  0.084541  0.500000  0.461900
    Cu  Cu9   0.500000  0.500000  0.060620  0.789522
    Cu  Cu10  0.500000  0.500000  0.939379  0.789600
    Cu  Cu11  0.000000  0.000000  0.560620  0.789537
    Cu  Cu12  0.000000  0.000000  0.439380  0.789492
    C   C177  0.462558  0.364801  0.103644  0.094666
    C   C178  0.478642  0.358054  0.162840  -0.033324
    C   C179  0.458159  0.377949  0.212811  -0.025325
    Cl  Cl1   0.479653  0.370535  0.287509  -0.079879
    C   C180  0.420523  0.403257  0.204055  -0.029624
    C   C181  0.403261  0.408303  0.145334  -0.162237
    C   C182  0.424282  0.389238  0.095316  -0.163427
    H   H81   0.507514  0.337422  0.170258  0.077184
    H   H82   0.404150  0.418485  0.243271  0.093531
    H   H83   0.373048  0.426886  0.138298  0.125397
    H   H84   0.410203  0.392842  0.049694  0.102452
    C   C183  0.364801  0.537442  0.103643  0.094689
    C   C184  0.358054  0.521360  0.162839  -0.033357
    C   C185  0.377950  0.541842  0.212810  -0.025294
    Cl  Cl2   0.370536  0.520349  0.287509  -0.079879
    C   C186  0.403257  0.579479  0.204053  -0.029664
    C   C187  0.408303  0.596740  0.145332  -0.162209
    C   C188  0.389238  0.575720  0.095314  -0.163426
    H   H85   0.337423  0.492487  0.170258  0.077185
    H   H86   0.418485  0.595852  0.243269  0.093541
    H   H87   0.426886  0.626954  0.138295  0.125386
    H   H88   0.392841  0.589798  0.049692  0.102410
    C   C189  0.537442  0.635199  0.103643  0.094586
    C   C190  0.521359  0.641945  0.162839  -0.033213
    C   C191  0.541842  0.622050  0.212810  -0.025402
    Cl  Cl3   0.520349  0.629463  0.287508  -0.079863
    C   C192  0.579479  0.596743  0.204052  -0.029565
    C   C193  0.596740  0.591697  0.145332  -0.162268
    C   C194  0.575719  0.610763  0.095314  -0.163401
    H   H89   0.492486  0.662577  0.170258  0.077155
    H   H90   0.595852  0.581515  0.243268  0.093520
    H   H91   0.626954  0.573115  0.138294  0.125396
    H   H92   0.589798  0.607159  0.049691  0.102419
    C   C195  0.635199  0.462559  0.103644  0.094573
    C   C196  0.641946  0.478642  0.162840  -0.033200
    C   C197  0.622051  0.458159  0.212811  -0.025424
    Cl  Cl4   0.629465  0.479654  0.287509  -0.079870
    C   C198  0.596743  0.420523  0.204054  -0.029532
    C   C199  0.591697  0.403261  0.145334  -0.162288
    C   C200  0.610762  0.424282  0.095315  -0.163417
    H   H93   0.662578  0.507515  0.170258  0.077156
    H   H94   0.581515  0.404150  0.243271  0.093512
    H   H95   0.573114  0.373048  0.138297  0.125402
    H   H96   0.607158  0.410203  0.049694  0.102475
    C   C201  0.537441  0.364801  0.896356  0.094596
    C   C202  0.521358  0.358053  0.837160  -0.033235
    C   C203  0.541841  0.377948  0.787189  -0.025411
    Cl  Cl5   0.520347  0.370534  0.712490  -0.079873
    C   C204  0.579477  0.403256  0.795945  -0.029474
    C   C205  0.596739  0.408303  0.854665  -0.162497
    C   C206  0.575718  0.389238  0.904684  -0.163256
    H   H97   0.492486  0.337421  0.829741  0.077171
    H   H98   0.595850  0.418484  0.756729  0.093496
    H   H99   0.626952  0.426886  0.861702  0.125501
    H   H100  0.589797  0.392842  0.950306  0.102398
    C   C207  0.635200  0.537441  0.896355  0.094710
    C   C208  0.641947  0.521357  0.837159  -0.033133
    C   C209  0.622053  0.541839  0.787187  -0.025471
    Cl  Cl6   0.629467  0.520345  0.712490  -0.079849
    C   C210  0.596744  0.579475  0.795943  -0.029468
    C   C211  0.591697  0.596737  0.854663  -0.162358
    C   C212  0.610762  0.575718  0.904682  -0.163601
    H   H101  0.662580  0.492485  0.829741  0.077117
    H   H102  0.581516  0.595847  0.756726  0.093490
    H   H103  0.573113  0.626951  0.861699  0.125451
    H   H104  0.607157  0.589796  0.950304  0.102603
    C   C213  0.462559  0.635200  0.896355  0.094894
    C   C214  0.478642  0.641948  0.837159  -0.033388
    C   C215  0.458160  0.622053  0.787188  -0.025301
    Cl  Cl7   0.479654  0.629467  0.712490  -0.079877
    C   C216  0.420525  0.596744  0.795943  -0.029647
    C   C217  0.403262  0.591697  0.854663  -0.162057
    C   C218  0.424282  0.610762  0.904683  -0.163831
    H   H105  0.507514  0.662580  0.829742  0.077181
    H   H106  0.404152  0.581516  0.756726  0.093528
    H   H107  0.373049  0.573113  0.861700  0.125334
    H   H108  0.410204  0.607157  0.950304  0.102666
    C   C219  0.364801  0.462558  0.896356  0.094584
    C   C220  0.358053  0.478641  0.837160  -0.033179
    C   C221  0.377948  0.458159  0.787189  -0.025482
    Cl  Cl8   0.370534  0.479653  0.712490  -0.079863
    C   C222  0.403256  0.420523  0.795945  -0.029527
    C   C223  0.408303  0.403261  0.854666  -0.162292
    C   C224  0.389238  0.424281  0.904684  -0.163354
    H   H109  0.337421  0.507514  0.829741  0.077167
    H   H110  0.418484  0.404150  0.756729  0.093520
    H   H111  0.426886  0.373047  0.861702  0.125395
    H   H112  0.392842  0.410203  0.950306  0.102437
    C   C225  0.962558  0.864801  0.603644  0.094605
    C   C226  0.978641  0.858054  0.662840  -0.033180
    C   C227  0.958159  0.877949  0.712811  -0.025450
    Cl  Cl9   0.979653  0.870535  0.787510  -0.079869
    C   C228  0.920523  0.903256  0.704055  -0.029559
    C   C229  0.903261  0.908303  0.645334  -0.162271
    C   C230  0.924281  0.889238  0.595316  -0.163369
    H   H113  0.007514  0.837422  0.670259  0.077150
    H   H114  0.904150  0.918485  0.743271  0.093524
    H   H115  0.873047  0.926886  0.638298  0.125394
    H   H116  0.910203  0.892842  0.549694  0.102437
    C   C231  0.864801  0.037441  0.603644  0.094690
    C   C232  0.858053  0.021358  0.662840  -0.033313
    C   C233  0.877948  0.041841  0.712811  -0.025331
    Cl  Cl10  0.870535  0.020347  0.787510  -0.079876
    C   C234  0.903256  0.079477  0.704055  -0.029629
    C   C235  0.908303  0.096739  0.645335  -0.162207
    C   C236  0.889238  0.075718  0.595316  -0.163456
    H   H117  0.837421  0.992486  0.670259  0.077178
    H   H118  0.918484  0.095850  0.743272  0.093529
    H   H119  0.926886  0.126952  0.638298  0.125380
    H   H120  0.892842  0.089797  0.549694  0.102457
    C   C237  0.037442  0.135199  0.603644  0.094660
    C   C238  0.021359  0.141946  0.662840  -0.033232
    C   C239  0.041841  0.122051  0.712811  -0.025384
    Cl  Cl11  0.020347  0.129465  0.787509  -0.079866
    C   C240  0.079477  0.096744  0.704054  -0.029597
    C   C241  0.096739  0.091697  0.645334  -0.162225
    C   C242  0.075719  0.110762  0.595315  -0.163474
    H   H121  0.992486  0.162578  0.670259  0.077158
    H   H122  0.095850  0.081515  0.743271  0.093522
    H   H123  0.126953  0.073114  0.638297  0.125388
    H   H124  0.089797  0.107158  0.549694  0.102476
    C   C243  0.135199  0.962558  0.603644  0.094723
    C   C244  0.141946  0.978641  0.662840  -0.033384
    C   C245  0.122051  0.958159  0.712811  -0.025290
    Cl  Cl12  0.129464  0.979653  0.787509  -0.079878
    C   C246  0.096743  0.920523  0.704054  -0.029633
    C   C247  0.091697  0.903261  0.645334  -0.162205
    C   C248  0.110762  0.924281  0.595315  -0.163476
    H   H125  0.162578  0.007514  0.670259  0.077194
    H   H126  0.081515  0.904149  0.743271  0.093528
    H   H127  0.073114  0.873047  0.638297  0.125383
    H   H128  0.107158  0.910203  0.549693  0.102465
    C   C249  0.037441  0.864801  0.396356  0.094725
    C   C250  0.021358  0.858053  0.337160  -0.033349
    C   C251  0.041840  0.877948  0.287189  -0.025294
    Cl  Cl13  0.020346  0.870534  0.212491  -0.079876
    C   C252  0.079476  0.903256  0.295945  -0.029666
    C   C253  0.096738  0.908303  0.354665  -0.162177
    C   C254  0.075718  0.889238  0.404684  -0.163481
    H   H129  0.992485  0.837421  0.329742  0.077178
    H   H130  0.095849  0.918484  0.256728  0.093533
    H   H131  0.126952  0.926886  0.361702  0.125374
    H   H132  0.089797  0.892842  0.450306  0.102457
    C   C255  0.135199  0.037442  0.396356  0.094665
    C   C256  0.141947  0.021358  0.337160  -0.033345
    C   C257  0.122052  0.041841  0.287189  -0.025312
    Cl  Cl14  0.129466  0.020347  0.212491  -0.079880
    C   C258  0.096744  0.079477  0.295945  -0.029630
    C   C259  0.091697  0.096739  0.354665  -0.162219
    C   C260  0.110762  0.075718  0.404684  -0.163426
    H   H133  0.162579  0.992486  0.329742  0.077196
    H   H134  0.081515  0.095849  0.256729  0.093533
    H   H135  0.073114  0.126952  0.361702  0.125383
    H   H136  0.107158  0.089797  0.450306  0.102439
    C   C261  0.962558  0.135199  0.396356  0.094595
    C   C262  0.978641  0.141946  0.337160  -0.033202
    C   C263  0.958159  0.122051  0.287189  -0.025445
    Cl  Cl15  0.979653  0.129465  0.212491  -0.079864
    C   C264  0.920523  0.096744  0.295946  -0.029537
    C   C265  0.903261  0.091697  0.354666  -0.162290
    C   C266  0.924281  0.110762  0.404685  -0.163361
    H   H137  0.007514  0.162579  0.329742  0.077162
    H   H138  0.904150  0.081515  0.256729  0.093520
    H   H139  0.873047  0.073114  0.361703  0.125394
    H   H140  0.910203  0.107158  0.450307  0.102442
    C   C267  0.864801  0.962558  0.396356  0.094603
    C   C268  0.858053  0.978642  0.337160  -0.033181
    C   C269  0.877948  0.958159  0.287189  -0.025464
    Cl  Cl16  0.870535  0.979653  0.212491  -0.079857
    C   C270  0.903256  0.920523  0.295946  -0.029537
    C   C271  0.908303  0.903261  0.354666  -0.162291
    C   C272  0.889237  0.924282  0.404685  -0.163372
    H   H141  0.837421  0.007514  0.329742  0.077157
    H   H142  0.918484  0.904150  0.256729  0.093516
    H   H143  0.926886  0.873048  0.361703  0.125403
    H   H144  0.892842  0.910203  0.450306  0.102445
