# generated using pymatgen
data_Cu3H40(C23O6)2
_symmetry_space_group_name_H-M   'P 1'
_cell_length_a   30.05683000
_cell_length_b   30.05683000
_cell_length_c   23.50564600
_cell_angle_alpha   90.00000000
_cell_angle_beta   90.00000000
_cell_angle_gamma   90.00000000
_symmetry_Int_Tables_number   1
_chemical_formula_structural   Cu3H40(C23O6)2
_chemical_formula_sum   'Cu12 H160 C184 O48'
_cell_volume   21235.30686671
_cell_formula_units_Z   4
loop_
 _symmetry_equiv_pos_site_id
 _symmetry_equiv_pos_as_xyz
  1  'x, y, z'
loop_
 _atom_site_type_symbol
 _atom_site_label
 _atom_site_symmetry_multiplicity
 _atom_site_fract_x
 _atom_site_fract_y
 _atom_site_fract_z
 _atom_site_occupancy
  Cu  Cu1  1  0.50000000  0.04347500  0.50000000  1
  Cu  Cu2  1  0.95652500  0.50000000  0.50000000  1
  Cu  Cu3  1  0.50000000  0.95652500  0.50000000  1
  Cu  Cu4  1  0.04347500  0.50000000  0.50000000  1
  Cu  Cu5  1  0.00000000  0.54347500  0.00000000  1
  Cu  Cu6  1  0.45652500  0.00000000  0.00000000  1
  Cu  Cu7  1  0.00000000  0.45652500  0.00000000  1
  Cu  Cu8  1  0.54347500  0.00000000  0.00000000  1
  Cu  Cu9  1  0.00000000  0.00000000  0.55558200  1
  Cu  Cu10  1  0.00000000  0.00000000  0.44441800  1
  Cu  Cu11  1  0.50000000  0.50000000  0.05558200  1
  Cu  Cu12  1  0.50000000  0.50000000  0.94441800  1
  H  H1  1  0.71949500  0.93035500  0.48128800  1
  H  H2  1  0.06964500  0.71949500  0.48128800  1
  H  H3  1  0.28050500  0.06964500  0.48128800  1
  H  H4  1  0.93035500  0.28050500  0.48128800  1
  H  H5  1  0.28050500  0.93035500  0.51871200  1
  H  H6  1  0.93035500  0.71949500  0.51871200  1
  H  H7  1  0.71949500  0.06964500  0.51871200  1
  H  H8  1  0.06964500  0.28050500  0.51871200  1
  H  H9  1  0.21949500  0.43035500  0.98128800  1
  H  H10  1  0.56964500  0.21949500  0.98128800  1
  H  H11  1  0.78050500  0.56964500  0.98128800  1
  H  H12  1  0.43035500  0.78050500  0.98128800  1
  H  H13  1  0.78050500  0.43035500  0.01871200  1
  H  H14  1  0.43035500  0.21949500  0.01871200  1
  H  H15  1  0.21949500  0.56964500  0.01871200  1
  H  H16  1  0.56964500  0.78050500  0.01871200  1
  H  H17  1  0.63908100  0.93051400  0.48018400  1
  H  H18  1  0.06948600  0.63908100  0.48018400  1
  H  H19  1  0.36091900  0.06948600  0.48018400  1
  H  H20  1  0.93051400  0.36091900  0.48018400  1
  H  H21  1  0.36091900  0.93051400  0.51981600  1
  H  H22  1  0.93051400  0.63908100  0.51981600  1
  H  H23  1  0.63908100  0.06948600  0.51981600  1
  H  H24  1  0.06948600  0.36091900  0.51981600  1
  H  H25  1  0.13908100  0.43051400  0.98018400  1
  H  H26  1  0.56948600  0.13908100  0.98018400  1
  H  H27  1  0.86091900  0.56948600  0.98018400  1
  H  H28  1  0.43051400  0.86091900  0.98018400  1
  H  H29  1  0.86091900  0.43051400  0.01981600  1
  H  H30  1  0.43051400  0.13908100  0.01981600  1
  H  H31  1  0.13908100  0.56948600  0.01981600  1
  H  H32  1  0.56948600  0.86091900  0.01981600  1
  H  H33  1  0.78002500  0.04373500  0.57138200  1
  H  H34  1  0.95626500  0.78002500  0.57138200  1
  H  H35  1  0.21997500  0.95626500  0.57138200  1
  H  H36  1  0.04373600  0.21997500  0.57138200  1
  H  H37  1  0.21997600  0.04373500  0.42861800  1
  H  H38  1  0.04373500  0.78002500  0.42861800  1
  H  H39  1  0.78002500  0.95626500  0.42861800  1
  H  H40  1  0.95626500  0.21997500  0.42861800  1
  H  H41  1  0.28002500  0.54373600  0.07138200  1
  H  H42  1  0.45626400  0.28002500  0.07138200  1
  H  H43  1  0.71997500  0.45626400  0.07138200  1
  H  H44  1  0.54373600  0.71997500  0.07138200  1
  H  H45  1  0.71997600  0.54373600  0.92861800  1
  H  H46  1  0.54373600  0.28002500  0.92861800  1
  H  H47  1  0.28002500  0.45626400  0.92861800  1
  H  H48  1  0.45626400  0.71997500  0.92861800  1
  H  H49  1  0.93725300  0.05288800  0.65628300  1
  H  H50  1  0.89424400  0.09092500  0.67986100  1
  H  H51  1  0.90429500  0.03972000  0.71830600  1
  H  H52  1  0.83715300  0.03167300  0.65983700  1
  H  H53  1  0.88085600  0.99665700  0.63222900  1
  H  H54  1  0.89949800  0.06561900  0.56646800  1
  H  H55  1  0.84634700  0.08567200  0.58706700  1
  H  H56  1  0.94711200  0.93725300  0.65628300  1
  H  H57  1  0.90907500  0.89424400  0.67986100  1
  H  H58  1  0.96028000  0.90429500  0.71830600  1
  H  H59  1  0.96832700  0.83715300  0.65983700  1
  H  H60  1  0.00334300  0.88085600  0.63222900  1
  H  H61  1  0.93438100  0.89949800  0.56646800  1
  H  H62  1  0.91432800  0.84634700  0.58706700  1
  H  H63  1  0.06274700  0.94711200  0.65628300  1
  H  H64  1  0.10575700  0.90907500  0.67986100  1
  H  H65  1  0.09570600  0.96028000  0.71830600  1
  H  H66  1  0.16284700  0.96832700  0.65983700  1
  H  H67  1  0.11914400  0.00334300  0.63222900  1
  H  H68  1  0.10050200  0.93438100  0.56646800  1
  H  H69  1  0.15365300  0.91432800  0.58706700  1
  H  H70  1  0.05288800  0.06274700  0.65628300  1
  H  H71  1  0.09092500  0.10575600  0.67986100  1
  H  H72  1  0.03972000  0.09570500  0.71830600  1
  H  H73  1  0.03167300  0.16284700  0.65983700  1
  H  H74  1  0.99665700  0.11914400  0.63222900  1
  H  H75  1  0.06561900  0.10050200  0.56646800  1
  H  H76  1  0.08567200  0.15365300  0.58706700  1
  H  H77  1  0.06274700  0.05288800  0.34371700  1
  H  H78  1  0.10575700  0.09092500  0.32013900  1
  H  H79  1  0.09570600  0.03972000  0.28169400  1
  H  H80  1  0.16284700  0.03167300  0.34016300  1
  H  H81  1  0.11914400  0.99665700  0.36777100  1
  H  H82  1  0.10050200  0.06561900  0.43353200  1
  H  H83  1  0.15365300  0.08567200  0.41293300  1
  H  H84  1  0.05288800  0.93725300  0.34371700  1
  H  H85  1  0.09092500  0.89424400  0.32013900  1
  H  H86  1  0.03972000  0.90429500  0.28169400  1
  H  H87  1  0.03167300  0.83715300  0.34016300  1
  H  H88  1  0.99665700  0.88085600  0.36777100  1
  H  H89  1  0.06561900  0.89949800  0.43353200  1
  H  H90  1  0.08567200  0.84634700  0.41293300  1
  H  H91  1  0.93725300  0.94711200  0.34371700  1
  H  H92  1  0.89424400  0.90907500  0.32013900  1
  H  H93  1  0.90429500  0.96028000  0.28169400  1
  H  H94  1  0.83715300  0.96832700  0.34016300  1
  H  H95  1  0.88085600  0.00334300  0.36777100  1
  H  H96  1  0.89949800  0.93438100  0.43353200  1
  H  H97  1  0.84634700  0.91432800  0.41293300  1
  H  H98  1  0.94711200  0.06274700  0.34371700  1
  H  H99  1  0.90907500  0.10575600  0.32013900  1
  H  H100  1  0.96028000  0.09570500  0.28169400  1
  H  H101  1  0.96832700  0.16284700  0.34016300  1
  H  H102  1  0.00334300  0.11914400  0.36777100  1
  H  H103  1  0.93438100  0.10050200  0.43353200  1
  H  H104  1  0.91432800  0.15365300  0.41293300  1
  H  H105  1  0.43725300  0.55288900  0.15628300  1
  H  H106  1  0.39424300  0.59092500  0.17986000  1
  H  H107  1  0.40429400  0.53972100  0.21830500  1
  H  H108  1  0.33715300  0.53167400  0.15983700  1
  H  H109  1  0.38085700  0.49665700  0.13222900  1
  H  H110  1  0.39949800  0.56561900  0.06646800  1
  H  H111  1  0.34634700  0.58567200  0.08706600  1
  H  H112  1  0.44711100  0.43725300  0.15628300  1
  H  H113  1  0.40907500  0.39424300  0.17986000  1
  H  H114  1  0.46027900  0.40429400  0.21830500  1
  H  H115  1  0.46832600  0.33715300  0.15983700  1
  H  H116  1  0.50334300  0.38085600  0.13222900  1
  H  H117  1  0.43438100  0.39949800  0.06646800  1
  H  H118  1  0.41432800  0.34634700  0.08706600  1
  H  H119  1  0.56274700  0.44711100  0.15628300  1
  H  H120  1  0.60575700  0.40907500  0.17986000  1
  H  H121  1  0.59570600  0.46027900  0.21830500  1
  H  H122  1  0.66284700  0.46832600  0.15983700  1
  H  H123  1  0.61914400  0.50334300  0.13222900  1
  H  H124  1  0.60050200  0.43438100  0.06646800  1
  H  H125  1  0.65365300  0.41432800  0.08706600  1
  H  H126  1  0.55288900  0.56274700  0.15628300  1
  H  H127  1  0.59092500  0.60575700  0.17986000  1
  H  H128  1  0.53972100  0.59570600  0.21830500  1
  H  H129  1  0.53167400  0.66284700  0.15983700  1
  H  H130  1  0.49665700  0.61914400  0.13222900  1
  H  H131  1  0.56561900  0.60050200  0.06646800  1
  H  H132  1  0.58567200  0.65365300  0.08706600  1
  H  H133  1  0.56274700  0.55288900  0.84371700  1
  H  H134  1  0.60575700  0.59092500  0.82014000  1
  H  H135  1  0.59570600  0.53972100  0.78169500  1
  H  H136  1  0.66284700  0.53167400  0.84016300  1
  H  H137  1  0.61914400  0.49665700  0.86777100  1
  H  H138  1  0.60050200  0.56561900  0.93353200  1
  H  H139  1  0.65365300  0.58567200  0.91293400  1
  H  H140  1  0.55288900  0.43725300  0.84371700  1
  H  H141  1  0.59092500  0.39424300  0.82014000  1
  H  H142  1  0.53972100  0.40429400  0.78169500  1
  H  H143  1  0.53167400  0.33715300  0.84016300  1
  H  H144  1  0.49665700  0.38085600  0.86777100  1
  H  H145  1  0.56561900  0.39949800  0.93353200  1
  H  H146  1  0.58567200  0.34634700  0.91293400  1
  H  H147  1  0.43725300  0.44711100  0.84371700  1
  H  H148  1  0.39424300  0.40907500  0.82014000  1
  H  H149  1  0.40429400  0.46027900  0.78169500  1
  H  H150  1  0.33715300  0.46832600  0.84016300  1
  H  H151  1  0.38085600  0.50334300  0.86777100  1
  H  H152  1  0.39949800  0.43438100  0.93353200  1
  H  H153  1  0.34634700  0.41432800  0.91293400  1
  H  H154  1  0.44711100  0.56274700  0.84371700  1
  H  H155  1  0.40907500  0.60575700  0.82014000  1
  H  H156  1  0.46027900  0.59570600  0.78169500  1
  H  H157  1  0.46832600  0.66284700  0.84016300  1
  H  H158  1  0.50334300  0.61914400  0.86777100  1
  H  H159  1  0.43438100  0.60050200  0.93353200  1
  H  H160  1  0.41432800  0.65365300  0.91293400  1
  C  C1  1  0.58437400  0.00000000  0.50000000  1
  C  C2  1  0.00000000  0.58437400  0.50000000  1
  C  C3  1  0.41562500  0.00000000  0.50000000  1
  C  C4  1  0.00000000  0.41562500  0.50000000  1
  C  C5  1  0.08437500  0.50000000  0.00000000  1
  C  C6  1  0.50000000  0.08437500  0.00000000  1
  C  C7  1  0.91562600  0.50000000  0.00000000  1
  C  C8  1  0.50000000  0.91562600  0.00000000  1
  C  C9  1  0.50000000  0.00000000  0.60769300  1
  C  C10  1  0.00000000  0.50000000  0.60769300  1
  C  C11  1  0.50000000  0.00000000  0.39230700  1
  C  C12  1  0.00000000  0.50000000  0.39230700  1
  C  C13  1  0.00000000  0.50000000  0.10769300  1
  C  C14  1  0.50000000  0.00000000  0.10769300  1
  C  C15  1  0.00000000  0.50000000  0.89230700  1
  C  C16  1  0.50000000  0.00000000  0.89230700  1
  C  C17  1  0.50000000  0.00000000  0.66871400  1
  C  C18  1  0.00000000  0.50000000  0.66871400  1
  C  C19  1  0.50000000  0.00000000  0.33128600  1
  C  C20  1  0.00000000  0.50000000  0.33128600  1
  C  C21  1  0.00000000  0.50000000  0.16871400  1
  C  C22  1  0.50000000  0.00000000  0.16871400  1
  C  C23  1  0.00000000  0.50000000  0.83128600  1
  C  C24  1  0.50000000  0.00000000  0.83128600  1
  C  C25  1  0.50000000  0.00000000  0.71997000  1
  C  C26  1  0.00000000  0.50000000  0.71997000  1
  C  C27  1  0.50000000  0.00000000  0.28003000  1
  C  C28  1  0.00000000  0.50000000  0.28003000  1
  C  C29  1  0.00000000  0.50000000  0.21997000  1
  C  C30  1  0.50000000  0.00000000  0.21997000  1
  C  C31  1  0.00000000  0.50000000  0.78003000  1
  C  C32  1  0.50000000  0.00000000  0.78003000  1
  C  C33  1  0.70221000  0.96131000  0.48883700  1
  C  C34  1  0.03869000  0.70221000  0.48883700  1
  C  C35  1  0.29779000  0.03869000  0.48883700  1
  C  C36  1  0.96131000  0.29779000  0.48883700  1
  C  C37  1  0.29779000  0.96131000  0.51116300  1
  C  C38  1  0.96131000  0.70221000  0.51116300  1
  C  C39  1  0.70221000  0.03869000  0.51116300  1
  C  C40  1  0.03869000  0.29779000  0.51116300  1
  C  C41  1  0.20221000  0.46131000  0.98883700  1
  C  C42  1  0.53869000  0.20221000  0.98883700  1
  C  C43  1  0.79779000  0.53869000  0.98883700  1
  C  C44  1  0.46131000  0.79779000  0.98883700  1
  C  C45  1  0.79779000  0.46131000  0.01116300  1
  C  C46  1  0.46131000  0.20221000  0.01116300  1
  C  C47  1  0.20221000  0.53869000  0.01116300  1
  C  C48  1  0.53869000  0.79779000  0.01116300  1
  C  C49  1  0.65635600  0.96132100  0.48870100  1
  C  C50  1  0.03867900  0.65635600  0.48870100  1
  C  C51  1  0.34364400  0.03867900  0.48870100  1
  C  C52  1  0.96132100  0.34364400  0.48870100  1
  C  C53  1  0.34364400  0.96132100  0.51129900  1
  C  C54  1  0.96132100  0.65635600  0.51129900  1
  C  C55  1  0.65635600  0.03867900  0.51129900  1
  C  C56  1  0.03867900  0.34364400  0.51129900  1
  C  C57  1  0.15635600  0.46132100  0.98870100  1
  C  C58  1  0.53867900  0.15635600  0.98870100  1
  C  C59  1  0.84364400  0.53867900  0.98870100  1
  C  C60  1  0.46132100  0.84364400  0.98870100  1
  C  C61  1  0.84364400  0.46132100  0.01129900  1
  C  C62  1  0.46132100  0.15635600  0.01129900  1
  C  C63  1  0.15635600  0.53867900  0.01129900  1
  C  C64  1  0.53867900  0.84364400  0.01129900  1
  C  C65  1  0.63314400  0.00000000  0.50000000  1
  C  C66  1  0.00000000  0.63314300  0.50000000  1
  C  C67  1  0.36685700  0.00000000  0.50000000  1
  C  C68  1  0.00000000  0.36685700  0.50000000  1
  C  C69  1  0.13314300  0.50000000  0.00000000  1
  C  C70  1  0.50000000  0.13314300  0.00000000  1
  C  C71  1  0.86685700  0.50000000  0.00000000  1
  C  C72  1  0.50000000  0.86685700  0.00000000  1
  C  C73  1  0.72551400  0.00000000  0.50000000  1
  C  C74  1  0.00000000  0.72551400  0.50000000  1
  C  C75  1  0.27448600  0.00000000  0.50000000  1
  C  C76  1  0.00000000  0.27448600  0.50000000  1
  C  C77  1  0.22551400  0.50000000  0.00000000  1
  C  C78  1  0.50000000  0.22551400  0.00000000  1
  C  C79  1  0.77448600  0.50000000  0.00000000  1
  C  C80  1  0.50000000  0.77448600  0.00000000  1
  C  C81  1  0.79764600  0.02475500  0.53952300  1
  C  C82  1  0.97524500  0.79764600  0.53952300  1
  C  C83  1  0.20235400  0.97524500  0.53952300  1
  C  C84  1  0.02475500  0.20235400  0.53952300  1
  C  C85  1  0.20235400  0.02475500  0.46047700  1
  C  C86  1  0.02475500  0.79764600  0.46047700  1
  C  C87  1  0.79764600  0.97524500  0.46047700  1
  C  C88  1  0.97524500  0.20235400  0.46047700  1
  C  C89  1  0.29764600  0.52475500  0.03952300  1
  C  C90  1  0.47524500  0.29764600  0.03952300  1
  C  C91  1  0.70235400  0.47524500  0.03952300  1
  C  C92  1  0.52475500  0.70235400  0.03952300  1
  C  C93  1  0.70235400  0.52475500  0.96047700  1
  C  C94  1  0.52475500  0.29764600  0.96047700  1
  C  C95  1  0.29764600  0.47524500  0.96047700  1
  C  C96  1  0.47524500  0.70235400  0.96047700  1
  C  C97  1  0.84353000  0.02526800  0.53957200  1
  C  C98  1  0.97473200  0.84353000  0.53957200  1
  C  C99  1  0.15647000  0.97473200  0.53957200  1
  C  C100  1  0.02526800  0.15647000  0.53957200  1
  C  C101  1  0.15647000  0.02526800  0.46042700  1
  C  C102  1  0.02526800  0.84353000  0.46042700  1
  C  C103  1  0.84353000  0.97473200  0.46042700  1
  C  C104  1  0.97473200  0.15647000  0.46042700  1
  C  C105  1  0.34353000  0.52526800  0.03957200  1
  C  C106  1  0.47473200  0.34353000  0.03957200  1
  C  C107  1  0.65647000  0.47473200  0.03957200  1
  C  C108  1  0.52526800  0.65647000  0.03957200  1
  C  C109  1  0.65647000  0.52526800  0.96042800  1
  C  C110  1  0.52526800  0.34353000  0.96042800  1
  C  C111  1  0.34353000  0.47473200  0.96042800  1
  C  C112  1  0.47473200  0.65647000  0.96042800  1
  C  C113  1  0.86692200  0.00000000  0.50000000  1
  C  C114  1  0.00000000  0.86692200  0.50000000  1
  C  C115  1  0.13307800  0.00000000  0.50000000  1
  C  C116  1  0.00000000  0.13307800  0.50000000  1
  C  C117  1  0.36692200  0.50000000  0.00000000  1
  C  C118  1  0.50000000  0.36692200  0.00000000  1
  C  C119  1  0.63307800  0.50000000  0.00000000  1
  C  C120  1  0.50000000  0.63307800  0.00000000  1
  C  C121  1  0.77442800  0.00000000  0.50000000  1
  C  C122  1  0.00000000  0.77442800  0.50000000  1
  C  C123  1  0.22557200  0.00000000  0.50000000  1
  C  C124  1  0.00000000  0.22557200  0.50000000  1
  C  C125  1  0.27442800  0.50000000  0.00000000  1
  C  C126  1  0.50000000  0.27442800  0.00000000  1
  C  C127  1  0.72557200  0.50000000  0.00000000  1
  C  C128  1  0.50000000  0.72557200  0.00000000  1
  C  C129  1  0.00000000  0.91570300  0.50000000  1
  C  C130  1  0.08429700  0.00000000  0.50000000  1
  C  C131  1  0.00000000  0.08429700  0.50000000  1
  C  C132  1  0.91570300  0.00000000  0.50000000  1
  C  C133  1  0.50000000  0.41570300  0.00000000  1
  C  C134  1  0.58429700  0.50000000  0.00000000  1
  C  C135  1  0.50000000  0.58429700  0.00000000  1
  C  C136  1  0.41570300  0.50000000  0.00000000  1
  C  C137  1  0.86631800  0.05496000  0.58153200  1
  C  C138  1  0.87006300  0.03156200  0.63852400  1
  C  C139  1  0.90368500  0.05541200  0.67562400  1
  C  C140  1  0.94504000  0.86631800  0.58153200  1
  C  C141  1  0.96843800  0.87006300  0.63852400  1
  C  C142  1  0.94458800  0.90368500  0.67562400  1
  C  C143  1  0.13368200  0.94504000  0.58153200  1
  C  C144  1  0.12993700  0.96843800  0.63852400  1
  C  C145  1  0.09631500  0.94458800  0.67562400  1
  C  C146  1  0.05496000  0.13368200  0.58153200  1
  C  C147  1  0.03156200  0.12993700  0.63852400  1
  C  C148  1  0.05541200  0.09631500  0.67562400  1
  C  C149  1  0.13368200  0.05496000  0.41846800  1
  C  C150  1  0.12993700  0.03156200  0.36147600  1
  C  C151  1  0.09631500  0.05541200  0.32437600  1
  C  C152  1  0.05496000  0.86631800  0.41846800  1
  C  C153  1  0.03156200  0.87006300  0.36147600  1
  C  C154  1  0.05541200  0.90368500  0.32437600  1
  C  C155  1  0.86631800  0.94504000  0.41846800  1
  C  C156  1  0.87006300  0.96843800  0.36147600  1
  C  C157  1  0.90368500  0.94458800  0.32437600  1
  C  C158  1  0.94504000  0.13368200  0.41846800  1
  C  C159  1  0.96843800  0.12993700  0.36147600  1
  C  C160  1  0.94458800  0.09631500  0.32437600  1
  C  C161  1  0.36631800  0.55496000  0.08153200  1
  C  C162  1  0.37006300  0.53156200  0.13852400  1
  C  C163  1  0.40368500  0.55541200  0.17562400  1
  C  C164  1  0.44504000  0.36631800  0.08153200  1
  C  C165  1  0.46843800  0.37006300  0.13852400  1
  C  C166  1  0.44458800  0.40368500  0.17562400  1
  C  C167  1  0.63368200  0.44504000  0.08153200  1
  C  C168  1  0.62993700  0.46843800  0.13852400  1
  C  C169  1  0.59631500  0.44458800  0.17562400  1
  C  C170  1  0.55496000  0.63368200  0.08153200  1
  C  C171  1  0.53156200  0.62993700  0.13852400  1
  C  C172  1  0.55541300  0.59631500  0.17562400  1
  C  C173  1  0.63368200  0.55496000  0.91846800  1
  C  C174  1  0.62993700  0.53156200  0.86147600  1
  C  C175  1  0.59631500  0.55541300  0.82437600  1
  C  C176  1  0.55496000  0.36631800  0.91846800  1
  C  C177  1  0.53156200  0.37006300  0.86147600  1
  C  C178  1  0.55541300  0.40368500  0.82437600  1
  C  C179  1  0.36631800  0.44504000  0.91846800  1
  C  C180  1  0.37006300  0.46843800  0.86147600  1
  C  C181  1  0.40368500  0.44458700  0.82437600  1
  C  C182  1  0.44504000  0.63368200  0.91846800  1
  C  C183  1  0.46843800  0.62993700  0.86147600  1
  C  C184  1  0.44458800  0.59631500  0.82437600  1
  O  O1  1  0.56346600  0.03669300  0.51564200  1
  O  O2  1  0.96330700  0.56346600  0.51564200  1
  O  O3  1  0.43653400  0.96330700  0.51564200  1
  O  O4  1  0.03669300  0.43653400  0.51564200  1
  O  O5  1  0.43653400  0.03669300  0.48435800  1
  O  O6  1  0.03669300  0.56346600  0.48435800  1
  O  O7  1  0.56346600  0.96330700  0.48435800  1
  O  O8  1  0.96330700  0.43653400  0.48435800  1
  O  O9  1  0.06346600  0.53669300  0.01564200  1
  O  O10  1  0.46330700  0.06346600  0.01564200  1
  O  O11  1  0.93653400  0.46330700  0.01564200  1
  O  O12  1  0.53669300  0.93653400  0.01564200  1
  O  O13  1  0.93653400  0.53669300  0.98435800  1
  O  O14  1  0.53669300  0.06346600  0.98435800  1
  O  O15  1  0.06346600  0.46330700  0.98435800  1
  O  O16  1  0.46330700  0.93653400  0.98435800  1
  O  O17  1  0.48775600  0.03673400  0.58116000  1
  O  O18  1  0.96326600  0.48775600  0.58116000  1
  O  O19  1  0.51224400  0.96326600  0.58116000  1
  O  O20  1  0.03673400  0.51224400  0.58116000  1
  O  O21  1  0.51224400  0.03673400  0.41884000  1
  O  O22  1  0.03673400  0.48775600  0.41884000  1
  O  O23  1  0.48775600  0.96326600  0.41884000  1
  O  O24  1  0.96326600  0.51224400  0.41884000  1
  O  O25  1  0.98775600  0.53673400  0.08116000  1
  O  O26  1  0.46326600  0.98775600  0.08116000  1
  O  O27  1  0.01224400  0.46326600  0.08116000  1
  O  O28  1  0.53673400  0.01224400  0.08116000  1
  O  O29  1  0.01224400  0.53673400  0.91884000  1
  O  O30  1  0.53673400  0.98775600  0.91884000  1
  O  O31  1  0.98775600  0.46326600  0.91884000  1
  O  O32  1  0.46326600  0.01224400  0.91884000  1
  O  O33  1  0.01213200  0.93656000  0.54693300  1
  O  O34  1  0.06344000  0.01213200  0.54693300  1
  O  O35  1  0.98786800  0.06344000  0.54693300  1
  O  O36  1  0.93656000  0.98786800  0.54693300  1
  O  O37  1  0.98786800  0.93656000  0.45306700  1
  O  O38  1  0.93656000  0.01213200  0.45306700  1
  O  O39  1  0.01213200  0.06344000  0.45306700  1
  O  O40  1  0.06344000  0.98786800  0.45306700  1
  O  O41  1  0.51213200  0.43656000  0.04693300  1
  O  O42  1  0.56344000  0.51213200  0.04693300  1
  O  O43  1  0.48786800  0.56344000  0.04693300  1
  O  O44  1  0.43656000  0.48786800  0.04693300  1
  O  O45  1  0.48786800  0.43656000  0.95306700  1
  O  O46  1  0.43656000  0.51213200  0.95306700  1
  O  O47  1  0.51213200  0.56344000  0.95306700  1
  O  O48  1  0.56344000  0.48786800  0.95306700  1
