# generated using pymatgen
data_CuH12C24N3(O2F3)2
_symmetry_space_group_name_H-M   'P 1'
_cell_length_a   10.92436600
_cell_length_b   15.52836600
_cell_length_c   17.11592600
_cell_angle_alpha   96.30741700
_cell_angle_beta   89.99290200
_cell_angle_gamma   92.86929500
_symmetry_Int_Tables_number   1
_chemical_formula_structural   CuH12C24N3(O2F3)2
_chemical_formula_sum   'Cu2 H24 C48 N6 O8 F12'
_cell_volume   2882.26788434
_cell_formula_units_Z   2
loop_
 _symmetry_equiv_pos_site_id
 _symmetry_equiv_pos_as_xyz
  1  'x, y, z'
loop_
 _atom_site_type_symbol
 _atom_site_label
 _atom_site_symmetry_multiplicity
 _atom_site_fract_x
 _atom_site_fract_y
 _atom_site_fract_z
 _atom_site_occupancy
  Cu  Cu1  1  0.48975200  0.41434500  0.49439800  1
  Cu  Cu2  1  0.50638600  0.58732200  0.50652600  1
  H  H1  1  0.25508000  0.89021600  0.62952600  1
  H  H2  1  0.74195700  0.11215900  0.36746800  1
  H  H3  1  0.29077900  0.76607700  0.70076300  1
  H  H4  1  0.70605500  0.23724200  0.29810800  1
  H  H5  1  0.20298400  0.62103600  0.65254500  1
  H  H6  1  0.79171300  0.38145600  0.34786200  1
  H  H7  1  0.04349900  0.72542400  0.45832100  1
  H  H8  1  0.95561900  0.27470300  0.53940200  1
  H  H9  1  0.88668200  0.63220100  0.53723900  1
  H  H10  1  0.10802800  0.36925000  0.46379500  1
  H  H11  1  0.41753600  0.39837200  0.89234100  1
  H  H12  1  0.59924700  0.59667700  0.10926200  1
  H  H13  1  0.37297100  0.36497900  0.10835700  1
  H  H14  1  0.59706300  0.64800300  0.89372700  1
  H  H15  1  0.38617600  0.37498000  0.25066600  1
  H  H16  1  0.58685100  0.63560100  0.75084300  1
  H  H17  1  0.61128900  0.28582600  0.57512700  1
  H  H18  1  0.39458400  0.71690100  0.41891300  1
  H  H19  1  0.60459500  0.13086000  0.57500000  1
  H  H20  1  0.40415200  0.87128500  0.41988600  1
  H  H21  1  0.65407300  0.89239400  0.61480400  1
  H  H22  1  0.33782200  0.10846300  0.38946100  1
  H  H23  1  0.64304600  0.73379700  0.60860900  1
  H  H24  1  0.34755700  0.26723800  0.39426700  1
  C  C1  1  0.50078800  0.49543300  0.34928200  1
  C  C2  1  0.49562200  0.50612500  0.65161800  1
  C  C3  1  0.26191900  0.50343700  0.50110400  1
  C  C4  1  0.73376100  0.49832100  0.49917800  1
  C  C5  1  0.23771500  0.75679500  0.64690900  1
  C  C6  1  0.75918700  0.24570400  0.35192700  1
  C  C7  1  0.18891200  0.67535900  0.61959900  1
  C  C8  1  0.80704900  0.32692200  0.38017000  1
  C  C9  1  0.12066300  0.66369700  0.55092200  1
  C  C10  1  0.87551400  0.33799000  0.44872400  1
  C  C11  1  0.09914000  0.73412500  0.51114600  1
  C  C12  1  0.89900800  0.26679500  0.48705100  1
  C  C13  1  0.14737900  0.81565000  0.53842900  1
  C  C14  1  0.85112600  0.18541500  0.45913500  1
  C  C15  1  0.21734800  0.82689500  0.60644900  1
  C  C16  1  0.77996600  0.17505800  0.39147500  1
  C  C17  1  0.93490400  0.57431000  0.51937900  1
  C  C18  1  0.06031900  0.42744200  0.48113000  1
  C  C19  1  0.86915300  0.49730200  0.49713000  1
  C  C20  1  0.12632100  0.50452200  0.50268300  1
  C  C21  1  0.93376300  0.42278100  0.47702900  1
  C  C22  1  0.06165200  0.57897300  0.52320400  1
  C  C23  1  0.50057200  0.49200700  0.26261600  1
  C  C24  1  0.49411400  0.50976100  0.73859100  1
  C  C25  1  0.56321200  0.55404700  0.22165700  1
  C  C26  1  0.44336000  0.44313100  0.77978500  1
  C  C27  1  0.55228400  0.54821400  0.14030400  1
  C  C28  1  0.45223700  0.45124000  0.86137200  1
  C  C29  1  0.48291100  0.48085700  0.09929300  1
  C  C30  1  0.50751100  0.52495200  0.90246500  1
  C  C31  1  0.42610600  0.41839800  0.13984800  1
  C  C32  1  0.55362900  0.59067700  0.86172600  1
  C  C33  1  0.43459500  0.42388100  0.22049800  1
  C  C34  1  0.54702600  0.58338300  0.78089600  1
  C  C35  1  0.45163200  0.75541900  0.46274500  1
  C  C36  1  0.55106000  0.24650300  0.53394400  1
  C  C37  1  0.45559400  0.84430400  0.46427100  1
  C  C38  1  0.54753700  0.15760600  0.53310600  1
  C  C39  1  0.52555700  0.89506800  0.52078700  1
  C  C40  1  0.47121000  0.10663800  0.48034400  1
  C  C41  1  0.59449500  0.85448800  0.57206600  1
  C  C42  1  0.39943100  0.14691100  0.43039800  1
  C  C43  1  0.58920400  0.76510900  0.56830200  1
  C  C44  1  0.40467100  0.23632200  0.43335400  1
  C  C45  1  0.11999600  0.89025300  0.49437900  1
  C  C46  1  0.88104300  0.11012300  0.50170500  1
  C  C47  1  0.37731100  0.36272700  0.73953100  1
  C  C48  1  0.64687400  0.62543000  0.26213300  1
  N  N1  1  0.47068600  0.47264600  0.01635100  1
  N  N2  1  0.51970100  0.53453000  0.98546400  1
  N  N3  1  0.51640600  0.71701700  0.51460000  1
  N  N4  1  0.47819700  0.28472400  0.48603100  1
  N  N5  1  0.53216100  0.98677400  0.52513000  1
  N  N6  1  0.46362300  0.01498500  0.47679300  1
  O  O1  1  0.48737200  0.42248200  0.38140300  1
  O  O2  1  0.50802800  0.57911600  0.61931600  1
  O  O3  1  0.50950500  0.57095800  0.39149800  1
  O  O4  1  0.48704800  0.43081200  0.60923200  1
  O  O5  1  0.31359300  0.42843700  0.49814100  1
  O  O6  1  0.68230200  0.57345700  0.50288700  1
  O  O7  1  0.32677900  0.57656400  0.50208600  1
  O  O8  1  0.66915000  0.42504000  0.49824000  1
  F  F1  1  0.18083700  0.96571200  0.52723800  1
  F  F2  1  0.99519800  0.90126700  0.49600100  1
  F  F3  1  0.15695000  0.87279600  0.41735300  1
  F  F4  1  0.81985300  0.03502600  0.46848300  1
  F  F5  1  0.84685400  0.12608800  0.57947600  1
  F  F6  1  0.00590600  0.09944000  0.49810600  1
  F  F7  1  0.29196400  0.38505500  0.68660100  1
  F  F8  1  0.31516600  0.31676500  0.79322300  1
  F  F9  1  0.46083400  0.30910400  0.70133300  1
  F  F10  1  0.57801900  0.68899800  0.30075500  1
  F  F11  1  0.72059100  0.66363000  0.20864600  1
  F  F12  1  0.72298800  0.59235300  0.31481200  1
