# Generated by REPEAT Assigner based on pymatgen
data_DB0-m29_o83_o470_f0_pts.sym.102
_audit_creation_date              2022-05-24
_audit_creation_method            REPEAT_Assigner
_cell_length_a                    15.830673
_cell_length_b                    12.492696
_cell_length_c                    13.145153
_cell_angle_alpha                 80.781435
_cell_angle_beta                  88.182058
_cell_angle_gamma                 107.957425
_cell_volume                      2431.980189
_symmetry_space_group_name_H-M    P1
_symmetry_Int_Tables_number       1
loop_
    _symmetry_equiv_pos_site_id
    _symmetry_equiv_pos_as_xyz
    1  x,y,z
loop_
    _atom_site_type_symbol
    _atom_site_label
    _atom_site_fract_x
    _atom_site_fract_y
    _atom_site_fract_z
    _atom_type_partial_charge
    C   C1   0.294284  0.000706  0.057872  -0.072021
    C   C2   0.275977  0.994037  0.955554  0.001630
    C   C3   0.189584  0.981404  0.928926  -0.184441
    C   C4   0.225677  0.991141  0.129676  -0.195793
    C   C5   0.140390  0.979748  0.101834  0.187413
    C   C6   0.120195  0.973255  0.001458  0.066193
    C   C7   0.032122  0.961503  0.976063  0.083583
    C   C8   0.006574  0.942984  0.878901  -0.210548
    C   C9   0.923183  0.938236  0.851983  -0.094553
    C   C10  0.075871  0.977041  0.175444  -0.202485
    C   C11  0.991341  0.971974  0.150065  -0.155633
    C   C12  0.967654  0.966029  0.049486  0.041422
    C   C13  0.881439  0.963581  0.020698  0.114534
    C   C14  0.860956  0.951850  0.920552  0.054359
    C   C15  0.778302  0.952665  0.888393  -0.099151
    C   C16  0.815076  0.973703  0.088293  -0.222998
    C   C17  0.731896  0.974090  0.057250  0.068361
    C   C18  0.713586  0.964205  0.955722  -0.151796
    H   H1   0.179674  0.983086  0.848572  0.142781
    H   H2   0.240033  0.997499  0.208730  0.172263
    H   H3   0.048551  0.928585  0.820347  0.155996
    H   H4   0.910073  0.924408  0.774332  0.093632
    H   H5   0.091781  0.981525  0.254334  0.136927
    H   H6   0.945968  0.970936  0.212954  0.147806
    H   H7   0.826485  0.985533  0.166301  0.142388
    O   O1   0.602553  0.028868  0.106983  -0.564817
    C   C19  0.665905  0.984809  0.134590  0.559605
    O   O2   0.433703  0.761045  0.278269  -0.519356
    O   O3   0.670874  0.949973  0.233151  -0.530725
    O   O4   0.507837  0.909117  0.356839  -0.602828
    C   C20  0.468433  0.798926  0.360029  0.683896
    Fe  Fe1  0.517935  0.016959  0.225648  1.466754
    O   O5   0.394570  0.959336  0.180417  -0.624351
    O   O6   0.448542  0.114869  0.053202  -0.478620
    C   C21  0.383841  0.021695  0.094325  0.833625
    O   O7   0.563342  0.175024  0.259095  -0.640756
    O   O8   0.418406  0.168053  0.255872  -0.565650
    C   C22  0.499834  0.219375  0.276596  0.691363
    O   O9   0.441383  0.888104  0.713663  -0.562876
    O   O10  0.540348  0.804871  0.783077  -0.428668
    C   C23  0.477228  0.805636  0.721435  0.533845
    O   O11  0.628732  0.031617  0.827436  -0.641520
    O   O12  0.552003  0.897294  0.965044  -0.497884
    C   C24  0.627788  0.965834  0.916368  0.796478
    O   O13  0.318532  0.974802  0.782719  -0.468745
    O   O14  0.548887  0.155328  0.654591  -0.620312
    C   C25  0.496330  0.218264  0.637451  0.653559
    O   O15  0.428282  0.019831  0.890189  -0.549007
    C   C26  0.343582  0.996253  0.873527  0.608428
    O   O16  0.423160  0.195839  0.697645  -0.460424
    Fe  Fe2  0.510922  0.025028  0.771812  1.429843
    C   C27  0.457596  0.724441  0.462016  -0.105863
    C   C28  0.449563  0.777267  0.544656  -0.104193
    C   C29  0.463787  0.733245  0.642417  0.117674
    C   C30  0.481506  0.631568  0.660094  -0.195789
    C   C31  0.481353  0.569756  0.580761  0.126627
    C   C32  0.469996  0.616476  0.480507  0.160471
    C   C33  0.499279  0.465944  0.600411  -0.166032
    C   C34  0.499339  0.403513  0.520926  0.007745
    C   C35  0.490374  0.452197  0.420896  0.297259
    C   C36  0.477011  0.557643  0.401208  -0.309581
    C   C37  0.509503  0.294473  0.537015  -0.076053
    C   C38  0.520335  0.244618  0.453442  -0.077838
    C   C39  0.510700  0.292412  0.355128  0.060813
    C   C40  0.493310  0.395073  0.339050  -0.271669
    H   H8   0.440133  0.860214  0.531065  0.127490
    H   H9   0.495102  0.603528  0.737785  0.139870
    H   H10  0.525152  0.159146  0.466241  0.118118
    H   H11  0.482102  0.430651  0.262074  0.167209
    H   H12  0.471232  0.591526  0.322231  0.191484
    C   C41  0.531001  0.432753  0.701051  0.696719
    O   O17  0.480043  0.401017  0.779486  -0.458750
    N   N1   0.621783  0.436808  0.706899  -0.727390
    H   H13  0.630669  0.412924  0.784624  0.331651
    H   H14  0.661422  0.521758  0.682591  0.307386
    C   C42  0.757404  0.934482  0.783146  0.790776
    O   O18  0.729447  0.837456  0.765299  -0.559489
    N   N2   0.775531  0.029803  0.700287  -0.651413
    H   H15  0.761488  0.997481  0.632077  0.296271
    H   H16  0.843517  0.074922  0.694950  0.245771
