data_DB0-m3_o11_o28_f0_pcu.sym.14_repeat
_audit_creation_date              2024-02-20
_audit_creation_method            'Materials Studio'
_symmetry_space_group_name_H-M    'P1'
_symmetry_Int_Tables_number       1
_symmetry_cell_setting            triclinic
loop_
_symmetry_equiv_pos_as_xyz
  x,y,z
_cell_length_a                    23.4343
_cell_length_b                    11.1382
_cell_length_c                    9.9355
_cell_angle_alpha                 89.9974
_cell_angle_beta                  89.9814
_cell_angle_gamma                 90.0113
loop_
_atom_site_label
_atom_site_type_symbol
_atom_site_fract_x
_atom_site_fract_y
_atom_site_fract_z
_atom_site_U_iso_or_equiv
_atom_site_adp_type
_atom_site_occupancy
O1     O     0.49833   0.32193   0.61858   0.00000  Uiso   1.00
O2     O     0.50039   0.32095   0.38670   0.00000  Uiso   1.00
C1     C     0.49917   0.26538   0.50297   0.00000  Uiso   1.00
O3     O     0.41347   0.50151   0.60568   0.00000  Uiso   1.00
O4     O     0.41632   0.50006   0.37386   0.00000  Uiso   1.00
C2     C     0.38814   0.50106   0.48812   0.00000  Uiso   1.00
Zn1    Zn    0.49754   0.50117   0.65281   0.00000  Uiso   1.00
Zn2    Zn    0.50205   0.49934   0.34680   0.00000  Uiso   1.00
O5     O     0.49924   0.67942   0.61333   0.00000  Uiso   1.00
O6     O     0.50124   0.67889   0.38061   0.00000  Uiso   1.00
O7     O     0.58329   0.49992   0.62600   0.00000  Uiso   1.00
O8     O     0.58614   0.49861   0.39369   0.00000  Uiso   1.00
C3     C     0.50032   0.73505   0.49715   0.00000  Uiso   1.00
C4     C     0.61143   0.49904   0.51149   0.00000  Uiso   1.00
C5     C     0.88222   0.58805   0.56970   0.00000  Uiso   1.00
N1     N     0.85331   0.49566   0.51428   0.00000  Uiso   1.00
C6     C     0.88142   0.40452   0.45409   0.00000  Uiso   1.00
C7     C     0.94038   0.40491   0.44748   0.00000  Uiso   1.00
C8     C     0.97037   0.49882   0.50311   0.00000  Uiso   1.00
C9     C     0.94123   0.59082   0.56506   0.00000  Uiso   1.00
C10    C     0.96955   0.31223   0.38550   0.00000  Uiso   1.00
C11    C     0.02830   0.31415   0.37915   0.00000  Uiso   1.00
C12    C     0.05834   0.40880   0.43468   0.00000  Uiso   1.00
C13    C     0.02920   0.50080   0.49663   0.00000  Uiso   1.00
C14    C     0.05919   0.59472   0.55226   0.00000  Uiso   1.00
C15    C     0.03003   0.68740   0.61424   0.00000  Uiso   1.00
C16    C     0.97128   0.68547   0.62059   0.00000  Uiso   1.00
C17    C     0.11735   0.41158   0.43003   0.00000  Uiso   1.00
N2     N     0.14627   0.50397   0.48545   0.00000  Uiso   1.00
C18    C     0.11816   0.59512   0.54564   0.00000  Uiso   1.00
O9     O     0.85341   0.67942   0.62612   0.00000  Uiso   1.00
O10    O     0.85189   0.31204   0.40214   0.00000  Uiso   1.00
H1     H     0.94711   0.23733   0.34104   0.00000  Uiso   1.00
H2     H     0.05003   0.24063   0.33009   0.00000  Uiso   1.00
O11    O     0.14617   0.32022   0.37360   0.00000  Uiso   1.00
O12    O     0.14768   0.68760   0.59757   0.00000  Uiso   1.00
H3     H     0.05246   0.76229   0.65870   0.00000  Uiso   1.00
H4     H     0.94955   0.75899   0.66964   0.00000  Uiso   1.00
C19    C     0.23706   0.50158   0.36491   0.00000  Uiso   1.00
H5     H     0.21442   0.50201   0.27012   0.00000  Uiso   1.00
C20    C     0.29600   0.50094   0.36524   0.00000  Uiso   1.00
H6     H     0.31846   0.50003   0.27025   0.00000  Uiso   1.00
C21    C     0.32553   0.50169   0.48579   0.00000  Uiso   1.00
C22    C     0.29544   0.50306   0.60560   0.00000  Uiso   1.00
H7     H     0.31721   0.50328   0.70142   0.00000  Uiso   1.00
C23    C     0.23669   0.50396   0.60495   0.00000  Uiso   1.00
H8     H     0.21382   0.50376   0.69947   0.00000  Uiso   1.00
C24    C     0.20719   0.50337   0.48484   0.00000  Uiso   1.00
C25    C     0.76250   0.49811   0.63477   0.00000  Uiso   1.00
H9     H     0.78513   0.49764   0.72957   0.00000  Uiso   1.00
C26    C     0.70357   0.49886   0.63441   0.00000  Uiso   1.00
H10    H     0.68111   0.49982   0.72941   0.00000  Uiso   1.00
C27    C     0.67404   0.49820   0.51385   0.00000  Uiso   1.00
C28    C     0.70415   0.49677   0.39405   0.00000  Uiso   1.00
H11    H     0.68239   0.49662   0.29821   0.00000  Uiso   1.00
C29    C     0.76290   0.49576   0.39473   0.00000  Uiso   1.00
H12    H     0.78578   0.49594   0.30022   0.00000  Uiso   1.00
C30    C     0.79238   0.49629   0.51485   0.00000  Uiso   1.00
C31    C     0.50050   0.93469   0.39122   0.00000  Uiso   1.00
C32    C     0.50061   0.86648   0.50207   0.00000  Uiso   1.00
H13    H     0.50049   0.89169   0.29340   0.00000  Uiso   1.00
H14    H     0.50094   0.90507   0.60159   0.00000  Uiso   1.00
C33    C     0.50062   0.06780   0.39358   0.00000  Uiso   1.00
C34    C     0.49883   0.13383   0.50640   0.00000  Uiso   1.00
H15    H     0.50210   0.11285   0.29700   0.00000  Uiso   1.00
H16    H     0.49696   0.09370   0.60510   0.00000  Uiso   1.00
C35    C     0.52469   0.57652   0.92357   0.00000  Uiso   1.00
N3     N     0.49364   0.50470   0.85388   0.00000  Uiso   1.00
H17    H     0.55409   0.63637   0.87266   0.00000  Uiso   1.00
H18    H     0.46062   0.46390   0.90440   0.00000  Uiso   1.00
C36    C     0.51649   0.58858   0.07042   0.00000  Uiso   1.00
N4     N     0.50683   0.49694   0.14578   0.00000  Uiso   1.00
H19    H     0.52000   0.67688   0.11537   0.00000  Uiso   1.00
O13    O     0.51981   0.39110   0.08973   0.00000  Uiso   1.00
H20    H     0.48492   0.34196   0.10103   0.00000  Uiso   1.00
