# generated using pymatgen
data_ZnH24C27(NO2)3
_symmetry_space_group_name_H-M   'P 1'
_cell_length_a   11.88549800
_cell_length_b   13.08063200
_cell_length_c   15.21618500
_cell_angle_alpha   90.00052100
_cell_angle_beta   85.94409800
_cell_angle_gamma   91.19182600
_symmetry_Int_Tables_number   1
_chemical_formula_structural   ZnH24C27(NO2)3
_chemical_formula_sum   'Zn2 H48 C54 N6 O12'
_cell_volume   2359.21983681
_cell_formula_units_Z   2
loop_
 _symmetry_equiv_pos_site_id
 _symmetry_equiv_pos_as_xyz
  1  'x, y, z'
loop_
 _atom_site_type_symbol
 _atom_site_label
 _atom_site_symmetry_multiplicity
 _atom_site_fract_x
 _atom_site_fract_y
 _atom_site_fract_z
 _atom_site_occupancy
  Zn  Zn1  1  0.37233700  0.50815900  0.50709700  1
  Zn  Zn2  1  0.62768200  0.49182700  0.49303700  1
  H  H1  1  0.52668100  0.75445500  0.07606900  1
  H  H2  1  0.47334100  0.24553000  0.92406500  1
  H  H3  1  0.52661200  0.75453400  0.92128800  1
  H  H4  1  0.47340500  0.24545200  0.07884700  1
  H  H5  1  0.64696300  0.16337800  0.49199000  1
  H  H6  1  0.35305600  0.83660800  0.50814000  1
  H  H7  1  0.28720900  0.18608800  0.51187300  1
  H  H8  1  0.71281000  0.81389700  0.48825800  1
  H  H9  1  0.73077100  0.99935800  0.48731200  1
  H  H10  1  0.26924800  0.00062700  0.51281600  1
  H  H11  1  0.18306400  0.40592600  0.42015800  1
  H  H12  1  0.81695500  0.59405900  0.57997600  1
  H  H13  1  0.20582600  0.63336900  0.61368100  1
  H  H14  1  0.79419300  0.36661600  0.38645400  1
  H  H15  1  0.00009900  0.35158200  0.37378600  1
  H  H16  1  0.99992000  0.64840300  0.62634900  1
  H  H17  1  0.30468100  0.31189100  0.23290100  1
  H  H18  1  0.36667300  0.30337700  0.33791400  1
  H  H19  1  0.36788500  0.13803300  0.19411000  1
  H  H20  1  0.28987200  0.13613200  0.29929300  1
  H  H21  1  0.55589300  0.12559300  0.18368400  1
  H  H22  1  0.63253000  0.11347400  0.28028400  1
  H  H23  1  0.65394800  0.28878300  0.21349700  1
  H  H24  1  0.59117600  0.28856500  0.32544200  1
  H  H25  1  0.34606700  0.71120200  0.78663700  1
  H  H26  1  0.40883900  0.71141500  0.67469200  1
  H  H27  1  0.44411800  0.87439500  0.81644500  1
  H  H28  1  0.36748100  0.88650700  0.71984400  1
  H  H29  1  0.63212700  0.86195600  0.80601800  1
  H  H30  1  0.71014000  0.86385300  0.70083400  1
  H  H31  1  0.69533300  0.68809700  0.76723200  1
  H  H32  1  0.63333900  0.69660500  0.66222000  1
  H  H33  1  0.69547700  0.68789000  0.21123600  1
  H  H34  1  0.63376900  0.69659000  0.32316100  1
  H  H35  1  0.63234700  0.86168800  0.17929200  1
  H  H36  1  0.71038700  0.86376100  0.27583100  1
  H  H37  1  0.44441500  0.87422500  0.18961600  1
  H  H38  1  0.36776500  0.88656000  0.29464400  1
  H  H39  1  0.34627800  0.71115200  0.23034600  1
  H  H40  1  0.40873000  0.71152400  0.33547400  1
  H  H41  1  0.65374600  0.28883500  0.76978700  1
  H  H42  1  0.59129400  0.28846700  0.66466000  1
  H  H43  1  0.55561200  0.12576000  0.81051300  1
  H  H44  1  0.63226200  0.11343000  0.70548300  1
  H  H45  1  0.36768000  0.13829400  0.82083700  1
  H  H46  1  0.28964000  0.13622500  0.72429800  1
  H  H47  1  0.30454700  0.31209300  0.78889800  1
  H  H48  1  0.36625500  0.30339800  0.67697300  1
  C  C1  1  0.52014900  0.69981000  0.49888500  1
  C  C2  1  0.47987000  0.30017600  0.50124900  1
  C  C3  1  0.49995800  0.50008400  0.67288300  1
  C  C4  1  0.50006100  0.49990100  0.32725100  1
  C  C5  1  0.49050500  0.40855200  0.18341600  1
  C  C6  1  0.50951100  0.59143400  0.81671800  1
  C  C7  1  0.50008000  0.49989100  0.22979600  1
  C  C8  1  0.49993900  0.50009500  0.77033800  1
  C  C9  1  0.50963700  0.59126200  0.18242100  1
  C  C10  1  0.49038500  0.40872300  0.81771400  1
  C  C11  1  0.50954100  0.59064900  0.09106100  1
  C  C12  1  0.49048000  0.40933700  0.90907300  1
  C  C13  1  0.50002600  0.49997400  0.04581100  1
  C  C14  1  0.49999300  0.50001200  0.95432300  1
  C  C15  1  0.49054600  0.40925900  0.09205200  1
  C  C16  1  0.50947100  0.59072700  0.90808300  1
  C  C17  1  0.51901000  0.68135100  0.04417400  1
  C  C18  1  0.48101100  0.31863500  0.95596000  1
  C  C19  1  0.51897200  0.68139200  0.95397900  1
  C  C20  1  0.48104600  0.31859400  0.04615600  1
  C  C21  1  0.46858700  0.18819800  0.50186800  1
  C  C22  1  0.53143200  0.81178800  0.49826300  1
  C  C23  1  0.64765300  0.96378000  0.49189000  1
  C  C24  1  0.35236600  0.03620500  0.50823800  1
  C  C25  1  0.63718900  0.85859100  0.49243700  1
  C  C26  1  0.36283000  0.14139400  0.50769300  1
  C  C27  1  0.43642900  0.87156000  0.50353100  1
  C  C28  1  0.56359000  0.12842500  0.49659900  1
  C  C29  1  0.44723900  0.97690700  0.50297200  1
  C  C30  1  0.55278000  0.02307900  0.49715700  1
  C  C31  1  0.96103500  0.40553400  0.41965700  1
  C  C32  1  0.03898400  0.59445100  0.58047800  1
  C  C33  1  0.84528000  0.41405300  0.42682400  1
  C  C34  1  0.15473900  0.58593200  0.57331100  1
  C  C35  1  0.85809900  0.54074400  0.53462400  1
  C  C36  1  0.14192000  0.45924200  0.46551000  1
  C  C37  1  0.97408700  0.53393300  0.52892500  1
  C  C38  1  0.02593200  0.46605200  0.47120900  1
  C  C39  1  0.37427400  0.27939500  0.26814700  1
  C  C40  1  0.36924700  0.16365500  0.26347700  1
  C  C41  1  0.55985600  0.15105400  0.25290400  1
  C  C42  1  0.57867000  0.26588100  0.25680000  1
  C  C43  1  0.42134400  0.73410200  0.74333400  1
  C  C44  1  0.44015500  0.84893000  0.74722500  1
  C  C45  1  0.63076500  0.83633100  0.73665200  1
  C  C46  1  0.62573900  0.72059000  0.73198600  1
  C  C47  1  0.62597600  0.72045200  0.25422400  1
  C  C48  1  0.63099800  0.83618300  0.24884000  1
  C  C49  1  0.44041300  0.84886800  0.25930200  1
  C  C50  1  0.42147500  0.73406100  0.26542500  1
  C  C51  1  0.57854900  0.26592700  0.73470800  1
  C  C52  1  0.55961300  0.15111900  0.74082700  1
  C  C53  1  0.36902900  0.16380200  0.75129000  1
  C  C54  1  0.37404900  0.27953400  0.74590900  1
  N  N1  1  0.20428800  0.51894200  0.51634900  1
  N  N2  1  0.79573100  0.48104300  0.48378500  1
  N  N3  1  0.48067100  0.31340700  0.22737800  1
  N  N4  1  0.51934300  0.68657900  0.77275800  1
  N  N5  1  0.51950000  0.68632800  0.22541900  1
  N  N6  1  0.48052400  0.31365800  0.77471600  1
  O  O1  1  0.41852600  0.65814400  0.50448600  1
  O  O2  1  0.58149300  0.34184200  0.49564800  1
  O  O3  1  0.61214400  0.64576900  0.49384400  1
  O  O4  1  0.38787500  0.35421600  0.50629000  1
  O  O5  1  0.40312900  0.50623500  0.63652400  1
  O  O6  1  0.59689000  0.49375100  0.36361000  1
  O  O7  1  0.59680300  0.49387000  0.62585700  1
  O  O8  1  0.40321600  0.50611500  0.37427700  1
  O  O9  1  0.46092300  0.12210600  0.30337200  1
  O  O10  1  0.53908800  0.87787700  0.69675600  1
  O  O11  1  0.53934700  0.87781300  0.29883300  1
  O  O12  1  0.46067900  0.12217500  0.70129600  1
