# Generated by REPEAT Assigner based on pymatgen
data_DB0-m29_o88_o109_f0_pts.sym.30
_audit_creation_date              2022-05-24
_audit_creation_method            REPEAT_Assigner
_cell_length_a                    15.395320
_cell_length_b                    11.585035
_cell_length_c                    16.259644
_cell_angle_alpha                 89.360582
_cell_angle_beta                  103.041313
_cell_angle_gamma                 98.865865
_cell_volume                      2790.600075
_symmetry_space_group_name_H-M    P1
_symmetry_Int_Tables_number       1
loop_
    _symmetry_equiv_pos_site_id
    _symmetry_equiv_pos_as_xyz
    1  x,y,z
loop_
    _atom_site_type_symbol
    _atom_site_label
    _atom_site_fract_x
    _atom_site_fract_y
    _atom_site_fract_z
    _atom_type_partial_charge
    C   C1   0.811016  0.064180  0.134446  -0.138860
    H   H1   0.806957  0.087170  0.197561  0.132537
    C   C2   0.894378  0.074677  0.115242  -0.193585
    H   H2   0.954232  0.107060  0.162905  0.162733
    C   C3   0.902020  0.038327  0.037295  0.244659
    C   C4   0.824898  0.000003  0.976247  -0.214425
    H   H3   0.831357  0.979865  0.913478  0.147053
    C   C5   0.740000  0.993416  0.993484  -0.013627
    C   C6   0.733655  0.020452  0.075327  0.071478
    C   C7   0.992545  0.045166  0.020509  -0.147023
    C   C8   0.013405  0.964457  0.973008  -0.215125
    H   H4   0.044698  0.113896  0.052473  0.101706
    H   H5   0.961120  0.896811  0.939775  0.145310
    C   C9   0.114747  0.952537  0.879126  -0.210639
    H   H6   0.055605  0.940618  0.827647  0.141927
    C   C10  0.198823  0.960353  0.862172  -0.096598
    H   H7   0.204606  0.955139  0.797335  0.130813
    C   C11  0.275544  0.979235  0.926285  0.019461
    C   C12  0.267823  0.982491  0.010383  0.096552
    C   C13  0.181743  0.978425  0.026876  -0.364750
    C   C14  0.105563  0.966532  0.960422  0.279844
    O   O1   0.520089  0.134062  0.769512  -0.618400
    C   C15  0.480592  0.144908  0.689958  0.612937
    O   O2   0.418013  0.093904  0.920426  -0.511140
    O   O3   0.430096  0.055228  0.645496  -0.578528
    O   O4   0.376961  0.921840  0.846725  -0.584422
    C   C16  0.362307  0.995286  0.901250  0.609890
    Fe  Fe1  0.493848  0.977992  0.817039  1.415098
    O   O5   0.579359  0.978756  0.930251  -0.426121
    O   O6   0.673764  0.959521  0.845152  -0.528376
    C   C17  0.660956  0.971031  0.921527  0.548413
    O   O7   0.503479  0.872961  0.723238  -0.482321
    O   O8   0.500912  0.744579  0.828912  -0.494423
    C   C18  0.504985  0.765943  0.750334  0.495695
    O   O9   0.510558  0.123399  0.283797  -0.484140
    O   O10  0.500503  0.247891  0.175019  -0.511217
    C   C19  0.502610  0.228666  0.255068  0.484657
    O   O11  0.429234  0.024079  0.075902  -0.318347
    O   O12  0.336704  0.927315  0.151603  -0.437037
    C   C20  0.347256  0.978881  0.081547  0.371790
    O   O13  0.577859  0.940381  0.359254  -0.560971
    O   O14  0.632771  0.077069  0.155732  -0.538586
    C   C21  0.648590  0.001425  0.103454  0.519232
    O   O15  0.491149  0.863044  0.233334  -0.518043
    C   C22  0.528218  0.851248  0.313567  0.549996
    O   O16  0.593616  0.901993  0.085555  -0.495172
    Fe  Fe2  0.517069  0.020526  0.187515  1.358339
    C   C23  0.498984  0.325589  0.311097  0.154668
    C   C24  0.496923  0.435671  0.279567  -0.217770
    C   C25  0.500844  0.529003  0.332359  0.251051
    C   C26  0.504593  0.638345  0.298642  -0.229909
    C   C27  0.517487  0.735155  0.350080  0.127812
    C   C28  0.499796  0.308487  0.395255  -0.247822
    C   C29  0.498684  0.401443  0.449142  0.111986
    C   C30  0.503012  0.513687  0.417442  -0.085517
    C   C31  0.510423  0.610888  0.469684  0.086899
    C   C32  0.485022  0.274119  0.568393  -0.188772
    C   C33  0.496857  0.385355  0.534279  0.085498
    C   C34  0.504361  0.482421  0.586595  -0.064645
    C   C35  0.489862  0.260762  0.653368  0.098253
    C   C36  0.502800  0.357254  0.705025  -0.231262
    C   C37  0.521817  0.722000  0.435170  -0.188346
    C   C38  0.509028  0.594825  0.555092  0.089042
    C   C39  0.508769  0.687667  0.609570  -0.215379
    C   C40  0.506390  0.466653  0.671589  0.238008
    C   C41  0.510181  0.559450  0.724669  -0.205132
    C   C42  0.508875  0.669789  0.693704  0.122571
    H   H8   0.504286  0.221310  0.416734  0.196640
    H   H9   0.471781  0.194596  0.531391  0.158251
    H   H10  0.534477  0.801510  0.472115  0.161615
    H   H11  0.505252  0.775201  0.588452  0.186808
    H   H12  0.496146  0.450698  0.213744  0.168039
    H   H13  0.502867  0.648275  0.232162  0.168701
    H   H14  0.504788  0.347015  0.771529  0.191591
    H   H15  0.510751  0.543905  0.790395  0.150611
    C   C43  0.170431  0.984863  0.114174  0.971866
    O   O17  0.210686  0.067430  0.160539  -0.590628
    O   O18  0.115019  0.899985  0.142725  -0.523903
    C   C44  0.105147  0.902816  0.224401  0.520335
    C   C45  0.039124  0.797389  0.238389  -0.300849
    H   H16  0.078834  0.983428  0.236336  -0.087133
    H   H17  0.171265  0.900662  0.268618  -0.037280
    H   H18  0.972843  0.799092  0.194390  0.077874
    H   H19  0.031086  0.799416  0.304415  0.059519
    H   H20  0.065081  0.716443  0.226602  0.078464
