# generated using pymatgen
data_Fe2H31C64N5O17
_symmetry_space_group_name_H-M   'P 1'
_cell_length_a   17.16068900
_cell_length_b   16.22317600
_cell_length_c   19.05221300
_cell_angle_alpha   89.65322500
_cell_angle_beta   90.60558800
_cell_angle_gamma   117.41175000
_symmetry_Int_Tables_number   1
_chemical_formula_structural   Fe2H31C64N5O17
_chemical_formula_sum   'Fe2 H31 C64 N5 O17'
_cell_volume   4708.34058728
_cell_formula_units_Z   1
loop_
 _symmetry_equiv_pos_site_id
 _symmetry_equiv_pos_as_xyz
  1  'x, y, z'
loop_
 _atom_site_type_symbol
 _atom_site_label
 _atom_site_symmetry_multiplicity
 _atom_site_fract_x
 _atom_site_fract_y
 _atom_site_fract_z
 _atom_site_occupancy
  Fe  Fe1  1  0.53058100  0.01118600  0.31278500  1
  Fe  Fe2  1  0.48058900  0.00273700  0.68859800  1
  H  H1  1  0.99583700  0.89447700  0.21609100  1
  H  H2  1  0.72786600  0.97015100  0.01731400  1
  H  H3  1  0.01551100  0.12039500  0.78393100  1
  H  H4  1  0.28353300  0.04504400  0.98277600  1
  H  H5  1  0.93377800  0.93107700  0.02714300  1
  H  H6  1  0.07801100  0.08467300  0.97290500  1
  H  H7  1  0.09216500  0.06586500  0.71309100  1
  H  H8  1  0.30351800  0.01303000  0.86265200  1
  H  H9  1  0.34935400  0.02795900  0.08438900  1
  H  H10  1  0.25643500  0.89778000  0.28449200  1
  H  H11  1  0.11040900  0.87682800  0.25730700  1
  H  H12  1  0.91793900  0.94687600  0.28699100  1
  H  H13  1  0.70675900  0.00031300  0.13765500  1
  H  H14  1  0.66215100  0.98720500  0.91574200  1
  H  H15  1  0.75488800  0.11790500  0.71586700  1
  H  H16  1  0.90113500  0.13892800  0.74297000  1
  H  H17  1  0.20283200  0.03309700  0.65900700  1
  H  H18  1  0.80666400  0.97839100  0.34119600  1
  H  H19  1  0.53984000  0.11372800  0.47432400  1
  H  H20  1  0.52110900  0.33724600  0.37242700  1
  H  H21  1  0.51806900  0.32106100  0.59634400  1
  H  H22  1  0.61343200  0.50378600  0.41902300  1
  H  H23  1  0.60002900  0.64571800  0.43454600  1
  H  H24  1  0.38805500  0.50400400  0.57616800  1
  H  H25  1  0.40412800  0.36367000  0.56316300  1
  H  H26  1  0.48455000  0.68776600  0.40387500  1
  H  H27  1  0.46896000  0.89865000  0.52533600  1
  H  H28  1  0.54365100  0.64491700  0.64170000  1
  H  H29  1  0.44529100  0.51174700  0.72132000  1
  H  H30  1  0.37457500  0.54075500  0.77441100  1
  H  H31  1  0.49252600  0.61087100  0.77972500  1
  C  C1  1  0.21261800  0.97892300  0.10729900  1
  C  C2  1  0.14780900  0.93997700  0.15533200  1
  C  C3  1  0.07466500  0.94328500  0.12795100  1
  C  C4  1  0.17669800  0.00205800  0.05001300  1
  C  C5  1  0.00039400  0.91997600  0.16302200  1
  C  C6  1  0.92893000  0.93949700  0.13864400  1
  C  C7  1  0.87342100  0.95456100  0.18255200  1
  C  C8  1  0.81620400  0.97001700  0.14164700  1
  C  C9  1  0.83808800  0.96478600  0.07268500  1
  C  C10  1  0.79392900  0.97933100  0.01080000  1
  C  C11  1  0.83478000  0.01323200  0.95014300  1
  C  C12  1  0.79893100  0.03654400  0.89291300  1
  C  C13  1  0.86372600  0.07554700  0.84487800  1
  C  C14  1  0.93679700  0.07200300  0.87218400  1
  C  C15  1  0.01095000  0.09499400  0.83703700  1
  C  C16  1  0.08215100  0.07505800  0.86142200  1
  C  C17  1  0.13716500  0.05913900  0.81754000  1
  C  C18  1  0.19440800  0.04380000  0.85849000  1
  C  C19  1  0.17304600  0.04992500  0.92742700  1
  C  C20  1  0.21745500  0.03581100  0.98931700  1
  C  C21  1  0.13844600  0.05494600  0.74572200  1
  C  C22  1  0.20109100  0.03566800  0.71557600  1
  C  C23  1  0.26131700  0.02114000  0.75684800  1
  C  C24  1  0.25794800  0.02475500  0.82971000  1
  C  C25  1  0.29687200  0.99306200  0.12133200  1
  C  C26  1  0.31301300  0.96436300  0.18617700  1
  C  C27  1  0.24482400  0.92007900  0.23366200  1
  C  C28  1  0.16162300  0.90852400  0.21889200  1
  C  C29  1  0.87169600  0.95789000  0.25438600  1
  C  C30  1  0.80866200  0.97644300  0.28461400  1
  C  C31  1  0.74848600  0.99116600  0.24342600  1
  C  C32  1  0.75226900  0.98839600  0.17052900  1
  C  C33  1  0.71468300  0.02231200  0.87887500  1
  C  C34  1  0.69855000  0.05116200  0.81411200  1
  C  C35  1  0.76669700  0.09568200  0.76666500  1
  C  C36  1  0.84991600  0.10718500  0.78137600  1
  C  C37  1  0.68061900  0.00673900  0.27878600  1
  C  C38  1  0.48731500  0.85458900  0.39476700  1
  C  C39  1  0.40220600  0.98684700  0.20895600  1
  C  C40  1  0.52553700  0.17336400  0.35155900  1
  C  C41  1  0.53585100  0.22399100  0.41707500  1
  C  C42  1  0.52712300  0.30453400  0.42034200  1
  C  C43  1  0.52206600  0.34038500  0.48516000  1
  C  C44  1  0.52364800  0.29418500  0.54594600  1
  C  C45  1  0.52972700  0.21257300  0.54239900  1
  C  C46  1  0.53772400  0.17907600  0.47805500  1
  C  C47  1  0.56364300  0.50336200  0.45351200  1
  C  C48  1  0.55614200  0.58375100  0.46259300  1
  C  C49  1  0.49464300  0.58567700  0.50810300  1
  C  C50  1  0.43932900  0.50539800  0.54307700  1
  C  C51  1  0.44800800  0.42563900  0.53511900  1
  C  C52  1  0.51046600  0.42424100  0.49056100  1
  C  C53  1  0.48106300  0.71583200  0.45433500  1
  C  C54  1  0.47631800  0.79814400  0.45759600  1
  C  C55  1  0.47027200  0.83287800  0.52179300  1
  C  C56  1  0.47469100  0.78993900  0.58295700  1
  C  C57  1  0.48316900  0.70887600  0.58050400  1
  C  C58  1  0.48497500  0.67080500  0.51521400  1
  C  C59  1  0.60926700  0.02814900  0.79138900  1
  C  C60  1  0.48989700  0.84480800  0.64693400  1
  C  C61  1  0.32909800  0.00523400  0.72171200  1
  C  C62  1  0.51942200  0.15650500  0.60530300  1
  C  C63  1  0.43216200  0.63025800  0.68697400  1
  C  C64  1  0.43646900  0.56956200  0.74423400  1
  N  N1  1  0.09213700  0.98082400  0.06297600  1
  N  N2  1  0.90658100  0.94498100  0.07128800  1
  N  N3  1  0.91930100  0.03435700  0.93713000  1
  N  N4  1  0.10481200  0.07014600  0.92879200  1
  N  N5  1  0.50073400  0.67292900  0.64317100  1
  O  O1  1  0.61522100  0.00921500  0.24388700  1
  O  O2  1  0.48691300  0.82141800  0.33204200  1
  O  O3  1  0.68182700  0.01193900  0.34749800  1
  O  O4  1  0.50712900  0.94236900  0.40261900  1
  O  O5  1  0.41124000  0.94941000  0.26759000  1
  O  O6  1  0.47049700  0.05464000  0.17930000  1
  O  O7  1  0.58538400  0.14657100  0.33736100  1
  O  O8  1  0.44495100  0.12257500  0.32910200  1
  O  O9  1  0.59972700  0.06752300  0.73397300  1
  O  O10  1  0.54149400  0.95794000  0.81945100  1
  O  O11  1  0.42826000  0.86697000  0.66561200  1
  O  O12  1  0.57178100  0.90212200  0.66244300  1
  O  O13  1  0.51809600  0.18927700  0.66783600  1
  O  O14  1  0.39482400  0.00381100  0.75684000  1
  O  O15  1  0.50300100  0.06966700  0.59796500  1
  O  O16  1  0.32778800  0.99928700  0.65304000  1
  O  O17  1  0.36585800  0.63918900  0.67899200  1
