# Generated by REPEAT Assigner based on pymatgen
data_DB0-m3_o11_o25_f0_pcu.sym.38
_audit_creation_date              2022-05-24
_audit_creation_method            REPEAT_Assigner
_cell_length_a                    15.958138
_cell_length_b                    11.115065
_cell_length_c                    9.922284
_cell_angle_alpha                 89.997376
_cell_angle_beta                  89.994639
_cell_angle_gamma                 90.003411
_cell_volume                      1759.972511
_symmetry_space_group_name_H-M    P1
_symmetry_Int_Tables_number       1
loop_
    _symmetry_equiv_pos_site_id
    _symmetry_equiv_pos_as_xyz
    1  x,y,z
loop_
    _atom_site_type_symbol
    _atom_site_label
    _atom_site_fract_x
    _atom_site_fract_y
    _atom_site_fract_z
    _atom_type_partial_charge
    O   O1   0.505457  0.305193  0.637287  -0.589690
    O   O2   0.511967  0.301574  0.405500  -0.690028
    C   C1   0.505770  0.246968  0.522315  0.794637
    O   O3   0.388620  0.495861  0.619503  -0.577013
    O   O4   0.394858  0.489730  0.387369  -0.570426
    C   C2   0.352861  0.495579  0.500826  0.660364
    Zn  Zn1  0.511315  0.484862  0.670046  1.040560
    Zn  Zn2  0.520802  0.479571  0.363645  1.020435
    O   O5   0.521632  0.662651  0.628955  -0.655201
    O   O6   0.525980  0.659602  0.395785  -0.654229
    O   O7   0.637271  0.473818  0.646722  -0.706367
    O   O8   0.643654  0.470437  0.413748  -0.697803
    C   C3   0.526209  0.716937  0.511881  0.764662
    C   C4   0.679240  0.469100  0.532849  0.885360
    C   C5   0.994799  0.383362  0.582370  -0.138050
    C   C6   0.043756  0.387219  0.450846  -0.188191
    H   H1   0.068983  0.308503  0.395436  0.067772
    H   H2   0.974999  0.301123  0.637073  0.064329
    H   H3   0.953955  0.478734  0.293571  0.054458
    C   C7   0.262975  0.495869  0.496868  -0.016407
    C   C8   0.769124  0.468898  0.536907  -0.171592
    C   C9   0.048694  0.484276  0.639078  -0.219962
    C   C10  0.096031  0.488047  0.507673  0.801555
    C   C11  0.988341  0.577628  0.583013  -0.158454
    C   C12  0.936068  0.476799  0.526185  0.679438
    C   C13  0.037300  0.581484  0.451488  -0.199129
    C   C14  0.983406  0.480570  0.394781  -0.135158
    C   C15  0.187499  0.493402  0.499436  -0.500774
    C   C16  0.844599  0.471415  0.534392  -0.382052
    H   H4   0.057100  0.663722  0.396784  0.074744
    H   H5   0.963114  0.656343  0.638423  0.067424
    H   H6   0.078144  0.486112  0.740289  0.085141
    C   C17  0.511506  0.916957  0.409757  -0.122670
    C   C18  0.533009  0.848269  0.514597  -0.248892
    H   H7   0.495524  0.875173  0.314483  0.135073
    H   H8   0.553677  0.889120  0.607877  0.139175
    C   C19  0.515551  0.049732  0.416320  0.039448
    C   C20  0.493065  0.115671  0.524293  -0.408670
    H   H9   0.540083  0.094962  0.328020  0.119639
    C   C21  0.551827  0.559066  0.941868  0.093871
    N   N1   0.503597  0.490714  0.871167  -0.163458
    H   H10  0.601570  0.608274  0.891925  0.148179
    C   C22  0.545748  0.568040  0.090315  0.015256
    N   N2   0.529712  0.474964  0.162583  -0.175154
    H   H11  0.559644  0.653163  0.138467  0.155501
    H   H12  0.526560  0.394444  0.111820  0.242891
    C   C23  0.446173  0.063326  0.638691  0.878645
    O   O9   0.455718  0.103054  0.752229  -0.576221
    O   O10  0.388551  0.976719  0.616661  -0.457346
    C   C24  0.342228  0.930090  0.720742  0.518641
    C   C25  0.283104  0.835265  0.666408  -0.398160
    H   H13  0.305066  0.002622  0.768989  -0.050681
    H   H14  0.384533  0.888272  0.796089  -0.078219
    H   H15  0.240449  0.876617  0.591313  0.083012
    H   H16  0.245742  0.797124  0.750417  0.092497
    H   H17  0.319833  0.762622  0.617666  0.119852
    C   C26  0.422941  0.464486  0.923653  0.618309
    O   O11  0.387246  0.372700  0.888495  -0.424065
    O   O12  0.381605  0.546576  0.998677  -0.373355
    C   C27  0.301229  0.525824  0.041826  0.386308
    C   C28  0.270253  0.634126  0.119845  -0.232432
    H   H18  0.299969  0.445512  0.108181  -0.045194
    H   H19  0.259613  0.511196  0.953774  -0.017470
    H   H20  0.312226  0.651000  0.206834  0.065992
    H   H21  0.205746  0.616817  0.156636  0.058986
    H   H22  0.270039  0.714108  0.053024  0.050364
