# generated using pymatgen
data_ZnH17C20N3O4
_symmetry_space_group_name_H-M   'P 1'
_cell_length_a   13.47796600
_cell_length_b   8.55868300
_cell_length_c   14.98623500
_cell_angle_alpha   90.00000000
_cell_angle_beta   91.00034300
_cell_angle_gamma   90.00000000
_symmetry_Int_Tables_number   1
_chemical_formula_structural   ZnH17C20N3O4
_chemical_formula_sum   'Zn2 H34 C40 N6 O8'
_cell_volume   1728.45326177
_cell_formula_units_Z   2
loop_
 _symmetry_equiv_pos_site_id
 _symmetry_equiv_pos_as_xyz
  1  'x, y, z'
loop_
 _atom_site_type_symbol
 _atom_site_label
 _atom_site_symmetry_multiplicity
 _atom_site_fract_x
 _atom_site_fract_y
 _atom_site_fract_z
 _atom_site_occupancy
  Zn  Zn1  1  0.88888600  0.51576700  0.50338300  1
  Zn  Zn2  1  0.11111400  0.51576700  0.49661700  1
  H  H1  1  0.03760600  0.01683800  0.56246500  1
  H  H2  1  0.96239400  0.01683800  0.43753500  1
  H  H3  1  0.98877100  0.26652900  0.80123100  1
  H  H4  1  0.01010400  0.76491600  0.19927800  1
  H  H5  1  0.01122900  0.26652800  0.19876800  1
  H  H6  1  0.98989600  0.76491600  0.80072100  1
  H  H7  1  0.47410100  0.25269100  0.62771700  1
  H  H8  1  0.59224500  0.35667100  0.28996800  1
  H  H9  1  0.52589900  0.25269100  0.37228400  1
  H  H10  1  0.40775500  0.35667100  0.71003200  1
  H  H11  1  0.17475200  0.52347800  0.67147200  1
  H  H12  1  0.24389300  0.34959300  0.68823900  1
  H  H13  1  0.29537500  0.54197200  0.70902100  1
  H  H14  1  0.82524800  0.52347800  0.32852800  1
  H  H15  1  0.75610700  0.34959300  0.31176100  1
  H  H16  1  0.70462500  0.54197200  0.29097900  1
  H  H17  1  0.66904100  0.32851400  0.71624000  1
  H  H18  1  0.61015500  0.44652200  0.80200400  1
  H  H19  1  0.55391800  0.27157800  0.76244800  1
  H  H20  1  0.52848700  0.61338700  0.23271100  1
  H  H21  1  0.42978700  0.71144700  0.28990700  1
  H  H22  1  0.54467900  0.68004200  0.34582200  1
  H  H23  1  0.33095900  0.32851400  0.28376000  1
  H  H24  1  0.38984600  0.44652200  0.19799600  1
  H  H25  1  0.44608200  0.27157800  0.23755200  1
  H  H26  1  0.47151300  0.61338600  0.76728900  1
  H  H27  1  0.57021300  0.71144700  0.71009300  1
  H  H28  1  0.45532100  0.68004200  0.65417800  1
  H  H29  1  0.29297600  0.59611100  0.27522900  1
  H  H30  1  0.18138700  0.52469900  0.31347000  1
  H  H31  1  0.23387300  0.71768200  0.34650900  1
  H  H32  1  0.70702400  0.59611100  0.72477100  1
  H  H33  1  0.81861300  0.52469900  0.68653000  1
  H  H34  1  0.76612700  0.71768200  0.65349100  1
  C  C1  1  0.00835600  0.15559700  0.67573600  1
  C  C2  1  0.99100900  0.87689100  0.32460500  1
  C  C3  1  0.99164400  0.15559700  0.32426400  1
  C  C4  1  0.00899100  0.87689100  0.67539600  1
  C  C5  1  0.99530000  0.15621400  0.76676100  1
  C  C6  1  0.00402600  0.87550000  0.23354300  1
  C  C7  1  0.00470000  0.15621400  0.23323900  1
  C  C8  1  0.99597500  0.87550000  0.76645700  1
  C  C9  1  0.99446900  0.01569800  0.81304100  1
  C  C10  1  0.00553100  0.01569800  0.18695900  1
  C  C11  1  0.02183500  0.01647900  0.63231600  1
  C  C12  1  0.97816500  0.01647900  0.36768400  1
  C  C13  1  0.00522600  0.01552900  0.08918800  1
  C  C14  1  0.99477400  0.01552900  0.91081300  1
  C  C15  1  0.00593000  0.73509100  0.62113700  1
  C  C16  1  0.99478800  0.29776200  0.37815400  1
  C  C17  1  0.99407000  0.73509100  0.37886300  1
  C  C18  1  0.00521200  0.29776200  0.62184700  1
  C  C19  1  0.29536200  0.52336700  0.41709400  1
  C  C20  1  0.70463900  0.52336700  0.58290600  1
  C  C21  1  0.29259600  0.47345300  0.57225800  1
  C  C22  1  0.70740500  0.47345300  0.42774200  1
  C  C23  1  0.39312500  0.43771300  0.57111100  1
  C  C24  1  0.60687500  0.43771300  0.42888900  1
  C  C25  1  0.44557000  0.45049700  0.49565800  1
  C  C26  1  0.55443000  0.45049700  0.50434200  1
  C  C27  1  0.39712200  0.48242500  0.41576900  1
  C  C28  1  0.60287800  0.48242500  0.58423100  1
  C  C29  1  0.45010200  0.37121000  0.64827700  1
  C  C30  1  0.54989800  0.37121000  0.35172300  1
  C  C31  1  0.54247900  0.46721100  0.66859500  1
  C  C32  1  0.45752100  0.46721100  0.33140500  1
  C  C33  1  0.24750300  0.47161100  0.66350900  1
  C  C34  1  0.75249700  0.47161100  0.33649200  1
  C  C35  1  0.59784500  0.37420100  0.74140400  1
  C  C36  1  0.49124400  0.62705700  0.29766400  1
  C  C37  1  0.40215500  0.37420100  0.25859600  1
  C  C38  1  0.50875600  0.62705700  0.70233600  1
  C  C39  1  0.24767300  0.59194500  0.33449200  1
  C  C40  1  0.75232700  0.59194500  0.66550800  1
  N  N1  1  0.99766000  0.87962500  0.95590100  1
  N  N2  1  0.00234900  0.15139900  0.04409000  1
  N  N3  1  0.00234000  0.87962500  0.04409900  1
  N  N4  1  0.99765100  0.15139900  0.95591000  1
  N  N5  1  0.24229300  0.51429400  0.49486900  1
  N  N6  1  0.75770700  0.51429400  0.50513100  1
  O  O1  1  0.08931800  0.68574900  0.58731600  1
  O  O2  1  0.91154100  0.34593400  0.41280600  1
  O  O3  1  0.91068200  0.68574900  0.41268500  1
  O  O4  1  0.08845900  0.34593400  0.58719500  1
  O  O5  1  0.91865500  0.68019500  0.59644700  1
  O  O6  1  0.08212700  0.35358200  0.40204300  1
  O  O7  1  0.08134600  0.68019500  0.40355400  1
  O  O8  1  0.91787300  0.35358200  0.59795800  1
