# generated using pymatgen
data_Fe2H29C64N5O16
_symmetry_space_group_name_H-M   'P 1'
_cell_length_a   17.14794900
_cell_length_b   9.37003500
_cell_length_c   21.87103700
_cell_angle_alpha   85.66368000
_cell_angle_beta   90.00850700
_cell_angle_gamma   110.09706900
_symmetry_Int_Tables_number   1
_chemical_formula_structural   Fe2H29C64N5O16
_chemical_formula_sum   'Fe2 H29 C64 N5 O16'
_cell_volume   3289.49916396
_cell_formula_units_Z   1
loop_
 _symmetry_equiv_pos_site_id
 _symmetry_equiv_pos_as_xyz
  1  'x, y, z'
loop_
 _atom_site_type_symbol
 _atom_site_label
 _atom_site_symmetry_multiplicity
 _atom_site_fract_x
 _atom_site_fract_y
 _atom_site_fract_z
 _atom_site_occupancy
  Fe  Fe1  1  0.53061200  0.02237900  0.26187300  1
  Fe  Fe2  1  0.47386400  0.97694000  0.71922100  1
  H  H1  1  0.01477600  0.88602000  0.18864600  1
  H  H2  1  0.72808000  0.94553100  0.00733600  1
  H  H3  1  0.99037500  0.11806500  0.79037100  1
  H  H4  1  0.27619900  0.06471900  0.97070000  1
  H  H5  1  0.94062900  0.88088500  0.02246800  1
  H  H6  1  0.06326500  0.11874500  0.95285700  1
  H  H7  1  0.29807200  0.97866100  0.87498500  1
  H  H8  1  0.34806500  0.06165500  0.06159700  1
  H  H9  1  0.27458500  0.89770200  0.24897000  1
  H  H10  1  0.13111800  0.86550000  0.22715800  1
  H  H11  1  0.93740900  0.00328600  0.23892800  1
  H  H12  1  0.70567100  0.01968800  0.10577200  1
  H  H13  1  0.65758000  0.95632500  0.91719700  1
  H  H14  1  0.73369600  0.14048100  0.73220100  1
  H  H15  1  0.87653700  0.16312500  0.75358700  1
  H  H16  1  0.17349700  0.86619800  0.70621600  1
  H  H17  1  0.82273500  0.06542900  0.28082900  1
  H  H18  1  0.45649600  0.49895100  0.69568500  1
  H  H19  1  0.54010900  0.48545300  0.28424000  1
  H  H20  1  0.50918400  0.74290600  0.52299400  1
  H  H21  1  0.50604500  0.72678700  0.43070600  1
  H  H22  1  0.51166300  0.14217100  0.46080200  1
  H  H23  1  0.03944200  0.83672200  0.69583900  1
  H  H24  1  0.01924100  0.00071300  0.71635000  1
  H  H25  1  0.87446600  0.90087400  0.73778400  1
  H  H26  1  0.75454500  0.72783400  0.79862900  1
  H  H27  1  0.76898700  0.51647400  0.86595000  1
  H  H28  1  0.90367000  0.47801200  0.87186600  1
  H  H29  1  0.02383800  0.65065700  0.81181400  1
  C  C1  1  0.21807100  0.99496000  0.08632000  1
  C  C2  1  0.15922100  0.94432400  0.13200500  1
  C  C3  1  0.08497300  0.94165300  0.10728200  1
  C  C4  1  0.17742900  0.01622200  0.03357400  1
  C  C5  1  0.01460900  0.91207500  0.13970900  1
  C  C6  1  0.93988900  0.93544400  0.11519000  1
  C  C7  1  0.88449200  0.97434100  0.14982600  1
  C  C8  1  0.82217300  0.98163600  0.11293700  1
  C  C9  1  0.84092400  0.94793200  0.05544500  1
  C  C10  1  0.79169000  0.95162200  0.00066000  1
  C  C11  1  0.82599000  0.98758600  0.94436600  1
  C  C12  1  0.78722900  0.02036300  0.89253600  1
  C  C13  1  0.84634700  0.07071800  0.84708000  1
  C  C14  1  0.91848700  0.05863300  0.87077800  1
  C  C15  1  0.98767100  0.07930300  0.83818900  1
  C  C16  1  0.05846000  0.04162100  0.86309100  1
  C  C17  1  0.11226600  0.99330100  0.82985200  1
  C  C18  1  0.17738800  0.99905700  0.86657800  1
  C  C19  1  0.16060200  0.04381200  0.92236900  1
  C  C20  1  0.21140200  0.05115800  0.97709700  1
  C  C21  1  0.10744300  0.93826500  0.77254200  1
  C  C22  1  0.17503100  0.90564400  0.75147800  1
  C  C23  1  0.24481600  0.92450300  0.78679400  1
  C  C24  1  0.24511200  0.96605500  0.84640700  1
  C  C25  1  0.30062700  0.01730600  0.09742100  1
  C  C26  1  0.32094500  0.98171600  0.15683900  1
  C  C27  1  0.25920400  0.92421800  0.20258600  1
  C  C28  1  0.17775000  0.90716900  0.19073400  1
  C  C29  1  0.88690500  0.00642900  0.20997700  1
  C  C30  1  0.82191100  0.04276900  0.23309200  1
  C  C31  1  0.75595200  0.04641900  0.19640200  1
  C  C32  1  0.75628800  0.01782900  0.13485400  1
  C  C33  1  0.70547000  0.00437100  0.88189500  1
  C  C34  1  0.68593000  0.04587400  0.82312600  1
  C  C35  1  0.74834400  0.10802100  0.77804400  1
  C  C36  1  0.82928800  0.11933000  0.78953400  1
  C  C37  1  0.68402200  0.06617100  0.22607200  1
  C  C38  1  0.53110700  0.75185000  0.31272600  1
  C  C39  1  0.40696900  0.00975400  0.17443100  1
  C  C40  1  0.51663800  0.22204500  0.34384900  1
  C  C41  1  0.46646100  0.49856100  0.64696100  1
  C  C42  1  0.48105800  0.63132000  0.61048100  1
  C  C43  1  0.49629100  0.63454200  0.54840600  1
  C  C44  1  0.47136000  0.37040900  0.62227900  1
  C  C45  1  0.48549900  0.37299900  0.55948600  1
  C  C46  1  0.49561900  0.50372800  0.52146000  1
  C  C47  1  0.50684900  0.50038800  0.45794700  1
  C  C48  1  0.51292800  0.62456600  0.41675900  1
  C  C49  1  0.52630400  0.62023500  0.35502300  1
  C  C50  1  0.50434100  0.24398500  0.47562200  1
  C  C51  1  0.51034300  0.36807300  0.43494700  1
  C  C52  1  0.52181300  0.36279700  0.37193700  1
  C  C53  1  0.53229200  0.49071400  0.33292400  1
  C  C54  1  0.59955300  0.01260000  0.80544200  1
  C  C55  1  0.48596900  0.77214100  0.63796400  1
  C  C56  1  0.31885900  0.91218500  0.75732300  1
  C  C57  1  0.46502000  0.23671300  0.66447400  1
  C  C58  1  0.03073600  0.89729000  0.73545400  1
  C  C59  1  0.95805700  0.79206100  0.77281400  1
  C  C60  1  0.88182300  0.81091100  0.76847400  1
  C  C61  1  0.81410500  0.71250800  0.80210000  1
  C  C62  1  0.82212200  0.59380500  0.83969200  1
  C  C63  1  0.89764100  0.57238300  0.84304200  1
  C  C64  1  0.96541400  0.67058300  0.80938700  1
  N  N1  1  0.09573400  0.98448000  0.04665200  1
  N  N2  1  0.91307900  0.91862000  0.05727600  1
  N  N3  1  0.90641600  0.00948600  0.93076500  1
  N  N4  1  0.08822800  0.07146500  0.91967900  1
  N  N5  1  0.49114900  0.24865800  0.53578300  1
  O  O1  1  0.61645700  0.05959100  0.19637200  1
  O  O2  1  0.54541400  0.74944400  0.25394300  1
  O  O3  1  0.68168200  0.06586900  0.28604700  1
  O  O4  1  0.51998200  0.87225100  0.33282400  1
  O  O5  1  0.41959700  0.93310900  0.22389100  1
  O  O6  1  0.46792800  0.12491300  0.14801500  1
  O  O7  1  0.56272800  0.22836200  0.29483500  1
  O  O8  1  0.45675200  0.09401100  0.36117700  1
  O  O9  1  0.58502300  0.08194700  0.75465600  1
  O  O10  1  0.54018300  0.89668000  0.83303500  1
  O  O11  1  0.44742500  0.76723300  0.69057000  1
  O  O12  1  0.53289700  0.90381600  0.61128300  1
  O  O13  1  0.45152400  0.24087300  0.72325700  1
  O  O14  1  0.38921000  0.93822600  0.78579200  1
  O  O15  1  0.47786400  0.11659000  0.64580800  1
  O  O16  1  0.31933800  0.90143100  0.69786100  1
