# generated using pymatgen
data_CuH26C29(NO3)2
_symmetry_space_group_name_H-M   'P 1'
_cell_length_a   12.58204000
_cell_length_b   13.99821400
_cell_length_c   23.39895400
_cell_angle_alpha   90.02992600
_cell_angle_beta   93.61881800
_cell_angle_gamma   98.21620400
_symmetry_Int_Tables_number   1
_chemical_formula_structural   CuH26C29(NO3)2
_chemical_formula_sum   'Cu2 H52 C58 N4 O12'
_cell_volume   4070.54298021
_cell_formula_units_Z   2
loop_
 _symmetry_equiv_pos_site_id
 _symmetry_equiv_pos_as_xyz
  1  'x, y, z'
loop_
 _atom_site_type_symbol
 _atom_site_label
 _atom_site_symmetry_multiplicity
 _atom_site_fract_x
 _atom_site_fract_y
 _atom_site_fract_z
 _atom_site_occupancy
  Cu  Cu1  1  0.41221300  0.49489500  0.49693900  1
  Cu  Cu2  1  0.62676000  0.50726000  0.50461300  1
  H  H1  1  0.46461100  0.26313500  0.94198000  1
  H  H2  1  0.48897400  0.73220900  0.05663700  1
  H  H3  1  0.63633400  0.61217900  0.21626800  1
  H  H4  1  0.62554000  0.41081700  0.79302100  1
  H  H5  1  0.38646500  0.37538900  0.21272100  1
  H  H6  1  0.39596000  0.60389800  0.77978600  1
  H  H7  1  0.40040800  0.97962300  0.51267300  1
  H  H8  1  0.63857700  0.02262000  0.48886800  1
  H  H9  1  0.04271700  0.57661200  0.54888000  1
  H  H10  1  0.99625200  0.42537000  0.45285700  1
  H  H11  1  0.41027200  0.23021100  0.09499400  1
  H  H12  1  0.35865800  0.13734900  0.97850200  1
  H  H13  1  0.27775400  0.22068700  0.00816000  1
  H  H14  1  0.30009800  0.11231900  0.04573000  1
  H  H15  1  0.54946900  0.15289800  0.00694000  1
  H  H16  1  0.50408600  0.09543100  0.07190200  1
  H  H17  1  0.59976600  0.20492000  0.07566100  1
  H  H18  1  0.43586300  0.75576400  0.90015200  1
  H  H19  1  0.39497300  0.84065800  0.01363300  1
  H  H20  1  0.30423200  0.74225500  0.97852300  1
  H  H21  1  0.33754500  0.85543100  0.94267800  1
  H  H22  1  0.58560800  0.85828800  0.99748900  1
  H  H23  1  0.54492100  0.90828200  0.92977500  1
  H  H24  1  0.63005500  0.81458400  0.93179900  1
  H  H25  1  0.63382200  0.65791800  0.37364600  1
  H  H26  1  0.79426500  0.64551900  0.28143500  1
  H  H27  1  0.78628600  0.57461300  0.34593900  1
  H  H28  1  0.81849000  0.70446000  0.35062000  1
  H  H29  1  0.66748000  0.75943900  0.26067300  1
  H  H30  1  0.65959700  0.80643700  0.33145200  1
  H  H31  1  0.53981600  0.74433200  0.29402000  1
  H  H32  1  0.61953600  0.36392800  0.63538700  1
  H  H33  1  0.78193300  0.40588300  0.73883100  1
  H  H34  1  0.78093100  0.47596700  0.67401400  1
  H  H35  1  0.80121400  0.35091800  0.67116200  1
  H  H36  1  0.64312000  0.26785400  0.75043900  1
  H  H37  1  0.63134300  0.21890200  0.67900600  1
  H  H38  1  0.51608600  0.25958300  0.70814300  1
  H  H39  1  0.41165100  0.33282700  0.37047200  1
  H  H40  1  0.23832300  0.33861700  0.27267300  1
  H  H41  1  0.25332500  0.41321400  0.33650800  1
  H  H42  1  0.22416600  0.28353000  0.34199400  1
  H  H43  1  0.36663200  0.22834800  0.25618700  1
  H  H44  1  0.38206800  0.18286400  0.32753200  1
  H  H45  1  0.49778400  0.24540500  0.29472100  1
  H  H46  1  0.42538100  0.65049800  0.62373300  1
  H  H47  1  0.24984600  0.61282000  0.70958400  1
  H  H48  1  0.25835900  0.54018500  0.64664000  1
  H  H49  1  0.24073700  0.66549900  0.63938500  1
  H  H50  1  0.38913300  0.74810700  0.73502000  1
  H  H51  1  0.40910000  0.79646000  0.66480300  1
  H  H52  1  0.51996500  0.75510800  0.70554200  1
  C  C1  1  0.50264800  0.31627300  0.50243700  1
  C  C2  1  0.53633500  0.68597200  0.49912100  1
  C  C3  1  0.51940600  0.49740500  0.39078400  1
  C  C4  1  0.51944600  0.50475000  0.61070100  1
  C  C5  1  0.51258300  0.58793000  0.88324300  1
  C  C6  1  0.50502700  0.41308100  0.11740800  1
  C  C7  1  0.48329600  0.41904800  0.88023200  1
  C  C8  1  0.49239800  0.57822200  0.11909900  1
  C  C9  1  0.48241000  0.41631100  0.93918700  1
  C  C10  1  0.49132800  0.58082000  0.06007200  1
  C  C11  1  0.48746400  0.50049900  0.97010200  1
  C  C12  1  0.48758900  0.49676800  0.02918700  1
  C  C13  1  0.49411300  0.58789000  0.94160500  1
  C  C14  1  0.48575500  0.40980500  0.05783200  1
  C  C15  1  0.47144300  0.32880400  0.96682900  1
  C  C16  1  0.48889300  0.66714700  0.03199600  1
  C  C17  1  0.46857100  0.32354300  0.02574600  1
  C  C18  1  0.48591700  0.67191100  0.97288300  1
  C  C19  1  0.58241700  0.56132500  0.23924200  1
  C  C20  1  0.57607000  0.45216000  0.76641500  1
  C  C21  1  0.58347300  0.56638000  0.29841000  1
  C  C22  1  0.57689500  0.44708300  0.70732900  1
  C  C23  1  0.51883600  0.49510100  0.32775400  1
  C  C24  1  0.51849000  0.50697900  0.67366200  1
  C  C25  1  0.45127700  0.42255500  0.29641700  1
  C  C26  1  0.45697300  0.56779100  0.70043900  1
  C  C27  1  0.44377800  0.42670100  0.23724900  1
  C  C28  1  0.44894500  0.56254500  0.75909600  1
  C  C29  1  0.51011500  0.49440400  0.20841100  1
  C  C30  1  0.50941800  0.50654500  0.79237100  1
  C  C31  1  0.54547200  0.78930700  0.49819600  1
  C  C32  1  0.49351300  0.21293800  0.50335400  1
  C  C33  1  0.56215800  0.97962800  0.49650800  1
  C  C34  1  0.47682600  0.02261600  0.50503100  1
  C  C35  1  0.48588400  0.12616400  0.50412000  1
  C  C36  1  0.55310100  0.87608000  0.49742400  1
  C  C37  1  0.04369200  0.47408700  0.48382800  1
  C  C38  1  0.99527300  0.52789400  0.51790400  1
  C  C39  1  0.87995000  0.52146000  0.51367800  1
  C  C40  1  0.15901300  0.48056500  0.48800300  1
  C  C41  1  0.43600400  0.22504100  0.05106400  1
  C  C42  1  0.33724400  0.17085000  0.01832600  1
  C  C43  1  0.52825700  0.16582800  0.05127900  1
  C  C44  1  0.46296100  0.76556000  0.94577700  1
  C  C45  1  0.36933200  0.80297100  0.97232200  1
  C  C46  1  0.56226000  0.84149800  0.95171700  1
  C  C47  1  0.65145300  0.65182500  0.32834100  1
  C  C48  1  0.77019300  0.64355000  0.32622200  1
  C  C49  1  0.62801300  0.74613100  0.30150800  1
  C  C50  1  0.63759600  0.37335000  0.68193200  1
  C  C51  1  0.75809900  0.40347800  0.69237900  1
  C  C52  1  0.60490700  0.27396200  0.70686700  1
  C  C53  1  0.38806100  0.33726400  0.32444700  1
  C  C54  1  0.26834700  0.34360600  0.31828600  1
  C  C55  1  0.41004100  0.24281300  0.29868700  1
  C  C56  1  0.40108300  0.64189100  0.66813600  1
  C  C57  1  0.27977700  0.61323200  0.66603000  1
  C  C58  1  0.43174600  0.74136800  0.69551200  1
  N  N1  1  0.50174300  0.50429100  0.85325000  1
  N  N2  1  0.50264800  0.49550100  0.14701100  1
  N  N3  1  0.25180400  0.48579500  0.49133600  1
  N  N4  1  0.78716100  0.51626700  0.51028800  1
  O  O1  1  0.41446900  0.35570400  0.49572900  1
  O  O2  1  0.62464700  0.64648000  0.50386000  1
  O  O3  1  0.59878900  0.36659700  0.50828500  1
  O  O4  1  0.44006300  0.63570700  0.49522700  1
  O  O5  1  0.42702300  0.49136100  0.41442800  1
  O  O6  1  0.61212200  0.51440600  0.58705900  1
  O  O7  1  0.61171000  0.50505300  0.42100200  1
  O  O8  1  0.42709100  0.49348600  0.58050100  1
  O  O9  1  0.55087400  0.66991500  0.85706100  1
  O  O10  1  0.53583900  0.33722600  0.14578500  1
  O  O11  1  0.46543200  0.33633000  0.84965900  1
  O  O12  1  0.48281500  0.65848200  0.14877600  1
