# generated using pymatgen
data_ZnH18C23NO4
_symmetry_space_group_name_H-M   'P 1'
_cell_length_a   14.39692200
_cell_length_b   8.54913900
_cell_length_c   15.09422600
_cell_angle_alpha   90.00000000
_cell_angle_beta   111.41129400
_cell_angle_gamma   90.00000000
_symmetry_Int_Tables_number   1
_chemical_formula_structural   ZnH18C23NO4
_chemical_formula_sum   'Zn2 H36 C46 N2 O8'
_cell_volume   1729.59745185
_cell_formula_units_Z   2
loop_
 _symmetry_equiv_pos_site_id
 _symmetry_equiv_pos_as_xyz
  1  'x, y, z'
loop_
 _atom_site_type_symbol
 _atom_site_label
 _atom_site_symmetry_multiplicity
 _atom_site_fract_x
 _atom_site_fract_y
 _atom_site_fract_z
 _atom_site_occupancy
  Zn  Zn1  1  0.88885600  0.47554100  0.46896500  1
  Zn  Zn2  1  0.11071800  0.47602600  0.53089600  1
  H  H1  1  0.03929700  0.97521600  0.57431600  1
  H  H2  1  0.95778000  0.97601400  0.42412400  1
  H  H3  1  0.99305700  0.22660000  0.79633300  1
  H  H4  1  0.00936000  0.72511200  0.20469400  1
  H  H5  1  0.00602800  0.22692800  0.20334100  1
  H  H6  1  0.99628600  0.72467600  0.79769200  1
  H  H7  1  0.90689300  0.77301700  0.88864200  1
  H  H8  1  0.09633400  0.17853400  0.11267700  1
  H  H9  1  0.91070700  0.77186700  0.05022800  1
  H  H10  1  0.09243100  0.17962300  0.95083800  1
  H  H11  1  0.24697400  0.45534800  0.43647300  1
  H  H12  1  0.75270300  0.45534600  0.56345400  1
  H  H13  1  0.24938500  0.48707200  0.71137200  1
  H  H14  1  0.75022300  0.48665200  0.28856000  1
  H  H15  1  0.57480200  0.50153600  0.22285200  1
  H  H16  1  0.42468400  0.50156000  0.77704700  1
  H  H17  1  0.32148500  0.54438800  0.35829500  1
  H  H18  1  0.67824000  0.54318400  0.64190000  1
  H  H19  1  0.33182700  0.31699300  0.13974400  1
  H  H20  1  0.46041500  0.30751500  0.21205500  1
  H  H21  1  0.41973800  0.40923100  0.09875800  1
  H  H22  1  0.24556900  0.45477700  0.21214300  1
  H  H23  1  0.24183000  0.56362200  0.10934300  1
  H  H24  1  0.26249300  0.66558500  0.21897600  1
  H  H25  1  0.48490700  0.74084100  0.23743700  1
  H  H26  1  0.36430100  0.76394000  0.14701600  1
  H  H27  1  0.45665300  0.65483300  0.12104000  1
  H  H28  1  0.66777500  0.31984500  0.86406900  1
  H  H29  1  0.54114200  0.30528400  0.78572400  1
  H  H30  1  0.57356100  0.40827600  0.89791200  1
  H  H31  1  0.75352500  0.45314000  0.78844700  1
  H  H32  1  0.75731800  0.56360900  0.89080900  1
  H  H33  1  0.73700100  0.66405200  0.78078600  1
  H  H34  1  0.51391600  0.74031000  0.76270600  1
  H  H35  1  0.63510100  0.76468300  0.85177800  1
  H  H36  1  0.54394100  0.65573900  0.87969400  1
  C  C1  1  0.01357800  0.11507800  0.67876500  1
  C  C2  1  0.98614700  0.83637200  0.32098700  1
  C  C3  1  0.98677200  0.11525300  0.32114200  1
  C  C4  1  0.01284700  0.83622900  0.67869600  1
  C  C5  1  0.00129000  0.11620900  0.76512300  1
  C  C6  1  0.00034700  0.83543700  0.23553100  1
  C  C7  1  0.00121300  0.11612400  0.23572800  1
  C  C8  1  0.00031400  0.83547300  0.76496200  1
  C  C9  1  0.99956700  0.97601600  0.81082700  1
  C  C10  1  0.00273800  0.97563300  0.19010500  1
  C  C11  1  0.02553900  0.97549400  0.63955800  1
  C  C12  1  0.97297900  0.97589300  0.35960900  1
  C  C13  1  0.94999800  0.86128700  0.93755900  1
  C  C14  1  0.05328000  0.09018100  0.06372300  1
  C  C15  1  0.95259700  0.86026400  0.02974100  1
  C  C16  1  0.05068800  0.09115900  0.97148400  1
  C  C17  1  0.00426400  0.97455200  0.09345100  1
  C  C18  1  0.99887800  0.97694000  0.90776900  1
  C  C19  1  0.00837300  0.69386600  0.62387300  1
  C  C20  1  0.99118800  0.25742000  0.37616100  1
  C  C21  1  0.99093700  0.69424000  0.37612500  1
  C  C22  1  0.00867200  0.25713600  0.62358100  1
  C  C23  1  0.60744500  0.49669900  0.29891700  1
  C  C24  1  0.39211900  0.49666400  0.70100100  1
  C  C25  1  0.70932700  0.48670300  0.33600900  1
  C  C26  1  0.29024100  0.48709700  0.66388600  1
  C  C27  1  0.70831200  0.47458400  0.48984400  1
  C  C28  1  0.29129800  0.47497300  0.51006400  1
  C  C29  1  0.60422400  0.49331800  0.45607700  1
  C  C30  1  0.39538800  0.49351300  0.54386800  1
  C  C31  1  0.55269100  0.50124200  0.35804400  1
  C  C32  1  0.44685700  0.50135500  0.64187900  1
  C  C33  1  0.55145800  0.50137700  0.51815700  1
  C  C34  1  0.44819200  0.50148700  0.48183800  1
  C  C35  1  0.39892200  0.51855000  0.38433300  1
  C  C36  1  0.60070400  0.51815600  0.61571100  1
  C  C37  1  0.44871400  0.51738500  0.32099500  1
  C  C38  1  0.55078700  0.51741500  0.67896400  1
  C  C39  1  0.39068700  0.53421000  0.21403200  1
  C  C40  1  0.40238200  0.38455100  0.16308300  1
  C  C41  1  0.27849200  0.55585500  0.18789300  1
  C  C42  1  0.42688100  0.68061000  0.17753400  1
  C  C43  1  0.60856600  0.53404600  0.78594600  1
  C  C44  1  0.59612500  0.38438000  0.83649800  1
  C  C45  1  0.72080300  0.55491300  0.81227900  1
  C  C46  1  0.57264300  0.68081500  0.82238000  1
  N  N1  1  0.75826600  0.47590400  0.43003800  1
  N  N2  1  0.24130500  0.47669400  0.56983300  1
  O  O1  1  0.09104600  0.64511000  0.61540200  1
  O  O2  1  0.90829300  0.30640200  0.38434900  1
  O  O3  1  0.90835500  0.64492200  0.38454500  1
  O  O4  1  0.09145400  0.30662900  0.61542900  1
  O  O5  1  0.92002000  0.63855800  0.57232300  1
  O  O6  1  0.07969800  0.31261500  0.42775800  1
  O  O7  1  0.07939200  0.63924300  0.42763600  1
  O  O8  1  0.92003900  0.31192200  0.57200200  1
