# Generated by REPEAT Assigner based on pymatgen
data_DB0-m29_o86_o47_f0_pts.sym.35
_audit_creation_date              2022-05-24
_audit_creation_method            REPEAT_Assigner
_cell_length_a                    9.395555
_cell_length_b                    13.973303
_cell_length_c                    15.331670
_cell_angle_alpha                 94.079092
_cell_angle_beta                  94.200636
_cell_angle_gamma                 74.735254
_cell_volume                      1933.803455
_symmetry_space_group_name_H-M    P1
_symmetry_Int_Tables_number       1
loop_
    _symmetry_equiv_pos_site_id
    _symmetry_equiv_pos_as_xyz
    1  x,y,z
loop_
    _atom_site_type_symbol
    _atom_site_label
    _atom_site_fract_x
    _atom_site_fract_y
    _atom_site_fract_z
    _atom_type_partial_charge
    C   C1   0.068756  0.990047  0.179598  0.080749
    C   C2   0.962521  0.987668  0.236393  -0.195750
    C   C3   0.818765  0.994072  0.205863  0.098264
    C   C4   0.782447  0.000632  0.117174  -0.254690
    C   C5   0.889213  0.000448  0.059563  0.282917
    C   C6   0.032794  0.995208  0.090208  -0.014128
    C   C7   0.850861  0.005846  0.971039  -0.263276
    C   C8   0.956267  0.003875  0.911625  0.056355
    C   C9   0.099847  0.998656  0.942268  0.203304
    C   C10  0.138196  0.993276  0.030799  -0.212095
    C   C11  0.920306  0.008963  0.822231  0.080205
    C   C12  0.026521  0.011372  0.765431  -0.216157
    C   C13  0.170279  0.004993  0.795951  0.083855
    C   C14  0.206613  0.998446  0.884643  -0.204395
    H   H1   0.992099  0.984591  0.305758  0.205267
    H   H2   0.670306  0.005403  0.092321  0.186302
    H   H3   0.996965  0.014362  0.696059  0.213282
    H   H4   0.318755  0.993683  0.909489  0.171961
    H   H5   0.252574  0.985537  0.051607  0.164118
    H   H6   0.736470  0.013634  0.950245  0.155576
    O   O1   0.571150  0.994290  0.238520  -0.573788
    C   C15  0.706294  0.993939  0.267482  0.590804
    O   O2   0.656796  0.806504  0.312213  -0.498057
    O   O3   0.741715  0.989526  0.351783  -0.511127
    O   O4   0.524810  0.884037  0.426074  -0.533006
    C   C16  0.623614  0.807123  0.393940  0.582085
    Fe  Fe1  0.450507  0.982420  0.335751  1.444846
    O   O5   0.275770  0.938001  0.282112  -0.629726
    O   O6   0.270998  0.065858  0.197764  -0.559822
    C   C17  0.214239  0.994356  0.217548  0.622327
    O   O7   0.420340  0.117549  0.396744  -0.604248
    O   O8   0.199410  0.086457  0.416158  -0.486839
    C   C18  0.287640  0.145668  0.427416  0.714229
    O   O9   0.569771  0.880058  0.605330  -0.599357
    O   O10  0.788557  0.913023  0.583625  -0.484177
    C   C19  0.701599  0.852906  0.573491  0.712272
    O   O11  0.713499  0.060391  0.719451  -0.639233
    O   O12  0.718174  0.933020  0.804337  -0.513512
    C   C20  0.774906  0.004427  0.784280  0.619978
    O   O13  0.247121  0.009923  0.650042  -0.525858
    O   O14  0.464766  0.113426  0.575105  -0.535146
    C   C21  0.367386  0.190930  0.607484  0.620260
    O   O15  0.418228  0.003881  0.763162  -0.604383
    C   C22  0.282756  0.005030  0.734296  0.646059
    O   O16  0.335169  0.192023  0.689455  -0.516016
    Fe  Fe2  0.538984  0.015546  0.665838  1.442272
    C   C23  0.232588  0.246120  0.466909  -0.082100
    C   C24  0.280413  0.270176  0.551471  -0.064351
    C   C25  0.225746  0.366209  0.587521  0.096140
    C   C26  0.285601  0.396787  0.666269  -0.127263
    C   C27  0.224935  0.488450  0.705129  -0.198599
    C   C28  0.068342  0.290035  0.339365  -0.131103
    C   C29  0.120805  0.314330  0.422729  0.071296
    C   C30  0.058247  0.406703  0.462428  0.009127
    C   C31  0.952124  0.355297  0.298071  -0.165724
    C   C32  0.888762  0.445989  0.338242  0.198126
    C   C33  0.111815  0.433248  0.544284  0.012330
    C   C34  0.049700  0.526348  0.583452  0.008429
    C   C35  0.104037  0.553402  0.665488  0.159105
    C   C36  0.037813  0.644938  0.706295  -0.124473
    C   C37  0.942494  0.472837  0.419814  -0.002069
    C   C38  0.880235  0.565660  0.458440  0.039025
    C   C39  0.933432  0.592194  0.540456  -0.004315
    C   C40  0.869771  0.684270  0.579660  0.068501
    C   C41  0.920318  0.708865  0.663280  -0.130068
    C   C42  0.770265  0.509249  0.296713  -0.211935
    C   C43  0.708107  0.601247  0.334688  -0.099282
    C   C44  0.766390  0.632148  0.414227  0.051362
    C   C45  0.710890  0.728045  0.450070  -0.031304
    C   C46  0.757877  0.752207  0.534796  -0.080113
    H   H7   0.383806  0.351773  0.698512  0.121268
    H   H8   0.276894  0.506232  0.766860  0.171181
    H   H9   0.114828  0.220559  0.304112  0.141042
    H   H10  0.911005  0.334721  0.233687  0.117243
    H   H11  0.868594  0.778557  0.696066  0.122759
    H   H12  0.724803  0.486902  0.234115  0.147138
    H   H13  0.610785  0.646041  0.301464  0.120196
    C   C47  0.090695  0.675602  0.796455  0.667846
    F   F1   0.082741  0.606695  0.855134  -0.229701
    F   F2   0.005051  0.767183  0.825276  -0.196853
    F   F3   0.234879  0.682073  0.795046  -0.245358
