# Generated by REPEAT Assigner based on pymatgen
data_DB0-m3_o1_o146_f0_fsc.sym.79_sqe
_audit_creation_date              2022-05-24
_audit_creation_method            REPEAT_Assigner
_cell_length_a                    15.530207
_cell_length_b                    11.453636
_cell_length_c                    9.224554
_cell_angle_alpha                 90.171731
_cell_angle_beta                  89.999382
_cell_angle_gamma                 90.000000
_cell_volume                      1640.831759
_symmetry_space_group_name_H-M    P1
_symmetry_Int_Tables_number       1
loop_
    _symmetry_equiv_pos_site_id
    _symmetry_equiv_pos_as_xyz
    1  x,y,z
loop_
    _atom_site_type_symbol
    _atom_site_label
    _atom_site_fract_x
    _atom_site_fract_y
    _atom_site_fract_z
    _atom_type_partial_charge
    C   C1   0.305985  0.742370  0.005132  -0.138387
    C   C2   0.693200  0.257585  0.998345  -0.110703
    C   C3   0.076954  0.941060  0.008846  -0.263391
    C   C4   0.922266  0.058910  0.995081  -0.090253
    C   C5   0.189812  0.830930  0.136063  -0.156847
    C   C6   0.806405  0.162654  0.866754  -0.160211
    H   H1   0.154888  0.843328  0.236310  0.080739
    H   H2   0.838753  0.144857  0.765301  0.100881
    C   C7   0.276975  0.794649  0.879313  -0.093337
    C   C8   0.725226  0.211509  0.125863  -0.090164
    H   H3   0.309502  0.780032  0.777299  0.113220
    H   H4   0.695172  0.230998  0.228777  0.105812
    C   C9   0.263091  0.763147  0.134184  -0.090042
    C   C10  0.733175  0.230679  0.868347  -0.113153
    H   H5   0.284161  0.723303  0.234100  0.101992
    H   H6   0.709565  0.265391  0.767078  0.112499
    C   C11  0.159393  0.879587  0.009709  0.482575
    C   C12  0.839918  0.120554  0.994584  0.381096
    C   C13  0.204235  0.863857  0.882094  -0.263990
    C   C14  0.798160  0.142780  0.123623  -0.224285
    H   H7   0.180307  0.901762  0.782763  0.118482
    H   H8   0.824499  0.109971  0.224035  0.105325
    C   C15  0.305298  0.260184  0.996381  -0.083822
    C   C16  0.693588  0.740429  0.005717  -0.112226
    C   C17  0.076397  0.061200  0.998857  -0.002977
    C   C18  0.922752  0.938814  0.005377  -0.164327
    C   C19  0.183962  0.179822  0.870848  -0.083603
    C   C20  0.810392  0.829353  0.134596  -0.272365
    H   H9   0.145025  0.173657  0.773996  0.082271
    H   H10  0.845916  0.841981  0.234192  0.117755
    C   C21  0.280922  0.200801  0.120079  -0.060859
    C   C22  0.722262  0.791896  0.879109  -0.091315
    H   H11  0.317408  0.209456  0.219290  0.104597
    H   H12  0.689374  0.776875  0.777519  0.110303
    C   C23  0.257473  0.247177  0.870795  -0.108613
    C   C24  0.737025  0.761653  0.134123  -0.017885
    H   H13  0.274732  0.293206  0.772937  0.103315
    H   H14  0.716272  0.722246  0.234499  0.096840
    C   C25  0.158665  0.123068  0.995228  0.157533
    C   C26  0.840316  0.877353  0.007407  0.295484
    C   C27  0.208273  0.131376  0.118813  -0.257521
    C   C28  0.795135  0.860803  0.880395  -0.225541
    H   H15  0.188172  0.087631  0.216812  0.118202
    H   H16  0.818762  0.898003  0.780452  0.118707
    C   C29  0.000445  0.878666  0.011214  0.094374
    C   C30  0.998724  0.121214  0.993226  -0.034491
    O   O1   0.593526  0.616262  0.126719  -0.650885
    O   O2   0.405535  0.383968  0.875878  -0.637187
    O   O3   0.590188  0.624877  0.877001  -0.643488
    O   O4   0.409058  0.375016  0.125617  -0.646959
    C   C31  0.621227  0.658150  0.002975  0.712319
    C   C32  0.377898  0.341999  0.999559  0.698407
    O   O5   0.593155  0.381966  0.877680  -0.642082
    O   O6   0.405932  0.617902  0.124957  -0.650940
    O   O7   0.590370  0.374133  0.127104  -0.646124
    O   O8   0.408885  0.626080  0.875525  -0.643648
    C   C33  0.621038  0.340222  0.001265  0.722184
    C   C34  0.378142  0.659795  0.001475  0.738707
    Zn  Zn1  0.500408  0.501170  0.840494  1.007553
    Zn  Zn2  0.498758  0.498870  0.162129  1.006870
    C   C35  0.500020  0.399489  0.577567  0.040718
    C   C36  0.499162  0.600555  0.425056  0.043233
    H   H17  0.500478  0.318302  0.636956  0.097379
    H   H18  0.498699  0.681742  0.365667  0.097968
    C   C37  0.500275  0.397316  0.428089  -0.008428
    C   C38  0.498912  0.602728  0.574535  -0.005070
    H   H19  0.500581  0.314584  0.371450  0.139759
    H   H20  0.498612  0.685460  0.631174  0.135279
    N   N1   0.500176  0.497963  0.353405  -0.034297
    N   N2   0.498998  0.502081  0.649218  -0.040070
    C   C39  0.003907  0.747475  0.012868  0.099125
    O   O9   0.048410  0.707346  0.891222  -0.488445
    H   H21  0.939768  0.705846  0.012811  0.042071
    H   H22  0.037092  0.717317  0.112255  0.032688
    H   H23  0.005785  0.711165  0.811577  0.325196
    C   C40  0.995327  0.252287  0.992022  0.127738
    O   O10  0.968936  0.290967  0.855966  -0.504523
    H   H24  0.057803  0.293299  0.018670  0.049195
    H   H25  0.949689  0.284116  0.075690  0.019882
    H   H26  0.018338  0.336777  0.819195  0.314179
