# generated using pymatgen
data_V2H10(C5O2)5
_symmetry_space_group_name_H-M   'P 1'
_cell_length_a   6.70452100
_cell_length_b   14.65605100
_cell_length_c   20.15622900
_cell_angle_alpha   107.99261300
_cell_angle_beta   89.20371300
_cell_angle_gamma   91.10864800
_symmetry_Int_Tables_number   1
_chemical_formula_structural   V2H10(C5O2)5
_chemical_formula_sum   'V4 H20 C50 O20'
_cell_volume   1883.31145754
_cell_formula_units_Z   2
loop_
 _symmetry_equiv_pos_site_id
 _symmetry_equiv_pos_as_xyz
  1  'x, y, z'
loop_
 _atom_site_type_symbol
 _atom_site_label
 _atom_site_symmetry_multiplicity
 _atom_site_fract_x
 _atom_site_fract_y
 _atom_site_fract_z
 _atom_site_occupancy
  V  V1  1  0.92556200  0.48896000  0.49847000  1
  V  V2  1  0.42647100  0.51334200  0.50227200  1
  V  V3  1  0.32614600  0.01150800  0.00271500  1
  V  V4  1  0.82517700  0.98994000  0.99893600  1
  H  H1  1  0.72276000  0.88585600  0.61385100  1
  H  H2  1  0.37579800  0.55317500  0.66612700  1
  H  H3  1  0.55881700  0.51406000  0.75832700  1
  H  H4  1  0.52364800  0.61570300  0.88006700  1
  H  H5  1  0.31424000  0.75455800  0.90969300  1
  H  H6  1  0.92020300  0.98227700  0.82290400  1
  H  H7  1  0.72833600  0.00724700  0.72951900  1
  H  H8  1  0.91760000  0.73905200  0.59260700  1
  H  H9  1  0.80589700  0.06309600  0.39429300  1
  H  H10  1  0.51603700  0.48020400  0.32877800  1
  H  H11  1  0.40694900  0.53774900  0.23299200  1
  H  H12  1  0.39991400  0.42750700  0.11306700  1
  H  H13  1  0.49715500  0.26141900  0.08885100  1
  H  H14  1  0.68609100  0.00187200  0.17750300  1
  H  H15  1  0.74691700  0.23376200  0.41228300  1
  H  H16  1  0.96050400  0.93939800  0.36364700  1
  H  H17  1  0.69606700  0.92884900  0.38105900  1
  H  H18  1  0.83552500  0.82363600  0.33454300  1
  H  H19  1  0.62955900  0.87938000  0.25379000  1
  H  H20  1  0.89258100  0.89037500  0.23673900  1
  C  C1  1  0.63821500  0.40261300  0.58108200  1
  C  C2  1  0.64259400  0.37484500  0.38610300  1
  C  C3  1  0.15099200  0.59905900  0.41951200  1
  C  C4  1  0.14612000  0.62843300  0.61441200  1
  C  C5  1  0.36581100  0.59947600  0.71942800  1
  C  C6  1  0.46760600  0.57725900  0.77101800  1
  C  C7  1  0.44812100  0.63434200  0.83912000  1
  C  C8  1  0.33063800  0.71460600  0.85549200  1
  C  C9  1  0.23357500  0.73955700  0.80336000  1
  C  C10  1  0.24869500  0.67983800  0.73561300  1
  C  C11  1  0.11631600  0.82086500  0.81755200  1
  C  C12  1  0.01498000  0.84020800  0.76362500  1
  C  C13  1  0.01948100  0.77531200  0.69758000  1
  C  C14  1  0.13799500  0.69651900  0.68384200  1
  C  C15  1  0.91300400  0.92509000  0.77427700  1
  C  C16  1  0.80745700  0.94092100  0.72071900  1
  C  C17  1  0.80490200  0.87320700  0.65586000  1
  C  C18  1  0.91328200  0.79090300  0.64410600  1
  C  C19  1  0.09891200  0.85610200  0.12875700  1
  C  C20  1  0.10455200  0.81292400  0.17096900  1
  C  C21  1  0.11481100  0.76713400  0.22335000  1
  C  C22  1  0.12494500  0.73018500  0.26913600  1
  C  C23  1  0.13680600  0.68723400  0.32307200  1
  C  C24  1  0.14516400  0.64893900  0.36815000  1
  C  C25  1  0.62742600  0.35312800  0.63285100  1
  C  C26  1  0.62542900  0.31493900  0.67820100  1
  C  C27  1  0.62719500  0.27222300  0.73257000  1
  C  C28  1  0.62851700  0.23599500  0.77898800  1
  C  C29  1  0.62611200  0.19206600  0.83271700  1
  C  C30  1  0.61667100  0.15181800  0.87684800  1
  C  C31  1  0.50854300  0.43129000  0.27625200  1
  C  C32  1  0.44804400  0.46365200  0.22259700  1
  C  C33  1  0.44383800  0.40181700  0.15545800  1
  C  C34  1  0.49710400  0.30738200  0.14208900  1
  C  C35  1  0.55268200  0.27393600  0.19617600  1
  C  C36  1  0.56156700  0.33685300  0.26300300  1
  C  C37  1  0.60632400  0.17937100  0.18437800  1
  C  C38  1  0.66574800  0.14885400  0.23935000  1
  C  C39  1  0.68053600  0.21299300  0.30531000  1
  C  C40  1  0.63062700  0.30679600  0.31669100  1
  C  C41  1  0.70204500  0.05309300  0.22892100  1
  C  C42  1  0.74814100  0.02192400  0.28482600  1
  C  C43  1  0.76859300  0.08703400  0.35046400  1
  C  C44  1  0.73596500  0.18280200  0.36057700  1
  C  C45  1  0.61003400  0.11066600  0.11453200  1
  C  C46  1  0.59169400  0.09868200  0.92599900  1
  C  C47  1  0.09091400  0.88573100  0.88850400  1
  C  C48  1  0.10378800  0.91249900  0.08152000  1
  C  C49  1  0.77051700  0.91784100  0.27446700  1
  C  C50  1  0.81885100  0.90156700  0.34307300  1
  O  O1  1  0.47639100  0.41253300  0.41345400  1
  O  O2  1  0.81376900  0.41396800  0.55683500  1
  O  O3  1  0.97883300  0.59300300  0.58551100  1
  O  O4  1  0.81574600  0.39025700  0.41611600  1
  O  O5  1  0.98215000  0.56714900  0.43643900  1
  O  O6  1  0.47331100  0.43162300  0.56172500  1
  O  O7  1  0.65421100  0.56117400  0.50940600  1
  O  O8  1  0.32301000  0.59110200  0.44625100  1
  O  O9  1  0.32097000  0.60958800  0.58634800  1
  O  O10  1  0.14973400  0.44115100  0.49145000  1
  O  O11  1  0.74017100  0.09972000  0.96946600  1
  O  O12  1  0.47250700  0.11900200  0.06940200  1
  O  O13  1  0.27856700  0.95611900  0.07901000  1
  O  O14  1  0.42053700  0.05168200  0.92263700  1
  O  O15  1  0.23245800  0.89074300  0.93462400  1
  O  O16  1  0.78175100  0.06479800  0.09748600  1
  O  O17  1  0.59817300  0.93686100  0.99099600  1
  O  O18  1  0.91767800  0.92846500  0.90231300  1
  O  O19  1  0.96333000  0.89410900  0.03211300  1
  O  O20  1  0.10278800  0.06480600  0.01273100  1
