# generated using pymatgen
data_ZnH11C20NO6
_symmetry_space_group_name_H-M   'P 1'
_cell_length_a   14.38781200
_cell_length_b   8.54709900
_cell_length_c   19.34270500
_cell_angle_alpha   90.00000000
_cell_angle_beta   91.01848500
_cell_angle_gamma   90.00000000
_symmetry_Int_Tables_number   1
_chemical_formula_structural   ZnH11C20NO6
_chemical_formula_sum   'Zn2 H22 C40 N2 O12'
_cell_volume   2378.27504364
_cell_formula_units_Z   2
loop_
 _symmetry_equiv_pos_site_id
 _symmetry_equiv_pos_as_xyz
  1  'x, y, z'
loop_
 _atom_site_type_symbol
 _atom_site_label
 _atom_site_symmetry_multiplicity
 _atom_site_fract_x
 _atom_site_fract_y
 _atom_site_fract_z
 _atom_site_occupancy
  Zn  Zn1  1  0.89709500  0.51061000  0.50767300  1
  Zn  Zn2  1  0.10290500  0.51061000  0.49232600  1
  H  H1  1  0.04466000  0.01062100  0.54723600  1
  H  H2  1  0.95534000  0.01062100  0.45276400  1
  H  H3  1  0.98871400  0.26095700  0.73036700  1
  H  H4  1  0.99686100  0.75841000  0.26818500  1
  H  H5  1  0.01128600  0.26095700  0.26963300  1
  H  H6  1  0.00313900  0.75841000  0.73181400  1
  H  H7  1  0.05899300  0.78293100  0.04617300  1
  H  H8  1  0.05624800  0.24173800  0.95439600  1
  H  H9  1  0.94100700  0.78293100  0.95382700  1
  H  H10  1  0.94375200  0.24173800  0.04560400  1
  H  H11  1  0.06591000  0.78453100  0.17130200  1
  H  H12  1  0.06019700  0.23967700  0.82967000  1
  H  H13  1  0.93409000  0.78453100  0.82869800  1
  H  H14  1  0.93980300  0.23967700  0.17032900  1
  H  H15  1  0.59707900  0.50025600  0.39693200  1
  H  H16  1  0.40292000  0.50025700  0.60306700  1
  H  H17  1  0.32493100  0.53063600  0.26093400  1
  H  H18  1  0.22077900  0.45129700  0.29875800  1
  H  H19  1  0.30053000  0.32321800  0.25459200  1
  H  H20  1  0.67506800  0.53063600  0.73906500  1
  H  H21  1  0.77922100  0.45129700  0.70124200  1
  H  H22  1  0.69947000  0.32321900  0.74540800  1
  C  C1  1  0.01902600  0.14977000  0.63561900  1
  C  C2  1  0.98021100  0.87132900  0.36425700  1
  C  C3  1  0.98097400  0.14977000  0.36438100  1
  C  C4  1  0.01978900  0.87132900  0.63574200  1
  C  C5  1  0.00179400  0.15032000  0.70549700  1
  C  C6  1  0.99373500  0.87015200  0.29385000  1
  C  C7  1  0.99820600  0.15032000  0.29450300  1
  C  C8  1  0.00626500  0.87015200  0.70614900  1
  C  C9  1  0.00113700  0.01057200  0.74230100  1
  C  C10  1  0.99886300  0.01057200  0.25769800  1
  C  C11  1  0.03218800  0.01060500  0.60195600  1
  C  C12  1  0.96781200  0.01060500  0.39804400  1
  C  C13  1  0.03330600  0.88356500  0.07376400  1
  C  C14  1  0.02909300  0.14150200  0.92660300  1
  C  C15  1  0.96669400  0.88356500  0.92623600  1
  C  C16  1  0.97090700  0.14150200  0.07339700  1
  C  C17  1  0.03627400  0.88459300  0.14511900  1
  C  C18  1  0.02993700  0.14050100  0.85538100  1
  C  C19  1  0.96372600  0.88459300  0.85488100  1
  C  C20  1  0.97006300  0.14050100  0.14461800  1
  C  C21  1  0.00333300  0.01240800  0.18144200  1
  C  C22  1  0.99666700  0.01240800  0.81855700  1
  C  C23  1  0.00108000  0.01225300  0.03776600  1
  C  C24  1  0.99892000  0.01225300  0.96223400  1
  C  C25  1  0.01355200  0.72924200  0.59404400  1
  C  C26  1  0.98671100  0.29183000  0.40606000  1
  C  C27  1  0.98644800  0.72924200  0.40595600  1
  C  C28  1  0.01328900  0.29183000  0.59393900  1
  C  C29  1  0.45882400  0.49343900  0.43471000  1
  C  C30  1  0.54117600  0.49343900  0.56529000  1
  C  C31  1  0.40424200  0.49624400  0.49283900  1
  C  C32  1  0.59575800  0.49624400  0.50716100  1
  C  C33  1  0.44572200  0.49769800  0.55771200  1
  C  C34  1  0.55427800  0.49769800  0.44228800  1
  C  C35  1  0.30469600  0.50508100  0.48742000  1
  C  C36  1  0.69530400  0.50508100  0.51257900  1
  C  C37  1  0.34682100  0.40131400  0.35409500  1
  C  C38  1  0.29495700  0.42834100  0.28786900  1
  C  C39  1  0.65317900  0.40131400  0.64590500  1
  C  C40  1  0.70504300  0.42834100  0.71213000  1
  N  N1  1  0.77564500  0.51045500  0.51516900  1
  N  N2  1  0.22435500  0.51045500  0.48483000  1
  O  O1  1  0.08907200  0.67999200  0.56394800  1
  O  O2  1  0.91106000  0.34101200  0.43613400  1
  O  O3  1  0.91092800  0.67999200  0.43605200  1
  O  O4  1  0.08894000  0.34101200  0.56386600  1
  O  O5  1  0.93033500  0.67414000  0.57915100  1
  O  O6  1  0.06970700  0.34731400  0.42078800  1
  O  O7  1  0.06966500  0.67414000  0.42084900  1
  O  O8  1  0.93029300  0.34731400  0.57921100  1
  O  O9  1  0.42057400  0.49203200  0.37068000  1
  O  O10  1  0.32680900  0.28999600  0.39034000  1
  O  O11  1  0.57942600  0.49203200  0.62932000  1
  O  O12  1  0.67319100  0.28999600  0.60966000  1
