# generated using pymatgen
data_Cu3H18C36(N3O8)2
_symmetry_space_group_name_H-M   'P 1'
_cell_length_a   30.11206400
_cell_length_b   30.11476900
_cell_length_c   24.40137400
_cell_angle_alpha   90.00000000
_cell_angle_beta   128.09134300
_cell_angle_gamma   90.00000000
_symmetry_Int_Tables_number   1
_chemical_formula_structural   Cu3H18C36(N3O8)2
_chemical_formula_sum   'Cu12 H72 C144 N24 O64'
_cell_volume   17415.04736195
_cell_formula_units_Z   4
loop_
 _symmetry_equiv_pos_site_id
 _symmetry_equiv_pos_as_xyz
  1  'x, y, z'
loop_
 _atom_site_type_symbol
 _atom_site_label
 _atom_site_symmetry_multiplicity
 _atom_site_fract_x
 _atom_site_fract_y
 _atom_site_fract_z
 _atom_site_occupancy
  Cu  Cu1  1  0.78127000  0.71915400  0.49948000  1
  Cu  Cu2  1  0.21873000  0.71915400  0.50052000  1
  Cu  Cu3  1  0.28127000  0.21915400  0.49948000  1
  Cu  Cu4  1  0.71873000  0.21915400  0.50052000  1
  Cu  Cu5  1  0.71914000  0.78176300  0.50024600  1
  Cu  Cu6  1  0.28086000  0.78176300  0.49975300  1
  Cu  Cu7  1  0.21914000  0.28176300  0.50024600  1
  Cu  Cu8  1  0.78086000  0.28176300  0.49975300  1
  Cu  Cu9  1  0.96603400  0.99960600  0.43209600  1
  Cu  Cu10  1  0.03396600  0.99960600  0.56790400  1
  Cu  Cu11  1  0.46603400  0.49960600  0.43209600  1
  Cu  Cu12  1  0.53396600  0.49960600  0.56790400  1
  H  H1  1  0.61180100  0.81565100  0.28151800  1
  H  H2  1  0.38819900  0.81565100  0.71848200  1
  H  H3  1  0.11180100  0.31565100  0.28151800  1
  H  H4  1  0.88819900  0.31565100  0.71848200  1
  H  H5  1  0.54902500  0.81615600  0.15499100  1
  H  H6  1  0.45097500  0.81615600  0.84500900  1
  H  H7  1  0.04902500  0.31615600  0.15499100  1
  H  H8  1  0.95097500  0.31615600  0.84500900  1
  H  H9  1  0.60578800  0.68610000  0.15441900  1
  H  H10  1  0.39421200  0.68610000  0.84558100  1
  H  H11  1  0.10578800  0.18610000  0.15441900  1
  H  H12  1  0.89421200  0.18610000  0.84558100  1
  H  H13  1  0.66977000  0.68624900  0.28083900  1
  H  H14  1  0.33023000  0.68624900  0.71916100  1
  H  H15  1  0.16977000  0.18624900  0.28083900  1
  H  H16  1  0.83023000  0.18624900  0.71916100  1
  H  H17  1  0.83823100  0.94840600  0.49251700  1
  H  H18  1  0.16176900  0.94840600  0.50748200  1
  H  H19  1  0.33823100  0.44840600  0.49251700  1
  H  H20  1  0.66176900  0.44840600  0.50748200  1
  H  H21  1  0.87605400  0.88553300  0.59915100  1
  H  H22  1  0.12394600  0.88553300  0.40084900  1
  H  H23  1  0.37605400  0.38553300  0.59915100  1
  H  H24  1  0.62394600  0.38553300  0.40084900  1
  H  H25  1  0.97237100  0.87090100  0.60699700  1
  H  H26  1  0.02762900  0.87090100  0.39300300  1
  H  H27  1  0.47237100  0.37090100  0.60699700  1
  H  H28  1  0.52762900  0.37090100  0.39300300  1
  H  H29  1  0.91406200  0.80245900  0.50810700  1
  H  H30  1  0.08593800  0.80245900  0.49189200  1
  H  H31  1  0.41406200  0.30245900  0.50810700  1
  H  H32  1  0.58593800  0.30245900  0.49189200  1
  H  H33  1  0.87585200  0.86510800  0.40151800  1
  H  H34  1  0.12414800  0.86510800  0.59848200  1
  H  H35  1  0.37585200  0.36510800  0.40151800  1
  H  H36  1  0.62414800  0.36510800  0.59848200  1
  H  H37  1  0.77937000  0.87942400  0.39380600  1
  H  H38  1  0.22062900  0.87942400  0.60619300  1
  H  H39  1  0.27937000  0.37942400  0.39380600  1
  H  H40  1  0.72062900  0.37942400  0.60619300  1
  H  H41  1  0.79340300  0.77546900  0.71894700  1
  H  H42  1  0.20659700  0.77546900  0.28105300  1
  H  H43  1  0.29340300  0.27546900  0.71894700  1
  H  H44  1  0.70659700  0.27546900  0.28105300  1
  H  H45  1  0.85626200  0.77445900  0.84526000  1
  H  H46  1  0.14373800  0.77445900  0.15474000  1
  H  H47  1  0.35626200  0.27445900  0.84526000  1
  H  H48  1  0.64373800  0.27445900  0.15474000  1
  H  H49  1  0.98879800  0.72378400  0.84488300  1
  H  H50  1  0.01120200  0.72378400  0.15511700  1
  H  H51  1  0.48879800  0.22378400  0.84488300  1
  H  H52  1  0.51120200  0.22378400  0.15511700  1
  H  H53  1  0.92540300  0.72374000  0.71851500  1
  H  H54  1  0.07459700  0.72374000  0.28148500  1
  H  H55  1  0.42540300  0.22374000  0.71851500  1
  H  H56  1  0.57459700  0.22374000  0.28148500  1
  H  H57  1  0.55739700  0.65811700  0.51195000  1
  H  H58  1  0.44260300  0.65811700  0.48805000  1
  H  H59  1  0.05739700  0.15811700  0.51195000  1
  H  H60  1  0.94260300  0.15811700  0.48805000  1
  H  H61  1  0.57082300  0.58409900  0.38879000  1
  H  H62  1  0.42917700  0.58409900  0.61121000  1
  H  H63  1  0.07082300  0.08409900  0.38879000  1
  H  H64  1  0.92917700  0.08409900  0.61121000  1
  H  H65  1  0.69088700  0.59053300  0.48596300  1
  H  H66  1  0.30911300  0.59053300  0.51403700  1
  H  H67  1  0.19088700  0.09053300  0.48596300  1
  H  H68  1  0.80911300  0.09053300  0.51403700  1
  H  H69  1  0.67790000  0.66503900  0.60908700  1
  H  H70  1  0.32210000  0.66503900  0.39091300  1
  H  H71  1  0.17790000  0.16503900  0.60908700  1
  H  H72  1  0.82210000  0.16503900  0.39091300  1
  C  C1  1  0.81097000  0.81039700  0.50036300  1
  C  C2  1  0.18903000  0.81039700  0.49963600  1
  C  C3  1  0.31097000  0.31039700  0.50036300  1
  C  C4  1  0.68903000  0.31039700  0.49963600  1
  C  C5  1  0.68345600  0.75080000  0.36609500  1
  C  C6  1  0.31654300  0.75080000  0.63390500  1
  C  C7  1  0.18345600  0.25080000  0.36609500  1
  C  C8  1  0.81654300  0.25080000  0.63390500  1
  C  C9  1  0.68906600  0.69047600  0.49860800  1
  C  C10  1  0.31093400  0.69047600  0.50139100  1
  C  C11  1  0.18906600  0.19047600  0.49860800  1
  C  C12  1  0.81093400  0.19047600  0.50139100  1
  C  C13  1  0.81689900  0.75004900  0.63364200  1
  C  C14  1  0.18310100  0.75004900  0.36635800  1
  C  C15  1  0.31689900  0.25004900  0.63364200  1
  C  C16  1  0.68310100  0.25004900  0.36635800  1
  C  C17  1  0.61070700  0.78705500  0.25395400  1
  C  C18  1  0.38929200  0.78705500  0.74604600  1
  C  C19  1  0.11070700  0.28705500  0.25395400  1
  C  C20  1  0.88929200  0.28705500  0.74604600  1
  C  C21  1  0.57542600  0.78747000  0.18217400  1
  C  C22  1  0.42457400  0.78747000  0.81782500  1
  C  C23  1  0.07542600  0.28747000  0.18217400  1
  C  C24  1  0.92457400  0.28747000  0.81782500  1
  C  C25  1  0.57295700  0.75114700  0.14579700  1
  C  C26  1  0.42704300  0.75114700  0.85420300  1
  C  C27  1  0.07295700  0.25114700  0.14579700  1
  C  C28  1  0.92704300  0.25114700  0.85420300  1
  C  C29  1  0.60675000  0.71472200  0.18183900  1
  C  C30  1  0.39325000  0.71472200  0.81816100  1
  C  C31  1  0.10675000  0.21472200  0.18183900  1
  C  C32  1  0.89325000  0.21472200  0.81816100  1
  C  C33  1  0.64340000  0.71493900  0.25358700  1
  C  C34  1  0.35660000  0.71493900  0.74641300  1
  C  C35  1  0.14340000  0.21493900  0.25358700  1
  C  C36  1  0.85660000  0.21493900  0.74641300  1
  C  C37  1  0.64520600  0.75095300  0.28993600  1
  C  C38  1  0.35479400  0.75095300  0.71006400  1
  C  C39  1  0.14520600  0.25095300  0.28993600  1
  C  C40  1  0.85479400  0.25095300  0.71006400  1
  C  C41  1  0.46521300  0.75119700  0.93042500  1
  C  C42  1  0.53478700  0.75119700  0.06957400  1
  C  C43  1  0.96521300  0.25119700  0.93042500  1
  C  C44  1  0.03478700  0.25119700  0.06957400  1
  C  C45  1  0.87645200  0.88136400  0.55430700  1
  C  C46  1  0.12354800  0.88136400  0.44569300  1
  C  C47  1  0.37645200  0.38136400  0.55430700  1
  C  C48  1  0.62354800  0.38136400  0.44569300  1
  C  C49  1  0.85482500  0.91477300  0.49605100  1
  C  C50  1  0.14517500  0.91477300  0.50394900  1
  C  C51  1  0.35482500  0.41477300  0.49605100  1
  C  C52  1  0.64517500  0.41477300  0.50394900  1
  C  C53  1  0.90601400  0.90541000  0.50027900  1
  C  C54  1  0.09398600  0.90541000  0.49972100  1
  C  C55  1  0.40601400  0.40541000  0.50027900  1
  C  C56  1  0.59398600  0.40541000  0.49972100  1
  C  C57  1  0.92820700  0.87261000  0.55851700  1
  C  C58  1  0.07179300  0.87261000  0.44148300  1
  C  C59  1  0.42820700  0.37261000  0.55851700  1
  C  C60  1  0.57179300  0.37261000  0.44148300  1
  C  C61  1  0.89702600  0.83589600  0.50453500  1
  C  C62  1  0.10297400  0.83589600  0.49546400  1
  C  C63  1  0.39702600  0.33589600  0.50453500  1
  C  C64  1  0.60297400  0.33589600  0.49546400  1
  C  C65  1  0.87542300  0.86928300  0.44633700  1
  C  C66  1  0.12457700  0.86928300  0.55366300  1
  C  C67  1  0.37542300  0.36928300  0.44633700  1
  C  C68  1  0.62457700  0.36928300  0.55366300  1
  C  C69  1  0.82363800  0.87805300  0.44212400  1
  C  C70  1  0.17636200  0.87805300  0.55787600  1
  C  C71  1  0.32363800  0.37805300  0.44212400  1
  C  C72  1  0.67636200  0.37805300  0.55787600  1
  C  C73  1  0.84584900  0.84523400  0.50035400  1
  C  C74  1  0.15415100  0.84523400  0.49964600  1
  C  C75  1  0.34584900  0.34523400  0.50035400  1
  C  C76  1  0.65415100  0.34523400  0.49964600  1
  C  C77  1  0.83628300  0.76407900  0.74619200  1
  C  C78  1  0.16371700  0.76407900  0.25380800  1
  C  C79  1  0.33628300  0.26407900  0.74619200  1
  C  C80  1  0.66371700  0.26407900  0.25380800  1
  C  C81  1  0.87188800  0.76317800  0.81795800  1
  C  C82  1  0.12811200  0.76317800  0.18204200  1
  C  C83  1  0.37188800  0.26317800  0.81795800  1
  C  C84  1  0.62811200  0.26317800  0.18204200  1
  C  C85  1  0.92704700  0.74908800  0.85411000  1
  C  C86  1  0.07295300  0.74908800  0.14588900  1
  C  C87  1  0.42704700  0.24908800  0.85411000  1
  C  C88  1  0.57295300  0.24908800  0.14588900  1
  C  C89  1  0.94596100  0.73524000  0.81774200  1
  C  C90  1  0.05403900  0.73524000  0.18225700  1
  C  C91  1  0.44596100  0.23524000  0.81774200  1
  C  C92  1  0.55403900  0.23524000  0.18225700  1
  C  C93  1  0.90984600  0.73489800  0.74595400  1
  C  C94  1  0.09015400  0.73489800  0.25404600  1
  C  C95  1  0.40984600  0.23489800  0.74595400  1
  C  C96  1  0.59015400  0.23489800  0.25404600  1
  C  C97  1  0.85497900  0.74965500  0.70986000  1
  C  C98  1  0.14502100  0.74965500  0.29014000  1
  C  C99  1  0.35497900  0.24965500  0.70986000  1
  C  C100  1  0.64502100  0.24965500  0.29014000  1
  C  C101  1  0.03480600  0.74893400  0.06960600  1
  C  C102  1  0.96519300  0.74893400  0.93039400  1
  C  C103  1  0.53480600  0.24893400  0.06960600  1
  C  C104  1  0.46519300  0.24893400  0.93039400  1
  C  C105  1  0.59123100  0.65077600  0.44837200  1
  C  C106  1  0.40876900  0.65077600  0.55162800  1
  C  C107  1  0.09123100  0.15077600  0.44837200  1
  C  C108  1  0.90876900  0.15077600  0.55162800  1
  C  C109  1  0.58838600  0.64281200  0.50721000  1
  C  C110  1  0.41161400  0.64281200  0.49279000  1
  C  C111  1  0.08838600  0.14281200  0.50721000  1
  C  C112  1  0.91161400  0.14281200  0.49279000  1
  C  C113  1  0.59436100  0.59355300  0.49973800  1
  C  C114  1  0.40563900  0.59355300  0.50026200  1
  C  C115  1  0.09436100  0.09355300  0.49973800  1
  C  C116  1  0.90563900  0.09355300  0.50026200  1
  C  C117  1  0.59566600  0.60184100  0.43937600  1
  C  C118  1  0.40433400  0.60184100  0.56062400  1
  C  C119  1  0.09566600  0.10184100  0.43937600  1
  C  C120  1  0.90433400  0.10184100  0.56062400  1
  C  C121  1  0.66010400  0.60621600  0.49074800  1
  C  C122  1  0.33989600  0.60621600  0.50925200  1
  C  C123  1  0.16010400  0.10621600  0.49074800  1
  C  C124  1  0.83989600  0.10621600  0.50925200  1
  C  C125  1  0.65730300  0.59816100  0.54953200  1
  C  C126  1  0.34269700  0.59816100  0.45046800  1
  C  C127  1  0.15730300  0.09816100  0.54953200  1
  C  C128  1  0.84269700  0.09816100  0.45046800  1
  C  C129  1  0.65284500  0.64710400  0.55866400  1
  C  C130  1  0.34715500  0.64710400  0.44133600  1
  C  C131  1  0.15284500  0.14710400  0.55866400  1
  C  C132  1  0.84715500  0.14710400  0.44133600  1
  C  C133  1  0.65415500  0.65544000  0.49830500  1
  C  C134  1  0.34584500  0.65544000  0.50169500  1
  C  C135  1  0.15415500  0.15544000  0.49830500  1
  C  C136  1  0.84584500  0.15544000  0.50169500  1
  C  C137  1  0.44039900  0.55866800  0.49996000  1
  C  C138  1  0.55960100  0.55866800  0.50004000  1
  C  C139  1  0.94039900  0.05866800  0.49996000  1
  C  C140  1  0.05960100  0.05866800  0.50004000  1
  C  C141  1  0.94080600  0.94023800  0.50013200  1
  C  C142  1  0.05919400  0.94023800  0.49986700  1
  C  C143  1  0.44080600  0.44023800  0.50013200  1
  C  C144  1  0.55919400  0.44023800  0.49986700  1
  N  N1  1  0.51734300  0.71257100  0.03440600  1
  N  N2  1  0.48265700  0.71257100  0.96559400  1
  N  N3  1  0.01734300  0.21257100  0.03440600  1
  N  N4  1  0.98265700  0.21257100  0.96559400  1
  N  N5  1  0.48293100  0.78983200  0.96558700  1
  N  N6  1  0.51706900  0.78983200  0.03441300  1
  N  N7  1  0.98293100  0.28983200  0.96558700  1
  N  N8  1  0.01706900  0.28983200  0.03441300  1
  N  N9  1  0.02141100  0.74880100  0.96557200  1
  N  N10  1  0.97858900  0.74880100  0.03442800  1
  N  N11  1  0.52141100  0.24880100  0.96557200  1
  N  N12  1  0.47858900  0.24880100  0.03442800  1
  N  N13  1  0.05582600  0.74904400  0.03439700  1
  N  N14  1  0.94417400  0.74904400  0.96560300  1
  N  N15  1  0.55582600  0.24904400  0.03439700  1
  N  N16  1  0.44417400  0.24904400  0.96560300  1
  N  N17  1  0.55248900  0.67988600  0.38993900  1
  N  N18  1  0.44751100  0.67988600  0.61006100  1
  N  N19  1  0.05248900  0.17988600  0.38993900  1
  N  N20  1  0.94751100  0.17988600  0.61006100  1
  N  N21  1  0.69628900  0.56868700  0.60726000  1
  N  N22  1  0.30371100  0.56868700  0.39274000  1
  N  N23  1  0.19628900  0.06868700  0.60726000  1
  N  N24  1  0.80371100  0.06868700  0.39274000  1
  O  O1  1  0.82154600  0.76876900  0.49661400  1
  O  O2  1  0.17845400  0.76876900  0.50338600  1
  O  O3  1  0.32154600  0.26876900  0.49661400  1
  O  O4  1  0.67845400  0.26876900  0.50338600  1
  O  O5  1  0.77113600  0.82286300  0.50400500  1
  O  O6  1  0.22886400  0.82286300  0.49599500  1
  O  O7  1  0.27113600  0.32286300  0.50400500  1
  O  O8  1  0.72886400  0.32286300  0.49599500  1
  O  O9  1  0.72767900  0.72464300  0.39827600  1
  O  O10  1  0.27232100  0.72464300  0.60172400  1
  O  O11  1  0.22767900  0.22464300  0.39827600  1
  O  O12  1  0.77232100  0.22464300  0.60172400  1
  O  O13  1  0.67189400  0.77676200  0.39898900  1
  O  O14  1  0.32810600  0.77676200  0.60101100  1
  O  O15  1  0.17189400  0.27676200  0.39898900  1
  O  O16  1  0.82810600  0.27676200  0.60101100  1
  O  O17  1  0.72974700  0.67800400  0.49660900  1
  O  O18  1  0.27025300  0.67800400  0.50339100  1
  O  O19  1  0.22974700  0.17800400  0.49660900  1
  O  O20  1  0.77025300  0.17800400  0.50339100  1
  O  O21  1  0.67833000  0.73212700  0.50206900  1
  O  O22  1  0.32166900  0.73212700  0.49793000  1
  O  O23  1  0.17833000  0.23212700  0.50206900  1
  O  O24  1  0.82166900  0.23212700  0.49793000  1
  O  O25  1  0.82898800  0.72471800  0.60070700  1
  O  O26  1  0.17101200  0.72471800  0.39929300  1
  O  O27  1  0.32898800  0.22471800  0.60070700  1
  O  O28  1  0.67101200  0.22471800  0.39929300  1
  O  O29  1  0.77221100  0.77569200  0.60140900  1
  O  O30  1  0.22778900  0.77569200  0.39859100  1
  O  O31  1  0.27221100  0.27569200  0.60140900  1
  O  O32  1  0.72778900  0.27569200  0.39859100  1
  O  O33  1  0.43578100  0.55337200  0.44286800  1
  O  O34  1  0.56421900  0.55337200  0.55713200  1
  O  O35  1  0.93578100  0.05337200  0.44286800  1
  O  O36  1  0.06421900  0.05337200  0.55713200  1
  O  O37  1  0.47497600  0.53521200  0.55737300  1
  O  O38  1  0.52502400  0.53521200  0.44262700  1
  O  O39  1  0.97497600  0.03521200  0.55737300  1
  O  O40  1  0.02502400  0.03521200  0.44262700  1
  O  O41  1  0.91767700  0.96392200  0.44285800  1
  O  O42  1  0.08232300  0.96392200  0.55714200  1
  O  O43  1  0.41767700  0.46392200  0.44285800  1
  O  O44  1  0.58232300  0.46392200  0.55714200  1
  O  O45  1  0.99310800  0.94583600  0.55735400  1
  O  O46  1  0.00689200  0.94583600  0.44264600  1
  O  O47  1  0.49310800  0.44583600  0.55735400  1
  O  O48  1  0.50689200  0.44583600  0.44264600  1
  O  O49  1  0.49850800  0.67270500  0.35210900  1
  O  O50  1  0.57136400  0.71069000  0.37181300  1
  O  O51  1  0.50149200  0.67270500  0.64789100  1
  O  O52  1  0.42863600  0.71069000  0.62818600  1
  O  O53  1  0.99850800  0.17270500  0.35210900  1
  O  O54  1  0.07136400  0.21069000  0.37181300  1
  O  O55  1  0.00149200  0.17270500  0.64789100  1
  O  O56  1  0.92863600  0.21069000  0.62818600  1
  O  O57  1  0.74994700  0.57762700  0.64764900  1
  O  O58  1  0.67869500  0.53175600  0.61547600  1
  O  O59  1  0.25005200  0.57762700  0.35235100  1
  O  O60  1  0.32130500  0.53175600  0.38452400  1
  O  O61  1  0.24994700  0.07762700  0.64764900  1
  O  O62  1  0.17869500  0.03175600  0.61547600  1
  O  O63  1  0.75005200  0.07762700  0.35235100  1
  O  O64  1  0.82130500  0.03175600  0.38452400  1
