data_DB0-m3_o115_o21_f0_fsc.sym.6_repeat
_audit_creation_date              2024-02-23
_audit_creation_method            'Materials Studio'
_symmetry_space_group_name_H-M    'P1'
_symmetry_Int_Tables_number       1
_symmetry_cell_setting            triclinic
loop_
_symmetry_equiv_pos_as_xyz
  x,y,z
_cell_length_a                    12.3403
_cell_length_b                    16.5310
_cell_length_c                    16.7267
_cell_angle_alpha                 90.0456
_cell_angle_beta                  81.2519
_cell_angle_gamma                 94.4631
loop_
_atom_site_label
_atom_site_type_symbol
_atom_site_fract_x
_atom_site_fract_y
_atom_site_fract_z
_atom_site_U_iso_or_equiv
_atom_site_adp_type
_atom_site_occupancy
H1     H     0.07458   0.08493   0.27849   0.00000  Uiso   1.00
H2     H     0.92542   0.91507   0.72151   0.00000  Uiso   1.00
C1     C     0.00581   0.74358   0.04000   0.00000  Uiso   1.00
C2     C     0.99419   0.25642   0.96000   0.00000  Uiso   1.00
C3     C     0.00854   0.74396   0.95761   0.00000  Uiso   1.00
C4     C     0.99146   0.25604   0.04239   0.00000  Uiso   1.00
C5     C     0.00740   0.82412   0.93455   0.00000  Uiso   1.00
C6     C     0.99260   0.17588   0.06545   0.00000  Uiso   1.00
N1     N     0.00545   0.87271   0.99939   0.00000  Uiso   1.00
N2     N     0.99455   0.12729   0.00061   0.00000  Uiso   1.00
C7     C     0.00476   0.82364   0.06381   0.00000  Uiso   1.00
C8     C     0.99524   0.17637   0.93619   0.00000  Uiso   1.00
C9     C     0.00460   0.84915   0.85878   0.00000  Uiso   1.00
C10    C     0.99540   0.15085   0.14122   0.00000  Uiso   1.00
C11    C     0.99237   0.93404   0.83621   0.00000  Uiso   1.00
C12    C     0.00763   0.06596   0.16379   0.00000  Uiso   1.00
C13    C     0.95215   0.95506   0.76706   0.00000  Uiso   1.00
C14    C     0.04785   0.04494   0.23294   0.00000  Uiso   1.00
C15    C     0.94938   0.03804   0.76746   0.00000  Uiso   1.00
C16    C     0.05062   0.96196   0.23254   0.00000  Uiso   1.00
C17    C     0.98804   0.06497   0.83680   0.00000  Uiso   1.00
C18    C     0.01196   0.93503   0.16321   0.00000  Uiso   1.00
N3     N     0.01591   0.00145   0.87798   0.00000  Uiso   1.00
N4     N     0.98409   0.99855   0.12202   0.00000  Uiso   1.00
C19    C     0.99482   0.15127   0.86004   0.00000  Uiso   1.00
C20    C     0.00518   0.84873   0.13996   0.00000  Uiso   1.00
H3     H     0.00514   0.68991   0.07699   0.00000  Uiso   1.00
H4     H     0.99486   0.31009   0.92302   0.00000  Uiso   1.00
H5     H     0.00982   0.69058   0.92021   0.00000  Uiso   1.00
H6     H     0.99018   0.30942   0.07980   0.00000  Uiso   1.00
H7     H     0.92007   0.07393   0.72239   0.00000  Uiso   1.00
H8     H     0.07993   0.92607   0.27761   0.00000  Uiso   1.00
H9     H     0.05426   0.00436   0.92921   0.00000  Uiso   1.00
H10    H     0.94574   0.99564   0.07079   0.00000  Uiso   1.00
C21    C     0.09653   0.25450   0.21359   0.00000  Uiso   1.00
C22    C     0.90348   0.74550   0.78641   0.00000  Uiso   1.00
H11    H     0.17108   0.24277   0.17379   0.00000  Uiso   1.00
H12    H     0.82892   0.75723   0.82621   0.00000  Uiso   1.00
C23    C     0.09995   0.31220   0.27296   0.00000  Uiso   1.00
C24    C     0.90005   0.68780   0.72705   0.00000  Uiso   1.00
C25    C     0.00421   0.32803   0.32392   0.00000  Uiso   1.00
C26    C     0.99579   0.67197   0.67608   0.00000  Uiso   1.00
C27    C     0.90629   0.28495   0.31425   0.00000  Uiso   1.00
C28    C     0.09371   0.71506   0.68575   0.00000  Uiso   1.00
H13    H     0.83053   0.29544   0.35313   0.00000  Uiso   1.00
H14    H     0.16947   0.70456   0.64687   0.00000  Uiso   1.00
C29    C     0.90378   0.22694   0.25519   0.00000  Uiso   1.00
C30    C     0.09623   0.77307   0.74481   0.00000  Uiso   1.00
H15    H     0.82696   0.19351   0.24833   0.00000  Uiso   1.00
H16    H     0.17304   0.80649   0.75167   0.00000  Uiso   1.00
C31    C     0.99865   0.21197   0.20446   0.00000  Uiso   1.00
C32    C     0.00135   0.78803   0.79554   0.00000  Uiso   1.00
C33    C     0.10410   0.75328   0.21054   0.00000  Uiso   1.00
C34    C     0.89590   0.24672   0.78946   0.00000  Uiso   1.00
H17    H     0.17801   0.77032   0.16863   0.00000  Uiso   1.00
H18    H     0.82199   0.22968   0.83137   0.00000  Uiso   1.00
C35    C     0.10642   0.69619   0.27032   0.00000  Uiso   1.00
C36    C     0.89358   0.30381   0.72968   0.00000  Uiso   1.00
C37    C     0.01147   0.67347   0.32400   0.00000  Uiso   1.00
C38    C     0.98853   0.32653   0.67600   0.00000  Uiso   1.00
C39    C     0.91568   0.70952   0.31689   0.00000  Uiso   1.00
C40    C     0.08432   0.29048   0.68311   0.00000  Uiso   1.00
H19    H     0.84060   0.69378   0.35796   0.00000  Uiso   1.00
H20    H     0.15940   0.30622   0.64204   0.00000  Uiso   1.00
C41    C     0.91429   0.76692   0.25745   0.00000  Uiso   1.00
C42    C     0.08571   0.23308   0.74256   0.00000  Uiso   1.00
H21    H     0.83901   0.79462   0.25258   0.00000  Uiso   1.00
H22    H     0.16099   0.20539   0.74742   0.00000  Uiso   1.00
C43    C     0.00800   0.78825   0.20356   0.00000  Uiso   1.00
C44    C     0.99200   0.21175   0.79644   0.00000  Uiso   1.00
O1     O     0.90875   0.41338   0.42144   0.00000  Uiso   1.00
O2     O     0.09125   0.58662   0.57856   0.00000  Uiso   1.00
O3     O     0.09752   0.41916   0.40782   0.00000  Uiso   1.00
O4     O     0.90248   0.58084   0.59218   0.00000  Uiso   1.00
C45    C     0.00386   0.38987   0.38731   0.00000  Uiso   1.00
C46    C     0.99613   0.61013   0.61269   0.00000  Uiso   1.00
O5     O     0.10188   0.58749   0.40497   0.00000  Uiso   1.00
O6     O     0.89812   0.41251   0.59503   0.00000  Uiso   1.00
O7     O     0.91279   0.58169   0.42437   0.00000  Uiso   1.00
O8     O     0.08721   0.41831   0.57563   0.00000  Uiso   1.00
C47    C     0.00912   0.61130   0.38742   0.00000  Uiso   1.00
C48    C     0.99088   0.38870   0.61258   0.00000  Uiso   1.00
Zn1    Zn    0.12229   0.50560   0.48955   0.00000  Uiso   1.00
Zn2    Zn    0.87771   0.49440   0.51045   0.00000  Uiso   1.00
N5     N     0.73348   0.48845   0.52182   0.00000  Uiso   1.00
N6     N     0.26652   0.51155   0.47818   0.00000  Uiso   1.00
C49    C     0.52147   0.48417   0.53001   0.00000  Uiso   1.00
C50    C     0.47853   0.51583   0.46999   0.00000  Uiso   1.00
C51    C     0.36112   0.51367   0.47413   0.00000  Uiso   1.00
C52    C     0.63888   0.48633   0.52587   0.00000  Uiso   1.00
H23    H     0.53198   0.54321   0.41803   0.00000  Uiso   1.00
H24    H     0.46802   0.45679   0.58197   0.00000  Uiso   1.00
O9     O     0.20250   0.66147   0.27403   0.00000  Uiso   1.00
H25    H     0.20345   0.61723   0.23404   0.00000  Uiso   1.00
O10    O     0.79750   0.33854   0.72597   0.00000  Uiso   1.00
H26    H     0.79655   0.38277   0.76596   0.00000  Uiso   1.00
O11    O     0.19811   0.35430   0.27893   0.00000  Uiso   1.00
H27    H     0.20442   0.39863   0.23831   0.00000  Uiso   1.00
O12    O     0.80189   0.64570   0.72107   0.00000  Uiso   1.00
H28    H     0.79558   0.60137   0.76169   0.00000  Uiso   1.00
