# generated using pymatgen
data_ZnH13C19NO6
_symmetry_space_group_name_H-M   'P 1'
_cell_length_a   13.35101400
_cell_length_b   8.62273600
_cell_length_c   10.75855100
_cell_angle_alpha   90.00000000
_cell_angle_beta   97.80136500
_cell_angle_gamma   90.00000000
_symmetry_Int_Tables_number   1
_chemical_formula_structural   ZnH13C19NO6
_chemical_formula_sum   'Zn2 H26 C38 N2 O12'
_cell_volume   1227.08554686
_cell_formula_units_Z   2
loop_
 _symmetry_equiv_pos_site_id
 _symmetry_equiv_pos_as_xyz
  1  'x, y, z'
loop_
 _atom_site_type_symbol
 _atom_site_label
 _atom_site_symmetry_multiplicity
 _atom_site_fract_x
 _atom_site_fract_y
 _atom_site_fract_z
 _atom_site_occupancy
  Zn  Zn1  1  0.11155900  0.50013200  0.49876100  1
  Zn  Zn2  1  0.88844100  0.49655400  0.50123900  1
  H  H1  1  0.06226800  0.35238700  0.13199300  1
  H  H2  1  0.93774100  0.64429200  0.86800800  1
  H  H3  1  0.98182600  0.37290900  0.88810000  1
  H  H4  1  0.01817200  0.62377600  0.11190100  1
  H  H5  1  0.05066000  0.00277000  0.58845800  1
  H  H6  1  0.94933900  0.99391500  0.41154100  1
  H  H7  1  0.74564400  0.73546800  0.46997200  1
  H  H8  1  0.25435500  0.26121800  0.53002700  1
  H  H9  1  0.24960100  0.74184300  0.46218100  1
  H  H10  1  0.75039800  0.25484300  0.53781800  1
  H  H11  1  0.59602700  0.11928100  0.56164400  1
  H  H12  1  0.40397300  0.87740400  0.43835500  1
  H  H13  1  0.41191400  0.12167300  0.55816600  1
  H  H14  1  0.58808600  0.87501300  0.44183400  1
  H  H15  1  0.21195800  0.14668700  0.90045500  1
  H  H16  1  0.17004500  0.14276300  0.05531000  1
  H  H17  1  0.27144700  0.26511300  0.02567600  1
  H  H18  1  0.82995700  0.85392300  0.94468100  1
  H  H19  1  0.78804100  0.85000200  0.09953500  1
  H  H20  1  0.72855300  0.73157500  0.97431400  1
  H  H21  1  0.80374800  0.20993200  0.10718900  1
  H  H22  1  0.84814600  0.19566400  0.95447100  1
  H  H23  1  0.76627900  0.34925400  0.98651700  1
  H  H24  1  0.15185500  0.80103300  0.04553800  1
  H  H25  1  0.19625500  0.78677100  0.89282100  1
  H  H26  1  0.23372800  0.64745200  0.01349400  1
  C  C1  1  0.03858300  0.00153900  0.68529900  1
  C  C2  1  0.96141600  0.99514700  0.31470000  1
  C  C3  1  0.03080800  0.13944000  0.74734400  1
  C  C4  1  0.96919100  0.85724600  0.25265600  1
  C  C5  1  0.97466900  0.13405400  0.25651200  1
  C  C6  1  0.02533100  0.86263100  0.74348900  1
  C  C7  1  0.01912700  0.13819200  0.87310900  1
  C  C8  1  0.98087200  0.85849300  0.12689100  1
  C  C9  1  0.99248700  0.13502900  0.13287500  1
  C  C10  1  0.00751500  0.86165600  0.86712500  1
  C  C11  1  0.03200200  0.28731200  0.94209900  1
  C  C12  1  0.96799800  0.70937400  0.05790100  1
  C  C13  1  0.00140900  0.28826900  0.07311800  1
  C  C14  1  0.99859500  0.70841600  0.92688500  1
  C  C15  1  0.00653000  0.99917300  0.93354800  1
  C  C16  1  0.99347000  0.99751200  0.06645200  1
  C  C17  1  0.70571200  0.62935100  0.48414500  1
  C  C18  1  0.29428800  0.36733500  0.51585500  1
  C  C19  1  0.29154700  0.63477200  0.47710600  1
  C  C20  1  0.70845200  0.36191300  0.52289400  1
  C  C21  1  0.60498000  0.36170700  0.52261700  1
  C  C22  1  0.39502000  0.63497900  0.47738200  1
  C  C23  1  0.39785100  0.36437000  0.51855600  1
  C  C24  1  0.60214800  0.63231600  0.48144300  1
  C  C25  1  0.55164900  0.49766600  0.50101900  1
  C  C26  1  0.44835000  0.49902000  0.49898000  1
  C  C27  1  0.55463000  0.22636200  0.54337000  1
  C  C28  1  0.44537000  0.77032400  0.45662900  1
  C  C29  1  0.45103000  0.22770500  0.54131800  1
  C  C30  1  0.54896900  0.76898100  0.45868200  1
  C  C31  1  0.02221900  0.28301700  0.67289100  1
  C  C32  1  0.97778100  0.71366900  0.32710900  1
  C  C33  1  0.98133500  0.27662100  0.33238800  1
  C  C34  1  0.01866500  0.72006400  0.66761200  1
  C  C35  1  0.19786300  0.21631600  0.98309900  1
  C  C36  1  0.80213700  0.78037200  0.01689200  1
  C  C37  1  0.82989800  0.27531300  0.02878300  1
  C  C38  1  0.17010600  0.72138700  0.97122700  1
  N  N1  1  0.75710400  0.49491600  0.50346300  1
  N  N2  1  0.24289600  0.50177000  0.49653700  1
  O  O1  1  0.93069000  0.33206700  0.63082700  1
  O  O2  1  0.06931000  0.66461900  0.36917300  1
  O  O3  1  0.07191700  0.32997500  0.37338400  1
  O  O4  1  0.92808300  0.66666667  0.62661600  1
  O  O5  1  0.10355800  0.33967200  0.63344500  1
  O  O6  1  0.89644200  0.65701400  0.36655500  1
  O  O7  1  0.89887800  0.33164100  0.37063400  1
  O  O8  1  0.10112200  0.66504500  0.62936600  1
  O  O9  1  0.13202300  0.33956800  0.94627900  1
  O  O10  1  0.86797600  0.65711900  0.05371500  1
  O  O11  1  0.91147900  0.37164500  0.07355400  1
  O  O12  1  0.08852900  0.62504700  0.92645500  1
