# Generated by REPEAT Assigner based on pymatgen
data_DB0-m29_o83_o147_f0_pts.sym.105
_audit_creation_date              2022-05-24
_audit_creation_method            REPEAT_Assigner
_cell_length_a                    16.251001
_cell_length_b                    9.268749
_cell_length_c                    15.265647
_cell_angle_alpha                 87.651492
_cell_angle_beta                  86.457133
_cell_angle_gamma                 105.603645
_cell_volume                      2206.462503
_symmetry_space_group_name_H-M    P1
_symmetry_Int_Tables_number       1
loop_
    _symmetry_equiv_pos_site_id
    _symmetry_equiv_pos_as_xyz
    1  x,y,z
loop_
    _atom_site_type_symbol
    _atom_site_label
    _atom_site_fract_x
    _atom_site_fract_y
    _atom_site_fract_z
    _atom_type_partial_charge
    C   C1   0.274190  0.031143  0.062330  0.126122
    C   C2   0.260381  0.991363  0.976503  -0.102281
    C   C3   0.179282  0.973936  0.947100  -0.127244
    C   C4   0.208821  0.058259  0.114561  -0.330207
    C   C5   0.128720  0.040724  0.084795  0.307089
    C   C6   0.111392  0.994477  0.001578  -0.028829
    C   C7   0.027781  0.974679  0.974563  0.141038
    C   C8   0.004772  0.913108  0.895347  -0.258537
    C   C9   0.924062  0.895249  0.867768  -0.102271
    C   C10  0.066423  0.071467  0.139458  -0.234551
    C   C11  0.986339  0.059624  0.112229  -0.162482
    C   C12  0.965042  0.011470  0.029222  0.040964
    C   C13  0.882639  0.998129  0.000013  0.065954
    C   C14  0.863662  0.943090  0.918277  0.170279
    C   C15  0.784732  0.938396  0.886996  -0.330537
    C   C16  0.817897  0.036972  0.050751  -0.160850
    C   C17  0.737249  0.022795  0.021539  -0.062371
    C   C18  0.722038  0.977537  0.937196  0.156813
    H   H1   0.172377  0.950395  0.879373  0.137826
    H   H2   0.220981  0.093621  0.180247  0.161277
    H   H3   0.046490  0.866945  0.854876  0.180637
    H   H4   0.080390  0.107917  0.204593  0.156199
    H   H5   0.942897  0.087502  0.160102  0.158723
    H   H6   0.769838  0.907162  0.821434  0.192839
    H   H7   0.827062  0.077662  0.114961  0.129466
    O   O1   0.590806  0.028156  0.060090  -0.563073
    C   C19  0.668441  0.042185  0.084462  0.664443
    O   O2   0.560245  0.749872  0.159625  -0.526546
    O   O3   0.681601  0.053744  0.168180  -0.553260
    O   O4   0.493717  0.860187  0.260827  -0.600599
    C   C20  0.529109  0.752899  0.240656  0.669525
    Fe  Fe1  0.505535  0.009528  0.161119  1.489225
    O   O5   0.389419  0.942190  0.114491  -0.631874
    O   O6   0.397872  0.190644  0.120316  -0.495942
    C   C21  0.357376  0.055777  0.099039  0.680138
    O   O7   0.544344  0.213160  0.209126  -0.624289
    O   O8   0.431313  0.105222  0.306533  -0.524227
    C   C22  0.496652  0.220215  0.280803  0.670833
    O   O9   0.453405  0.812034  0.786967  -0.630242
    O   O10  0.569282  0.917498  0.692568  -0.528039
    C   C23  0.502553  0.803951  0.716593  0.680243
    O   O11  0.610102  0.075974  0.884145  -0.606982
    O   O12  0.596539  0.825844  0.878413  -0.451765
    C   C24  0.639504  0.959209  0.899723  0.603781
    O   O13  0.317866  0.969140  0.829081  -0.563928
    O   O14  0.508232  0.166127  0.737856  -0.589263
    C   C25  0.470998  0.271532  0.757133  0.663584
    O   O15  0.408561  0.996023  0.937398  -0.575117
    C   C26  0.330832  0.980671  0.912837  0.694254
    O   O16  0.437524  0.272718  0.837409  -0.521972
    Fe  Fe2  0.494117  0.014120  0.836584  1.483992
    C   C27  0.472596  0.532296  0.727115  -0.109110
    C   C28  0.490359  0.661216  0.673645  -0.019079
    C   C29  0.502721  0.653919  0.583072  -0.024850
    C   C30  0.533845  0.795648  0.526835  -0.067324
    C   C31  0.512982  0.780673  0.432407  0.049139
    C   C32  0.474840  0.397799  0.693355  -0.103401
    C   C33  0.483778  0.388390  0.602287  0.000898
    C   C34  0.495250  0.516310  0.546894  0.025807
    C   C35  0.505969  0.508166  0.450836  0.006495
    C   C36  0.517329  0.636154  0.395477  0.032347
    C   C37  0.525434  0.626606  0.304367  -0.126264
    C   C38  0.489095  0.244324  0.565449  0.087317
    C   C39  0.468043  0.228693  0.471066  -0.086324
    C   C40  0.497976  0.370406  0.414612  -0.011293
    C   C41  0.509127  0.362905  0.323906  -0.029643
    C   C42  0.526652  0.491782  0.270460  -0.109718
    H   H8   0.503446  0.881552  0.550911  0.034949
    H   H9   0.447813  0.794488  0.426416  0.074364
    H   H10  0.441398  0.149243  0.601934  0.038547
    H   H11  0.397610  0.185216  0.469193  0.081118
    H   H12  0.604335  0.837387  0.528946  0.077721
    H   H13  0.561319  0.875057  0.396065  0.049859
    H   H14  0.554605  0.232061  0.571311  0.064574
    H   H15  0.499288  0.143971  0.446825  0.042051
    H   H16  0.466564  0.541083  0.797413  0.193859
    H   H17  0.531928  0.482849  0.200146  0.201181
    C   C43  0.904648  0.817894  0.786061  0.839270
    O   O17  0.838276  0.718801  0.782630  -0.530299
    N   N1   0.967314  0.848232  0.713126  -0.928066
    H   H18  0.939092  0.881139  0.658903  0.352195
    H   H19  0.981642  0.747644  0.699980  0.355716
