# Generated by REPEAT Assigner based on pymatgen
data_DB0-m9_o3_o20_f0_sra.sym.19_sqe
_audit_creation_date              2022-05-24
_audit_creation_method            REPEAT_Assigner
_cell_length_a                    6.327554
_cell_length_b                    23.632871
_cell_length_c                    22.499149
_cell_angle_alpha                 105.660272
_cell_angle_beta                  90.525909
_cell_angle_gamma                 90.492849
_cell_volume                      3239.240435
_symmetry_space_group_name_H-M    P1
_symmetry_Int_Tables_number       1
loop_
    _symmetry_equiv_pos_site_id
    _symmetry_equiv_pos_as_xyz
    1  x,y,z
loop_
    _atom_site_type_symbol
    _atom_site_label
    _atom_site_fract_x
    _atom_site_fract_y
    _atom_site_fract_z
    _atom_type_partial_charge
    O  O1   0.459831  0.445120  0.530715  -0.374727
    O  O2   0.255357  0.426968  0.457807  -0.492920
    O  O3   0.040689  0.511829  0.419176  -0.546941
    C  C1   0.378227  0.426675  0.409902  0.719562
    O  O4   0.172096  0.488164  0.581520  -0.673067
    O  O5   0.965435  0.572451  0.542850  -0.371130
    C  C2   0.344685  0.458597  0.580181  0.624212
    O  O6   0.540697  0.463387  0.414730  -0.571510
    O  O7   0.358089  0.546584  0.503227  -0.560419
    V  V1   0.082108  0.495296  0.499651  1.415595
    O  O8   0.673180  0.546253  0.587225  -0.565703
    C  C3   0.846572  0.577440  0.591313  0.820018
    O  O9   0.761280  0.564970  0.471505  -0.430613
    C  C4   0.876892  0.546703  0.421424  0.589703
    V  V2   0.582537  0.509354  0.501119  1.393599
    O  O10  0.855110  0.457703  0.495316  -0.582012
    C  C5   0.709532  0.904235  0.140235  -0.019750
    H  H1   0.587381  0.936174  0.141291  0.085406
    C  C6   0.670619  0.856694  0.163125  -0.146137
    C  C7   0.824588  0.814858  0.159505  0.103232
    C  C8   0.013024  0.819252  0.130848  -0.144820
    H  H2   0.134217  0.786788  0.128141  0.140018
    C  C9   0.048367  0.865557  0.106106  -0.100915
    H  H3   0.193804  0.868258  0.082136  0.116131
    C  C10  0.897785  0.908207  0.111318  0.099244
    C  C11  0.907315  0.716457  0.169040  -0.073670
    H  H4   0.006111  0.709296  0.128862  0.095957
    C  C12  0.900062  0.675006  0.201783  -0.117204
    H  H5   0.997143  0.636333  0.188188  0.125222
    C  C13  0.780585  0.685112  0.254359  -0.023505
    C  C14  0.658085  0.734700  0.272091  -0.042664
    C  C15  0.670253  0.776877  0.240499  0.056672
    H  H6   0.589983  0.818128  0.258154  0.061047
    C  C16  0.795618  0.767869  0.189134  -0.043553
    C  C17  0.781641  0.673234  0.358112  -0.112199
    H  H7   0.750690  0.719675  0.375305  0.107911
    C  C18  0.813495  0.640608  0.399254  0.158313
    C  C19  0.869487  0.582360  0.378104  -0.150816
    C  C20  0.904057  0.557760  0.316081  -0.026433
    H  H8   0.949123  0.512221  0.299626  0.111646
    C  C21  0.872970  0.590879  0.274828  -0.197426
    H  H9   0.898088  0.571716  0.226113  0.119587
    C  C22  0.805534  0.648112  0.295921  0.170092
    C  C23  0.952333  0.872483  0.860608  -0.324278
    C  C24  0.936184  0.827419  0.819380  0.143747
    C  C25  0.917277  0.774105  0.771514  -0.028653
    C  C26  0.901146  0.728617  0.730865  -0.027295
    C  C27  0.882120  0.675356  0.682940  0.159997
    C  C28  0.865909  0.630364  0.641625  -0.335478
    C  C29  0.385235  0.373034  0.360209  -0.206204
    C  C30  0.393488  0.327710  0.319174  0.065677
    C  C31  0.404807  0.274238  0.271357  0.007712
    C  C32  0.414897  0.228672  0.230718  -0.056091
    C  C33  0.426329  0.175248  0.182838  0.153278
    C  C34  0.434619  0.129992  0.141706  -0.314613
    C  C35  0.277047  0.090548  0.853093  -0.150896
    H  H10  0.136080  0.067146  0.860171  0.101919
    C  C36  0.269667  0.128330  0.816083  0.014896
    H  H11  0.122069  0.134244  0.794317  0.088344
    C  C37  0.447486  0.160290  0.809519  0.073440
    C  C38  0.636724  0.150990  0.836291  -0.094162
    C  C39  0.645137  0.111729  0.871478  -0.062025
    H  H12  0.792512  0.104847  0.893049  0.143141
    C  C40  0.464957  0.082475  0.880759  -0.005186
    C  C41  0.569792  0.254042  0.793697  -0.018076
    H  H13  0.684009  0.258693  0.830702  0.078010
    C  C42  0.556681  0.297496  0.763733  -0.115022
    H  H14  0.667579  0.333988  0.774832  0.072968
    C  C43  0.396065  0.295796  0.721687  -0.044401
    C  C44  0.249702  0.250599  0.708982  -0.053141
    H  H15  0.124051  0.249478  0.675801  0.097595
    C  C45  0.269272  0.205462  0.736440  -0.124495
    H  H16  0.158556  0.169061  0.724287  0.091314
    C  C46  0.431003  0.206763  0.778385  -0.024277
    C  C47  0.188047  0.356846  0.671557  -0.204993
    H  H17  0.045621  0.336638  0.682940  0.124548
    C  C48  0.175778  0.398254  0.638949  -0.167689
    H  H18  0.023740  0.410208  0.623988  0.202747
    C  C49  0.358430  0.421305  0.621648  0.071280
    C  C50  0.553017  0.405455  0.639443  -0.162562
    H  H19  0.695890  0.423317  0.625266  0.052609
    C  C51  0.564728  0.366683  0.675240  -0.145621
    H  H20  0.716932  0.353815  0.689132  0.144899
    C  C52  0.382449  0.341298  0.689727  0.195050
    O  O11  0.279160  0.039692  0.087077  -0.519791
    O  O12  0.647693  0.014977  0.920317  -0.644049
    O  O13  0.853913  0.930649  0.959385  -0.493485
    C  C53  0.474850  0.044567  0.921659  0.634839
    O  O14  0.563447  0.076187  0.043920  -0.517706
    O  O15  0.776954  0.991352  0.082701  -0.593355
    C  C54  0.441437  0.076406  0.091912  0.808202
    O  O16  0.358878  0.057989  0.971132  -0.388556
    O  O17  0.460972  0.956517  0.998385  -0.590394
    V  V3   0.736917  0.007860  0.002237  1.511179
    O  O18  0.058814  0.937947  0.030820  -0.444165
    C  C55  0.927742  0.952298  0.078139  0.530660
    O  O19  0.145019  0.956695  0.914718  -0.575993
    C  C56  0.971830  0.925528  0.910771  0.838434
    V  V4   0.236319  0.993594  0.000768  1.361190
    O  O20  0.964020  0.045393  0.006801  -0.614980
    N  N1   0.799152  0.668520  0.463617  0.465827
    O  O21  0.895488  0.646373  0.503276  -0.265335
    O  O22  0.726962  0.721693  0.481554  -0.348084
    N  N2   0.824606  0.180858  0.827180  0.520532
    O  O23  0.977811  0.188316  0.867562  -0.342449
    O  O24  0.853418  0.194068  0.775313  -0.269200
    N  N3   0.465955  0.848500  0.185384  0.622049
    O  O25  0.400089  0.795648  0.183064  -0.330985
    O  O26  0.330213  0.890824  0.193635  -0.380286
    N  N4   0.517960  0.742382  0.322697  0.619719
    O  O27  0.457415  0.696938  0.340603  -0.379318
    O  O28  0.418244  0.791704  0.342053  -0.377546
