# generated using pymatgen
data_Zn3H11C37ClO12
_symmetry_space_group_name_H-M   'P 1'
_cell_length_a   27.32482800
_cell_length_b   27.69427500
_cell_length_c   27.35529000
_cell_angle_alpha   109.73207700
_cell_angle_beta   110.61307400
_cell_angle_gamma   108.30704500
_symmetry_Int_Tables_number   1
_chemical_formula_structural   Zn3H11C37ClO12
_chemical_formula_sum   'Zn6 H22 C74 Cl2 O24'
_cell_volume   15883.55858563
_cell_formula_units_Z   2
loop_
 _symmetry_equiv_pos_site_id
 _symmetry_equiv_pos_as_xyz
  1  'x, y, z'
loop_
 _atom_site_type_symbol
 _atom_site_label
 _atom_site_symmetry_multiplicity
 _atom_site_fract_x
 _atom_site_fract_y
 _atom_site_fract_z
 _atom_site_occupancy
  Zn  Zn1  1  0.00080000  0.04667800  0.55093900  1
  Zn  Zn2  1  0.00150200  0.95249800  0.45478600  1
  Zn  Zn3  1  0.42878900  0.95319900  0.97511700  1
  Zn  Zn4  1  0.52360800  0.05006600  0.97882100  1
  Zn  Zn5  1  0.55778100  0.50235300  0.56149700  1
  Zn  Zn6  1  0.45959700  0.49780600  0.45996800  1
  H  H1  1  0.16176000  0.17280500  0.41033700  1
  H  H2  1  0.24008400  0.24941900  0.41256700  1
  H  H3  1  0.34727400  0.32796100  0.60352500  1
  H  H4  1  0.26896100  0.25132500  0.60128900  1
  H  H5  1  0.72314500  0.90651900  0.23722700  1
  H  H6  1  0.64471300  0.90758800  0.15884000  1
  H  H7  1  0.75367000  0.09269800  0.24103300  1
  H  H8  1  0.84337800  0.74275700  0.50690300  1
  H  H9  1  0.76974300  0.66646900  0.50957700  1
  H  H10  1  0.66835500  0.75611300  0.50781400  1
  H  H11  1  0.74197700  0.83238800  0.50514000  1
  H  H12  1  0.58579400  0.84843100  0.82342400  1
  H  H13  1  0.59300700  0.76838600  0.75693800  1
  H  H14  1  0.40268500  0.66124300  0.65972900  1
  H  H15  1  0.39547700  0.74124300  0.72615100  1
  H  H16  1  0.49544000  0.26328500  0.16636100  1
  H  H17  1  0.51105800  0.34254000  0.25600200  1
  H  H18  1  0.49800600  0.23310000  0.33439600  1
  H  H19  1  0.48244800  0.15377400  0.24468100  1
  H  H20  1  0.90134700  0.23420500  0.45612200  1
  H  H21  1  0.99423200  0.17154200  0.37776200  1
  H  H22  1  0.89959300  0.08045500  0.29771500  1
  C  C1  1  0.08237400  0.08026900  0.50255500  1
  C  C2  1  0.08655900  0.00126200  0.58846000  1
  C  C3  1  0.92000600  0.91892100  0.50326900  1
  C  C4  1  0.91573700  0.99790600  0.41724400  1
  C  C5  1  0.13384600  0.00146500  0.63539300  1
  C  C6  1  0.17328300  0.00162400  0.67462900  1
  C  C7  1  0.21969700  0.00180800  0.72087100  1
  C  C8  1  0.25909500  0.00196800  0.76014800  1
  C  C9  1  0.30550000  0.00216400  0.80641000  1
  C  C10  1  0.34492100  0.00233900  0.84567300  1
  C  C11  1  0.24638800  0.24981000  0.45401400  1
  C  C12  1  0.29835600  0.29320600  0.50817100  1
  C  C13  1  0.30650700  0.29386400  0.56110400  1
  C  C14  1  0.26263700  0.25096600  0.55985100  1
  C  C15  1  0.21070500  0.20752900  0.50568300  1
  C  C16  1  0.20251500  0.20692300  0.45276400  1
  C  C17  1  0.34389000  0.33777900  0.50937900  1
  C  C18  1  0.16529300  0.16274500  0.50437500  1
  C  C19  1  0.12731700  0.12508300  0.50342400  1
  C  C20  1  0.38183800  0.37515100  0.51000000  1
  C  C21  1  0.68580100  0.94825000  0.19404500  1
  C  C22  1  0.69349700  0.00025100  0.19438500  1
  C  C23  1  0.74660900  0.05167400  0.24012000  1
  C  C24  1  0.79116200  0.05120300  0.28465400  1
  C  C25  1  0.78340300  0.99897800  0.28404900  1
  C  C26  1  0.73023100  0.94763900  0.23838300  1
  C  C27  1  0.64671400  0.00071100  0.14753400  1
  C  C28  1  0.82963900  0.99810900  0.33100900  1
  C  C29  1  0.86865600  0.99788200  0.37027500  1
  C  C30  1  0.60747100  0.00082100  0.10832800  1
  C  C31  1  0.76368800  0.70294600  0.50862700  1
  C  C32  1  0.71471100  0.70679700  0.50893200  1
  C  C33  1  0.70683700  0.75322300  0.50763900  1
  C  C34  1  0.74803700  0.79591300  0.50609200  1
  C  C35  1  0.79701800  0.79207400  0.50579600  1
  C  C36  1  0.80489600  0.74564400  0.50708100  1
  C  C37  1  0.67164400  0.66230900  0.51022300  1
  C  C38  1  0.84002300  0.83661700  0.50450600  1
  C  C39  1  0.87636500  0.87413800  0.50371500  1
  C  C40  1  0.63506000  0.62498700  0.51099100  1
  C  C41  1  0.47957100  0.92403200  0.89417300  1
  C  C42  1  0.39217800  0.00255700  0.89264400  1
  C  C43  1  0.47281300  0.07921800  0.05977200  1
  C  C44  1  0.56022900  0.00069900  0.06132900  1
  C  C45  1  0.51264600  0.41849000  0.43267100  1
  C  C46  1  0.42644100  0.41951700  0.51006400  1
  C  C47  1  0.50473700  0.58168800  0.58881000  1
  C  C48  1  0.59086800  0.58064000  0.51135600  1
  C  C49  1  0.54978900  0.76270700  0.75048700  1
  C  C50  1  0.49822300  0.71066000  0.70526500  1
  C  C51  1  0.44272500  0.70244900  0.69581600  1
  C  C52  1  0.43868400  0.74701200  0.73248200  1
  C  C53  1  0.49021400  0.79903100  0.77774400  1
  C  C54  1  0.54574600  0.80729900  0.78719300  1
  C  C55  1  0.50188600  0.66518600  0.66612600  1
  C  C56  1  0.48617400  0.84391000  0.81721000  1
  C  C57  1  0.48291700  0.88101400  0.85169600  1
  C  C58  1  0.50382000  0.62684500  0.63159300  1
  C  C59  1  0.50523000  0.30113200  0.25343300  1
  C  C60  1  0.50604400  0.29206400  0.30000500  1
  C  C61  1  0.49788900  0.23959600  0.29756100  1
  C  C62  1  0.48879500  0.19537500  0.24750900  1
  C  C63  1  0.48765900  0.20440000  0.20080500  1
  C  C64  1  0.49610100  0.25695500  0.20342900  1
  C  C65  1  0.51133700  0.33647300  0.34937700  1
  C  C66  1  0.47992700  0.15951400  0.14992400  1
  C  C67  1  0.47534600  0.12234700  0.10789100  1
  C  C68  1  0.51334100  0.37405500  0.38884700  1
  C  C69  1  0.84706400  0.10602900  0.33182200  1
  C  C70  1  0.84761600  0.14940200  0.37623700  1
  C  C71  1  0.90082800  0.20052100  0.42106200  1
  C  C72  1  0.95345800  0.20849400  0.42162300  1
  C  C73  1  0.95295500  0.16535300  0.37728300  1
  C  C74  1  0.89984000  0.11423300  0.33242300  1
  Cl  Cl1  1  0.78171700  0.13901100  0.37794900  1
  Cl  Cl2  1  0.02102400  0.27321400  0.47893500  1
  O  O1  1  0.06374600  0.09666100  0.54008700  1
  O  O2  1  0.06245200  0.02509200  0.46465200  1
  O  O3  1  0.06480500  0.03601600  0.60475400  1
  O  O4  1  0.06695300  0.96619800  0.53123700  1
  O  O5  1  0.93990300  0.97409500  0.54113300  1
  O  O6  1  0.93861900  0.90252400  0.46571500  1
  O  O7  1  0.93536900  0.03298600  0.47447300  1
  O  O8  1  0.93750700  0.96317100  0.40097600  1
  O  O9  1  0.44404000  0.90574500  0.91341200  1
  O  O10  1  0.51430800  0.97926900  0.91372700  1
  O  O11  1  0.37681300  0.96672300  0.91284500  1
  O  O12  1  0.44871000  0.03846100  0.91324500  1
  O  O13  1  0.43820700  0.02398100  0.04034000  1
  O  O14  1  0.50846000  0.09750200  0.04064400  1
  O  O15  1  0.50365400  0.96479700  0.04067200  1
  O  O16  1  0.57559800  0.03654500  0.04110700  1
  O  O17  1  0.55054600  0.44008200  0.48973800  1
  O  O18  1  0.47368800  0.43507200  0.41276300  1
  O  O19  1  0.48324000  0.43949200  0.54764300  1
  O  O20  1  0.40807400  0.43775100  0.47230800  1
  O  O21  1  0.54377900  0.56517200  0.60881400  1
  O  O22  1  0.46690300  0.56008000  0.53176400  1
  O  O23  1  0.60928600  0.56240200  0.54915000  1
  O  O24  1  0.53410500  0.56066800  0.47383100  1
