# generated using pymatgen
data_Zn6H30C49O27
_symmetry_space_group_name_H-M   'P 1'
_cell_length_a   18.91958700
_cell_length_b   18.90253500
_cell_length_c   18.99519200
_cell_angle_alpha   109.09484000
_cell_angle_beta   109.63904200
_cell_angle_gamma   109.49784500
_symmetry_Int_Tables_number   1
_chemical_formula_structural   Zn6H30C49O27
_chemical_formula_sum   'Zn6 H30 C49 O27'
_cell_volume   5241.03308213
_cell_formula_units_Z   1
loop_
 _symmetry_equiv_pos_site_id
 _symmetry_equiv_pos_as_xyz
  1  'x, y, z'
loop_
 _atom_site_type_symbol
 _atom_site_label
 _atom_site_symmetry_multiplicity
 _atom_site_fract_x
 _atom_site_fract_y
 _atom_site_fract_z
 _atom_site_occupancy
  Zn  Zn1  1  0.41969600  0.99839400  0.92154300  1
  Zn  Zn2  1  0.55496300  0.99518200  0.06004000  1
  Zn  Zn3  1  0.42775000  0.43320900  0.50096700  1
  Zn  Zn4  1  0.56430500  0.57330300  0.50042300  1
  Zn  Zn5  1  0.99329600  0.43123700  0.93212600  1
  Zn  Zn6  1  0.99248300  0.56914000  0.06898900  1
  H  H1  1  0.52282100  0.33957400  0.27688800  1
  H  H2  1  0.53746100  0.15188700  0.26967800  1
  H  H3  1  0.44214100  0.20715900  0.15271500  1
  H  H4  1  0.75399100  0.12588200  0.00031900  1
  H  H5  1  0.86661500  0.23771900  0.00040300  1
  H  H6  1  0.72942100  0.37679000  0.00006500  1
  H  H7  1  0.61381100  0.26192900  0.99366200  1
  H  H8  1  0.49110900  0.73693700  0.87017400  1
  H  H9  1  0.48716400  0.62300900  0.75760900  1
  H  H10  1  0.49307200  0.76348900  0.62170500  1
  H  H11  1  0.49086300  0.87444400  0.73127100  1
  H  H12  1  0.36886300  0.87341000  0.12394800  1
  H  H13  1  0.10997300  0.61935400  0.86228800  1
  H  H14  1  0.76877100  0.64110000  0.75458300  1
  H  H15  1  0.87815900  0.64008100  0.86860800  1
  H  H16  1  0.72414800  0.36664400  0.74783400  1
  H  H17  1  0.61166100  0.36811800  0.63796100  1
  H  H18  1  0.37151400  0.50557100  0.23820200  1
  H  H19  1  0.25654000  0.50118400  0.12479000  1
  H  H20  1  0.11811400  0.49747100  0.26163500  1
  H  H21  1  0.23008600  0.49547900  0.37198300  1
  H  H22  1  0.49434200  0.16576900  0.37335400  1
  H  H23  1  0.43377500  0.21905500  0.38612100  1
  H  H24  1  0.61266200  0.27883200  0.47044200  1
  H  H25  1  0.25991000  0.70389100  0.15808000  1
  H  H26  1  0.22142700  0.78030100  0.17472100  1
  H  H27  1  0.38243900  0.80029300  0.23940600  1
  H  H28  1  0.27526500  0.73065100  0.82533200  1
  H  H29  1  0.20130500  0.77242000  0.81472900  1
  H  H30  1  0.17565000  0.61019200  0.74202800  1
  C  C1  1  0.60808100  0.11871800  0.99394400  1
  C  C2  1  0.48227500  0.11318900  0.10734000  1
  C  C3  1  0.36649900  0.87437900  0.98736600  1
  C  C4  1  0.49169100  0.87986600  0.87424400  1
  C  C5  1  0.50046300  0.24845200  0.31829900  1
  C  C6  1  0.50628300  0.32199800  0.32033800  1
  C  C7  1  0.50944400  0.18953400  0.25302400  1
  C  C8  1  0.47751000  0.17610000  0.17268600  1
  C  C9  1  0.74831900  0.18085000  0.00007700  1
  C  C10  1  0.81139500  0.24348100  0.99946500  1
  C  C11  1  0.80534000  0.31453100  0.00052100  1
  C  C12  1  0.73494900  0.32166100  0.99995600  1
  C  C13  1  0.66953400  0.25665900  0.99567300  1
  C  C14  1  0.67663700  0.18669200  0.99683600  1
  C  C15  1  0.49120300  0.74281200  0.81547900  1
  C  C16  1  0.48814400  0.67823700  0.75167600  1
  C  C17  1  0.48988700  0.68594500  0.68244700  1
  C  C18  1  0.49214700  0.75720700  0.67598500  1
  C  C19  1  0.49036700  0.81943200  0.73739800  1
  C  C20  1  0.49130300  0.81301300  0.80794600  1
  C  C21  1  0.31174000  0.81700600  0.06701300  1
  C  C22  1  0.25194500  0.75644300  0.07308800  1
  C  C23  1  0.17887700  0.68568600  0.99815300  1
  C  C24  1  0.16750500  0.67550000  0.91907600  1
  C  C25  1  0.22686400  0.73670000  0.91302800  1
  C  C26  1  0.29906200  0.80839300  0.98807500  1
  C  C27  1  0.61568700  0.50464100  0.62207200  1
  C  C28  1  0.50220700  0.38683400  0.38507100  1
  C  C29  1  0.37627500  0.50181100  0.37941600  1
  C  C30  1  0.49085400  0.61963500  0.61693900  1
  C  C31  1  0.87381200  0.50232300  0.88225300  1
  C  C32  1  0.87285000  0.38169700  0.00150400  1
  C  C33  1  0.11230500  0.49836600  0.11886800  1
  C  C34  1  0.11336100  0.61891000  0.99992200  1
  C  C35  1  0.75859200  0.58065300  0.75287200  1
  C  C36  1  0.81988000  0.58019800  0.81743100  1
  C  C37  1  0.80813000  0.50322000  0.81518400  1
  C  C38  1  0.73395600  0.42702100  0.74953500  1
  C  C39  1  0.67047300  0.42804900  0.68788400  1
  C  C40  1  0.68310500  0.50463400  0.68855800  1
  C  C41  1  0.31571900  0.50330900  0.24338500  1
  C  C42  1  0.25063400  0.50022200  0.17917100  1
  C  C43  1  0.17994900  0.49919500  0.18593600  1
  C  C44  1  0.17350500  0.49881600  0.25607800  1
  C  C45  1  0.23625700  0.49699400  0.31787800  1
  C  C46  1  0.30812500  0.50044300  0.31229600  1
  C  C47  1  0.49471600  0.22753300  0.38638000  1
  C  C48  1  0.26794900  0.76522500  0.15924800  1
  C  C49  1  0.21526200  0.72372500  0.82678300  1
  O  O1  1  0.52752600  0.09373000  0.94239500  1
  O  O2  1  0.63015200  0.08589800  0.04312900  1
  O  O3  1  0.43295300  0.08845700  0.02664100  1
  O  O4  1  0.53368200  0.08302900  0.13166600  1
  O  O5  1  0.34446500  0.90631900  0.93711500  1
  O  O6  1  0.44710300  0.90145200  0.04077400  1
  O  O7  1  0.44224000  0.91184400  0.84999600  1
  O  O8  1  0.54009700  0.90356100  0.95488200  1
  O  O9  1  0.53486200  0.45101800  0.59422500  1
  O  O10  1  0.63855400  0.55687500  0.59226100  1
  O  O11  1  0.44934300  0.36192200  0.41340400  1
  O  O12  1  0.55145000  0.46814700  0.41057100  1
  O  O13  1  0.35359800  0.45165200  0.41114100  1
  O  O14  1  0.45714400  0.55343300  0.40523800  1
  O  O15  1  0.44244400  0.53841500  0.59264400  1
  O  O16  1  0.54094600  0.64460900  0.58605600  1
  O  O17  1  0.90254400  0.44951400  0.85890100  1
  O  O18  1  0.90145200  0.55473200  0.96276500  1
  O  O19  1  0.90477800  0.35795900  0.95239600  1
  O  O20  1  0.89780700  0.46257400  0.05073200  1
  O  O21  1  0.08720700  0.44866300  0.03838900  1
  O  O22  1  0.08055500  0.54814100  0.14207800  1
  O  O23  1  0.08511300  0.53791000  0.94743700  1
  O  O24  1  0.08349400  0.64251100  0.05124300  1
  O  O25  1  0.56592700  0.29264600  0.46683600  1
  O  O26  1  0.35175600  0.83092300  0.22388400  1
  O  O27  1  0.14713600  0.64161300  0.76114700  1
