data_DB0-m3_o12_o28_f0_pcu.sym.9_repeat
_audit_creation_date              2024-02-20
_audit_creation_method            'Materials Studio'
_symmetry_space_group_name_H-M    'P1'
_symmetry_Int_Tables_number       1
_symmetry_cell_setting            triclinic
loop_
_symmetry_equiv_pos_as_xyz
  x,y,z
_cell_length_a                    10.0004
_cell_length_b                    11.2585
_cell_length_c                    23.4206
_cell_angle_alpha                 89.9991
_cell_angle_beta                  80.7469
_cell_angle_gamma                 92.4432
loop_
_atom_site_label
_atom_site_type_symbol
_atom_site_fract_x
_atom_site_fract_y
_atom_site_fract_z
_atom_site_U_iso_or_equiv
_atom_site_adp_type
_atom_site_occupancy
O1     O     0.42740   0.69063   0.50530   0.00000  Uiso   1.00
O2     O     0.57539   0.30910   0.49467   0.00000  Uiso   1.00
O3     O     0.65683   0.65885   0.48873   0.00000  Uiso   1.00
O4     O     0.34595   0.34087   0.51081   0.00000  Uiso   1.00
C1     C     0.55460   0.72958   0.49612   0.00000  Uiso   1.00
C2     C     0.44818   0.27014   0.50364   0.00000  Uiso   1.00
O5     O     0.38846   0.51524   0.59298   0.00000  Uiso   1.00
O6     O     0.61417   0.48395   0.40678   0.00000  Uiso   1.00
O7     O     0.61800   0.48418   0.57665   0.00000  Uiso   1.00
O8     O     0.38493   0.51606   0.42309   0.00000  Uiso   1.00
C3     C     0.50356   0.49966   0.61151   0.00000  Uiso   1.00
C4     C     0.49920   0.50002   0.38822   0.00000  Uiso   1.00
Zn1    Zn    0.35018   0.52096   0.51070   0.00000  Uiso   1.00
Zn2    Zn    0.65261   0.47877   0.48906   0.00000  Uiso   1.00
C5     C     0.47015   0.39889   0.12043   0.00000  Uiso   1.00
C6     C     0.53473   0.59994   0.87929   0.00000  Uiso   1.00
N1     N     0.49827   0.50091   0.14674   0.00000  Uiso   1.00
N2     N     0.50412   0.49838   0.85307   0.00000  Uiso   1.00
C7     C     0.52747   0.60312   0.11665   0.00000  Uiso   1.00
C8     C     0.47228   0.39666   0.88340   0.00000  Uiso   1.00
C9     C     0.52945   0.60498   0.05708   0.00000  Uiso   1.00
C10    C     0.47098   0.39469   0.94292   0.00000  Uiso   1.00
C11    C     0.50039   0.50049   0.02954   0.00000  Uiso   1.00
C12    C     0.50142   0.49890   0.97038   0.00000  Uiso   1.00
C13    C     0.47030   0.39725   0.06145   0.00000  Uiso   1.00
C14    C     0.53307   0.60183   0.93837   0.00000  Uiso   1.00
C15    C     0.56012   0.70863   0.02447   0.00000  Uiso   1.00
C16    C     0.44021   0.29104   0.97555   0.00000  Uiso   1.00
C17    C     0.56232   0.70629   0.96557   0.00000  Uiso   1.00
C18    C     0.44059   0.29290   0.03429   0.00000  Uiso   1.00
O9     O     0.44165   0.29876   0.15205   0.00000  Uiso   1.00
O10    O     0.56479   0.69993   0.84766   0.00000  Uiso   1.00
O11    O     0.55528   0.70222   0.14525   0.00000  Uiso   1.00
O12    O     0.44380   0.29754   0.85494   0.00000  Uiso   1.00
H1     H     0.58698   0.78812   0.94133   0.00000  Uiso   1.00
H2     H     0.41669   0.21094   0.05849   0.00000  Uiso   1.00
C19    C     0.38328   0.49199   0.77108   0.00000  Uiso   1.00
C20    C     0.38298   0.52794   0.24497   0.00000  Uiso   1.00
H3     H     0.28828   0.48680   0.80063   0.00000  Uiso   1.00
H4     H     0.29236   0.54964   0.22819   0.00000  Uiso   1.00
C21    C     0.38295   0.49335   0.71224   0.00000  Uiso   1.00
C22    C     0.38280   0.52734   0.30387   0.00000  Uiso   1.00
H5     H     0.28687   0.48828   0.69667   0.00000  Uiso   1.00
H6     H     0.29126   0.54913   0.33242   0.00000  Uiso   1.00
C23    C     0.50402   0.49933   0.67410   0.00000  Uiso   1.00
C24    C     0.49864   0.50011   0.32561   0.00000  Uiso   1.00
C25    C     0.62526   0.50498   0.69550   0.00000  Uiso   1.00
C26    C     0.61424   0.47306   0.28775   0.00000  Uiso   1.00
H7     H     0.72118   0.51029   0.66662   0.00000  Uiso   1.00
H8     H     0.70599   0.45111   0.30350   0.00000  Uiso   1.00
C27    C     0.62515   0.50571   0.75440   0.00000  Uiso   1.00
C28    C     0.61366   0.47297   0.22893   0.00000  Uiso   1.00
H9     H     0.72022   0.51070   0.77085   0.00000  Uiso   1.00
H10    H     0.70414   0.45148   0.19957   0.00000  Uiso   1.00
C29    C     0.50424   0.49864   0.79227   0.00000  Uiso   1.00
C30    C     0.49826   0.50062   0.20748   0.00000  Uiso   1.00
H11    H     0.62160   0.09726   0.49146   0.00000  Uiso   1.00
H12    H     0.38119   0.90246   0.50844   0.00000  Uiso   1.00
C31    C     0.58534   0.85823   0.49385   0.00000  Uiso   1.00
C32    C     0.41745   0.14149   0.50591   0.00000  Uiso   1.00
C33    C     0.48593   0.93525   0.50098   0.00000  Uiso   1.00
C34    C     0.51686   0.06448   0.49887   0.00000  Uiso   1.00
H13    H     0.11831   0.42732   0.46368   0.00000  Uiso   1.00
H14    H     0.88449   0.57245   0.53604   0.00000  Uiso   1.00
N3     N     0.85126   0.45039   0.47457   0.00000  Uiso   1.00
N4     N     0.15152   0.54933   0.52517   0.00000  Uiso   1.00
C35    C     0.92817   0.50909   0.50429   0.00000  Uiso   1.00
C36    C     0.07462   0.49066   0.49543   0.00000  Uiso   1.00
H15    H     0.10414   0.60821   0.55451   0.00000  Uiso   1.00
H16    H     0.89864   0.39150   0.44523   0.00000  Uiso   1.00
O13    O     0.58887   0.81450   0.04936   0.00000  Uiso   1.00
H17    H     0.50274   0.85640   0.05397   0.00000  Uiso   1.00
O14    O     0.40943   0.18553   0.95081   0.00000  Uiso   1.00
H18    H     0.30911   0.17809   0.95827   0.00000  Uiso   1.00
O15    O     0.28456   0.10109   0.51535   0.00000  Uiso   1.00
H19    H     0.25890   0.09951   0.55799   0.00000  Uiso   1.00
O16    O     0.71822   0.89864   0.48430   0.00000  Uiso   1.00
H20    H     0.74366   0.90026   0.44165   0.00000  Uiso   1.00
