# generated using pymatgen
data_Zn2H13C27N3O8
_symmetry_space_group_name_H-M   'P 1'
_cell_length_a   6.59608700
_cell_length_b   12.43643600
_cell_length_c   13.30911100
_cell_angle_alpha   99.97044400
_cell_angle_beta   90.66467900
_cell_angle_gamma   99.98013400
_symmetry_Int_Tables_number   1
_chemical_formula_structural   Zn2H13C27N3O8
_chemical_formula_sum   'Zn2 H13 C27 N3 O8'
_cell_volume   1058.03577061
_cell_formula_units_Z   1
loop_
 _symmetry_equiv_pos_site_id
 _symmetry_equiv_pos_as_xyz
  1  'x, y, z'
loop_
 _atom_site_type_symbol
 _atom_site_label
 _atom_site_symmetry_multiplicity
 _atom_site_fract_x
 _atom_site_fract_y
 _atom_site_fract_z
 _atom_site_occupancy
  Zn  Zn1  1  0.50189900  0.49071300  0.88756300  1
  Zn  Zn2  1  0.49010800  0.51726400  0.11425000  1
  H  H1  1  0.46828400  0.84405900  0.97196300  1
  H  H2  1  0.34703500  0.01500000  0.96878800  1
  H  H3  1  0.74466700  0.85846200  0.03548300  1
  H  H4  1  0.64498600  0.99296700  0.03302000  1
  H  H5  1  0.52371400  0.16388200  0.02984400  1
  H  H6  1  0.24734900  0.14952000  0.96633300  1
  H  H7  1  0.76752600  0.63711600  0.27446300  1
  H  H8  1  0.22331200  0.37387900  0.71993900  1
  H  H9  1  0.06341100  0.32388200  0.55267600  1
  H  H10  1  0.78710800  0.62932700  0.45500400  1
  H  H11  1  0.79986000  0.61143700  0.59489100  1
  H  H12  1  0.20532700  0.41352700  0.23639000  1
  H  H13  1  0.79075100  0.59240800  0.77278100  1
  C  C1  1  0.30977700  0.84864300  0.98814800  1
  C  C2  1  0.23933500  0.94600300  0.98621600  1
  C  C3  1  0.03551400  0.95251900  0.00418600  1
  C  C4  1  0.90593700  0.85918200  0.02499400  1
  C  C5  1  0.97618400  0.76102200  0.02621400  1
  C  C6  1  0.18022400  0.75623300  0.00805300  1
  C  C7  1  0.75268800  0.06196200  0.01559400  1
  C  C8  1  0.68222600  0.15931000  0.01366100  1
  C  C9  1  0.81175100  0.25172700  0.99376000  1
  C  C10  1  0.01581400  0.24696400  0.97559700  1
  C  C11  1  0.08607900  0.14880400  0.97682100  1
  C  C12  1  0.95651300  0.05546000  0.99762600  1
  C  C13  1  0.72546200  0.35214000  0.99563800  1
  C  C14  1  0.17039500  0.34763500  0.98097800  1
  C  C15  1  0.26642000  0.65578300  0.00616800  1
  C  C16  1  0.82161900  0.66036400  0.02084400  1
  C  C17  1  0.33049500  0.46298600  0.28613300  1
  C  C18  1  0.64337800  0.58750100  0.30728000  1
  C  C19  1  0.65496300  0.58171900  0.40972100  1
  C  C20  1  0.50179800  0.51361800  0.45087300  1
  C  C21  1  0.33706700  0.45504300  0.38817300  1
  C  C22  1  0.67156100  0.55710700  0.61900400  1
  C  C23  1  0.50989400  0.50186600  0.55252800  1
  C  C24  1  0.35102200  0.43368400  0.58899100  1
  C  C25  1  0.18824900  0.37727800  0.52412300  1
  C  C26  1  0.66811800  0.54550500  0.72005400  1
  C  C27  1  0.35241800  0.42378700  0.69080800  1
  N  N1  1  0.48278000  0.52831800  0.24722400  1
  N  N2  1  0.18436900  0.38822700  0.42532400  1
  N  N3  1  0.50997300  0.47995000  0.75463500  1
  O  O1  1  0.66025800  0.39675600  0.08301000  1
  O  O2  1  0.68080200  0.37970100  0.90819800  1
  O  O3  1  0.25621900  0.37172600  0.89697700  1
  O  O4  1  0.24107600  0.39797100  0.07263500  1
  O  O5  1  0.33176600  0.61123100  0.91879500  1
  O  O6  1  0.31113300  0.62825000  0.09362900  1
  O  O7  1  0.73566400  0.63626300  0.10470100  1
  O  O8  1  0.75085400  0.60999900  0.92932300  1
