# Generated by REPEAT Assigner based on pymatgen
data_DB0-m3_o1_o9_f0_nbo.sym.112_sqe
_audit_creation_date              2022-05-24
_audit_creation_method            REPEAT_Assigner
_cell_length_a                    18.947739
_cell_length_b                    18.880280
_cell_length_c                    18.919330
_cell_angle_alpha                 109.351543
_cell_angle_beta                  109.506190
_cell_angle_gamma                 109.544285
_cell_volume                      5210.879465
_symmetry_space_group_name_H-M    P1
_symmetry_Int_Tables_number       1
loop_
    _symmetry_equiv_pos_site_id
    _symmetry_equiv_pos_as_xyz
    1  x,y,z
loop_
    _atom_site_type_symbol
    _atom_site_label
    _atom_site_fract_x
    _atom_site_fract_y
    _atom_site_fract_z
    _atom_type_partial_charge
    O   O1   0.583695  0.533364  0.437841  -0.694861
    O   O2   0.587277  0.638557  0.547099  -0.679188
    C   C1   0.613761  0.614771  0.492236  0.679309
    O   O3   0.403662  0.441399  0.349622  -0.626112
    O   O4   0.402926  0.546419  0.455014  -0.677978
    C   C2   0.374022  0.493220  0.373620  0.605459
    Zn  Zn1  0.495453  0.426561  0.425911  1.296654
    Zn  Zn2  0.495058  0.565463  0.563852  1.291374
    O   O5   0.405409  0.353306  0.444802  -0.707510
    O   O6   0.404424  0.458740  0.549674  -0.669763
    O   O7   0.589925  0.447954  0.534625  -0.676167
    O   O8   0.584626  0.548370  0.640107  -0.686015
    C   C3   0.376810  0.377435  0.497593  0.652125
    C   C4   0.615956  0.498383  0.615861  0.666779
    H   H1   0.181622  0.104139  0.166002  0.139176
    C   C5   0.240078  0.212914  0.152355  0.004278
    H   H2   0.264700  0.182746  0.115177  0.092638
    C   C6   0.254669  0.295046  0.170228  -0.313446
    H   H3   0.290475  0.329158  0.146826  0.118236
    C   C7   0.223953  0.333945  0.218296  0.431453
    C   C8   0.176678  0.289692  0.246568  -0.378401
    H   H4   0.151342  0.319718  0.282900  0.122479
    C   C9   0.160995  0.206952  0.227702  0.233578
    C   C10  0.193341  0.168839  0.181075  -0.334014
    C   C11  0.174122  0.424605  0.176175  -0.293969
    H   H5   0.118488  0.365407  0.119839  0.134058
    C   C12  0.182997  0.503740  0.187352  0.239748
    C   C13  0.255273  0.579413  0.259313  -0.239209
    C   C14  0.316369  0.574149  0.319180  -0.137188
    H   H6   0.371651  0.633016  0.376214  0.123307
    C   C15  0.308022  0.494949  0.307186  0.082417
    C   C16  0.236791  0.419650  0.234296  -0.048307
    C   C17  0.343048  0.726750  0.289368  -0.211068
    H   H7   0.391188  0.710283  0.284103  0.123687
    C   C18  0.356866  0.808868  0.308128  -0.105621
    H   H8   0.415656  0.856396  0.317666  0.105201
    C   C19  0.295991  0.830532  0.315186  -0.096710
    H   H9   0.307033  0.895069  0.330360  0.097000
    C   C20  0.221398  0.770119  0.303720  -0.179538
    H   H10  0.174391  0.787682  0.310606  0.139270
    C   C21  0.207136  0.687712  0.284289  -0.119450
    H   H11  0.149078  0.641152  0.276748  0.077104
    C   C22  0.267658  0.665483  0.276241  0.292751
    C   C23  0.729447  0.765630  0.561445  -0.216465
    H   H12  0.721340  0.781578  0.617513  0.144812
    C   C24  0.792151  0.829019  0.561464  -0.145887
    H   H13  0.832163  0.893628  0.617076  0.157649
    C   C25  0.803689  0.810729  0.490759  -0.057536
    C   C26  0.753807  0.727643  0.419946  0.139798
    C   C27  0.692041  0.663372  0.421012  -0.267581
    H   H14  0.652161  0.598126  0.366692  0.177417
    C   C28  0.679561  0.682447  0.491497  0.112487
    C   C29  0.676526  0.498415  0.753088  -0.164279
    H   H15  0.621926  0.498516  0.759408  0.137217
    C   C30  0.738240  0.495179  0.814314  -0.194837
    H   H16  0.732279  0.494272  0.868911  0.138646
    C   C31  0.809015  0.496680  0.807657  0.173671
    C   C32  0.816589  0.498979  0.738300  -0.181694
    H   H17  0.871671  0.499860  0.732458  0.143365
    C   C33  0.752412  0.497244  0.674576  -0.168353
    H   H18  0.758138  0.497628  0.619725  0.134449
    C   C34  0.682939  0.498340  0.682522  0.109410
    C   C35  0.248837  0.325065  0.513658  -0.189131
    H   H19  0.248941  0.385010  0.524401  0.129388
    C   C36  0.184328  0.261283  0.511566  -0.070352
    H   H20  0.135078  0.272044  0.521641  0.100912
    C   C37  0.183810  0.184825  0.498721  0.054085
    C   C38  0.246949  0.171462  0.486236  -0.169098
    H   H21  0.246317  0.111291  0.475508  0.144931
    C   C39  0.308877  0.233395  0.483717  -0.226398
    H   H22  0.357219  0.221793  0.472332  0.162785
    C   C40  0.310376  0.310675  0.498215  0.155386
    O   O9   0.941379  0.535629  0.088858  -0.702179
    O   O10  0.040172  0.642488  0.083117  -0.629861
    C   C41  0.989450  0.617167  0.113437  0.644323
    O   O11  0.034993  0.449546  0.091917  -0.671274
    O   O12  0.138799  0.555864  0.090493  -0.662522
    C   C42  0.115843  0.504176  0.120869  0.635561
    Zn  Zn3  0.927866  0.430228  0.997356  1.307079
    Zn  Zn4  0.064495  0.571222  0.997684  1.249006
    O   O13  0.950292  0.358956  0.909872  -0.715019
    O   O14  0.052758  0.465800  0.908039  -0.560332
    O   O15  0.853643  0.447556  0.906469  -0.678685
    O   O16  0.957461  0.549879  0.901158  -0.678887
    C   C43  0.003599  0.384006  0.881966  0.660276
    C   C44  0.876643  0.497751  0.874770  0.613562
    O   O17  0.040928  0.900915  0.454911  -0.642513
    O   O18  0.944141  0.912392  0.352343  -0.699795
    C   C45  0.991603  0.878016  0.374474  0.605945
    O   O19  0.952381  0.903781  0.545733  -0.672734
    O   O20  0.850509  0.911300  0.443909  -0.709587
    C   C46  0.872148  0.878905  0.493764  0.665060
    Zn  Zn5  0.060817  0.994826  0.562978  1.279254
    Zn  Zn6  0.926558  0.002162  0.427631  1.310211
    O   O21  0.045119  0.086493  0.638270  -0.587561
    O   O22  0.944518  0.094269  0.535683  -0.675424
    O   O23  0.136724  0.083734  0.544705  -0.690083
    O   O24  0.035120  0.095167  0.446932  -0.684212
    C   C47  0.995712  0.119146  0.616315  0.632100
    C   C48  0.115221  0.117659  0.496473  0.711262
    C   C49  0.992619  0.756193  0.174729  -0.213444
    H   H23  0.996127  0.764045  0.121730  0.139494
    C   C50  0.990869  0.818438  0.236918  -0.150451
    H   H24  0.994074  0.875064  0.232755  0.156072
    C   C51  0.989011  0.810233  0.306166  0.123372
    C   C52  0.985845  0.738195  0.311443  -0.224739
    H   H25  0.983921  0.731122  0.365281  0.154053
    C   C53  0.982683  0.673675  0.246779  -0.141073
    H   H26  0.979749  0.617262  0.251267  0.137667
    C   C54  0.987603  0.683246  0.179079  0.163992
    C   C55  0.081766  0.328134  0.815107  -0.139217
    C   C56  0.077629  0.265057  0.746588  0.077001
    C   C57  0.999579  0.188248  0.685336  -0.143463
    C   C58  0.925415  0.175587  0.690446  0.099934
    C   C59  0.929025  0.240713  0.755296  -0.314326
    H   H27  0.871377  0.233881  0.758263  0.210773
    C   C60  0.005879  0.316900  0.816763  0.095295
    C   C61  0.769530  0.708205  0.344920  0.186104
    O   O25  0.717021  0.620528  0.282487  -0.563414
    H   H28  0.838073  0.725164  0.368011  0.030558
    H   H29  0.755783  0.746890  0.314825  0.064902
    H   H30  0.758100  0.599907  0.279223  0.338565
    C   C62  0.167868  0.403819  0.889822  0.304075
    O   O26  0.190805  0.472792  0.873848  -0.592947
    H   H31  0.218758  0.385654  0.900846  -0.013988
    H   H32  0.166591  0.424771  0.951219  -0.027573
    H   H33  0.254305  0.499965  0.899063  0.367247
    C   C63  0.155792  0.280618  0.736006  0.210964
    O   O27  0.201481  0.248558  0.777556  -0.573189
    H   H34  0.198810  0.350506  0.762694  -0.016249
    H   H35  0.137551  0.249898  0.666900  0.017785
    H   H36  0.263018  0.290907  0.802548  0.369802
    C   C64  0.842208  0.091295  0.626421  0.296389
    O   O28  0.779300  0.086257  0.650204  -0.604246
    H   H37  0.853278  0.036617  0.623690  -0.007191
    H   H38  0.817784  0.084922  0.561339  0.044260
    H   H39  0.770210  0.039884  0.665494  0.349201
    C   C65  0.108362  0.158900  0.256849  0.325138
    O   O29  0.025599  0.147668  0.219190  -0.589377
    H   H40  0.139372  0.196758  0.328060  -0.054978
    H   H41  0.103660  0.094619  0.238341  -0.030462
    H   H42  0.017147  0.172187  0.268713  0.346344
