data_DB0-m3_o11_o29_f0_pcu.sym.82_repeat
_audit_creation_date              2024-02-20
_audit_creation_method            'Materials Studio'
_symmetry_space_group_name_H-M    'P1'
_symmetry_Int_Tables_number       1
_symmetry_cell_setting            triclinic
loop_
_symmetry_equiv_pos_as_xyz
  x,y,z
_cell_length_a                    27.6526
_cell_length_b                    11.1367
_cell_length_c                    9.9056
_cell_angle_alpha                 89.9974
_cell_angle_beta                  89.9930
_cell_angle_gamma                 89.9936
loop_
_atom_site_label
_atom_site_type_symbol
_atom_site_fract_x
_atom_site_fract_y
_atom_site_fract_z
_atom_site_U_iso_or_equiv
_atom_site_adp_type
_atom_site_occupancy
O1     O     0.50389   0.34203   0.58836   0.00000  Uiso   1.00
O2     O     0.50185   0.34270   0.35586   0.00000  Uiso   1.00
C1     C     0.50296   0.28631   0.47227   0.00000  Uiso   1.00
O3     O     0.43091   0.51845   0.59891   0.00000  Uiso   1.00
O4     O     0.42893   0.52022   0.36647   0.00000  Uiso   1.00
C2     C     0.40725   0.51871   0.48411   0.00000  Uiso   1.00
Zn1    Zn    0.50338   0.52007   0.62923   0.00000  Uiso   1.00
Zn2    Zn    0.50043   0.52228   0.32218   0.00000  Uiso   1.00
O5     O     0.50231   0.69952   0.59586   0.00000  Uiso   1.00
O6     O     0.50055   0.70069   0.36244   0.00000  Uiso   1.00
O7     O     0.57492   0.52255   0.58532   0.00000  Uiso   1.00
O8     O     0.57293   0.52362   0.35213   0.00000  Uiso   1.00
C3     C     0.50108   0.75603   0.47953   0.00000  Uiso   1.00
C4     C     0.59655   0.52362   0.46731   0.00000  Uiso   1.00
C5     C     0.17795   0.43134   0.42080   0.00000  Uiso   1.00
O9     O     0.20255   0.34405   0.35705   0.00000  Uiso   1.00
N1     N     0.20223   0.51620   0.49019   0.00000  Uiso   1.00
C6     C     0.17798   0.60237   0.55759   0.00000  Uiso   1.00
C7     C     0.27951   0.50928   0.60890   0.00000  Uiso   1.00
C8     C     0.32942   0.51009   0.60765   0.00000  Uiso   1.00
C9     C     0.32845   0.52483   0.36716   0.00000  Uiso   1.00
C10    C     0.27863   0.52434   0.36872   0.00000  Uiso   1.00
C11    C     0.25389   0.51639   0.48942   0.00000  Uiso   1.00
C12    C     0.10247   0.51989   0.48442   0.00000  Uiso   1.00
C13    C     0.12792   0.43231   0.41701   0.00000  Uiso   1.00
C14    C     0.10329   0.34678   0.34456   0.00000  Uiso   1.00
C15    C     0.12793   0.60507   0.55562   0.00000  Uiso   1.00
C16    C     0.35419   0.51779   0.48662   0.00000  Uiso   1.00
H1     H     0.34677   0.53157   0.27111   0.00000  Uiso   1.00
H2     H     0.25906   0.53166   0.27461   0.00000  Uiso   1.00
H3     H     0.12223   0.27834   0.28816   0.00000  Uiso   1.00
C17    C     0.64961   0.52529   0.46484   0.00000  Uiso   1.00
C18    C     0.97644   0.43264   0.41439   0.00000  Uiso   1.00
C19    C     0.97689   0.62108   0.53270   0.00000  Uiso   1.00
C20    C     0.95158   0.52856   0.47163   0.00000  Uiso   1.00
C21    C     0.94984   0.33744   0.36192   0.00000  Uiso   1.00
C22    C     0.90034   0.34029   0.36055   0.00000  Uiso   1.00
C23    C     0.87583   0.43748   0.41167   0.00000  Uiso   1.00
C24    C     0.90113   0.53187   0.46780   0.00000  Uiso   1.00
C25    C     0.87552   0.62860   0.51995   0.00000  Uiso   1.00
C26    C     0.82490   0.62598   0.51596   0.00000  Uiso   1.00
N2     N     0.80147   0.53175   0.46138   0.00000  Uiso   1.00
C27    C     0.82595   0.43862   0.40909   0.00000  Uiso   1.00
C28    C     0.72512   0.52912   0.58313   0.00000  Uiso   1.00
C29    C     0.67531   0.52695   0.58464   0.00000  Uiso   1.00
C30    C     0.67443   0.52533   0.34353   0.00000  Uiso   1.00
C31    C     0.72433   0.52718   0.34236   0.00000  Uiso   1.00
C32    C     0.74986   0.52954   0.46215   0.00000  Uiso   1.00
O10    O     0.80151   0.34486   0.35774   0.00000  Uiso   1.00
C33    C     0.02712   0.43328   0.41190   0.00000  Uiso   1.00
C34    C     0.05217   0.52247   0.48031   0.00000  Uiso   1.00
C35    C     0.02731   0.61442   0.54440   0.00000  Uiso   1.00
C36    C     0.05367   0.34718   0.34149   0.00000  Uiso   1.00
H4     H     0.65699   0.52660   0.68098   0.00000  Uiso   1.00
H5     H     0.74475   0.52951   0.67752   0.00000  Uiso   1.00
H6     H     0.88137   0.26407   0.31881   0.00000  Uiso   1.00
H7     H     0.96573   0.25607   0.32421   0.00000  Uiso   1.00
H8     H     0.03761   0.27969   0.27830   0.00000  Uiso   1.00
O11    O     0.20264   0.68819   0.62358   0.00000  Uiso   1.00
C37    C     0.10326   0.69250   0.62507   0.00000  Uiso   1.00
H9     H     0.34862   0.50406   0.70240   0.00000  Uiso   1.00
H10    H     0.26059   0.50180   0.70406   0.00000  Uiso   1.00
H11    H     0.12211   0.75879   0.68482   0.00000  Uiso   1.00
C38    C     0.95109   0.71988   0.57860   0.00000  Uiso   1.00
C39    C     0.90150   0.72447   0.57412   0.00000  Uiso   1.00
O12    O     0.79831   0.71673   0.56523   0.00000  Uiso   1.00
C40    C     0.05369   0.69702   0.62029   0.00000  Uiso   1.00
H12    H     0.96814   0.80009   0.61555   0.00000  Uiso   1.00
H13    H     0.65527   0.52409   0.24847   0.00000  Uiso   1.00
H14    H     0.74335   0.52811   0.24700   0.00000  Uiso   1.00
H15    H     0.03735   0.76537   0.68184   0.00000  Uiso   1.00
C41    C     0.50110   0.95341   0.36932   0.00000  Uiso   1.00
C42    C     0.50069   0.88763   0.48278   0.00000  Uiso   1.00
H16    H     0.50128   0.90819   0.27250   0.00000  Uiso   1.00
H17    H     0.49987   0.92801   0.58173   0.00000  Uiso   1.00
C43    C     0.50084   0.08652   0.36653   0.00000  Uiso   1.00
C44    C     0.50369   0.15488   0.47727   0.00000  Uiso   1.00
H18    H     0.49844   0.12939   0.26856   0.00000  Uiso   1.00
H19    H     0.50667   0.11634   0.57679   0.00000  Uiso   1.00
C45    C     0.52255   0.60430   0.90296   0.00000  Uiso   1.00
N3     N     0.50632   0.51723   0.83097   0.00000  Uiso   1.00
H20    H     0.53564   0.68494   0.85388   0.00000  Uiso   1.00
H21    H     0.50011   0.43737   0.87981   0.00000  Uiso   1.00
C46    C     0.52644   0.59456   0.05158   0.00000  Uiso   1.00
N4     N     0.49820   0.52628   0.12040   0.00000  Uiso   1.00
H22    H     0.55256   0.65026   0.10382   0.00000  Uiso   1.00
H23    H     0.46982   0.48732   0.06986   0.00000  Uiso   1.00
N5     N     0.87960   0.83181   0.61980   0.00000  Uiso   1.00
C47    C     0.86236   0.83126   0.75466   0.00000  Uiso   1.00
C48    C     0.82578   0.90972   0.79051   0.00000  Uiso   1.00
C49    C     0.80829   0.91177   0.92080   0.00000  Uiso   1.00
C50    C     0.82738   0.83584   0.01664   0.00000  Uiso   1.00
C51    C     0.86413   0.75818   0.98225   0.00000  Uiso   1.00
C52    C     0.88178   0.75564   0.85201   0.00000  Uiso   1.00
H24    H     0.85759   0.87458   0.55126   0.00000  Uiso   1.00
H25    H     0.81052   0.97014   0.71646   0.00000  Uiso   1.00
H26    H     0.77959   0.97317   0.94779   0.00000  Uiso   1.00
H27    H     0.81370   0.83755   0.11886   0.00000  Uiso   1.00
H28    H     0.87933   0.69917   0.05780   0.00000  Uiso   1.00
H29    H     0.91102   0.69438   0.83032   0.00000  Uiso   1.00
