# Generated by REPEAT Assigner based on pymatgen
data_DB0-m3_o14_o27_f0_pcu.sym.98_sqe
_audit_creation_date              2022-05-24
_audit_creation_method            REPEAT_Assigner
_cell_length_a                    19.336138
_cell_length_b                    10.994778
_cell_length_c                    9.822727
_cell_angle_alpha                 90.000178
_cell_angle_beta                  89.993306
_cell_angle_gamma                 90.005361
_cell_volume                      2088.277748
_symmetry_space_group_name_H-M    P1
_symmetry_Int_Tables_number       1
loop_
    _symmetry_equiv_pos_site_id
    _symmetry_equiv_pos_as_xyz
    1  x,y,z
loop_
    _atom_site_type_symbol
    _atom_site_label
    _atom_site_fract_x
    _atom_site_fract_y
    _atom_site_fract_z
    _atom_type_partial_charge
    O   O1   0.506863  0.312272  0.614690  -0.545594
    O   O2   0.507758  0.309346  0.383541  -0.678519
    C   C1   0.510019  0.252381  0.500990  0.726093
    O   O3   0.398385  0.487002  0.614839  -0.662598
    O   O4   0.397797  0.481861  0.382522  -0.664471
    C   C2   0.365504  0.482050  0.499099  0.699976
    Zn  Zn1  0.501252  0.492580  0.653699  0.977147
    Zn  Zn2  0.500722  0.490316  0.344289  1.050285
    O   O5   0.497573  0.673443  0.616645  -0.556118
    O   O6   0.495279  0.671870  0.380724  -0.648752
    O   O7   0.604371  0.502046  0.617493  -0.631452
    O   O8   0.603590  0.501905  0.381210  -0.613046
    C   C3   0.493217  0.730018  0.498916  0.728928
    C   C4   0.636218  0.504688  0.498829  0.626585
    C   C5   0.253776  0.501713  0.619416  -0.093627
    H   H1   0.280892  0.518098  0.713835  0.094767
    C   C6   0.182463  0.505031  0.619247  0.055377
    H   H2   0.155774  0.522980  0.713782  0.045358
    C   C7   0.146162  0.485373  0.500004  -0.403253
    C   C8   0.182111  0.462013  0.381097  0.081927
    H   H3   0.155228  0.446853  0.286183  0.046321
    C   C9   0.253403  0.460530  0.380932  -0.122639
    H   H4   0.280196  0.443463  0.286301  0.099666
    C   C10  0.289666  0.480534  0.500013  -0.026247
    N   N1   0.035069  0.455230  0.387899  -0.379064
    N   N2   0.966891  0.462894  0.385263  -0.240726
    C   C11  0.932117  0.508504  0.492439  0.825804
    N   N3   0.967388  0.542341  0.604341  -0.262226
    N   N4   0.035618  0.534112  0.607366  -0.351826
    C   C12  0.070328  0.491309  0.498709  0.850805
    C   C13  0.820661  0.511400  0.613316  0.018101
    H   H5   0.848459  0.506418  0.708340  0.049299
    C   C14  0.749391  0.508696  0.616505  -0.112413
    H   H6   0.723597  0.503323  0.713909  0.100753
    C   C15  0.712063  0.510348  0.496785  0.030790
    C   C16  0.746902  0.517581  0.374234  -0.245253
    H   H7   0.718703  0.522847  0.279480  0.134060
    C   C17  0.818233  0.522345  0.370411  0.440817
    C   C18  0.855950  0.516028  0.490901  -0.515163
    H   H8   0.517587  0.100604  0.288636  0.096736
    C   C19  0.516519  0.100231  0.755999  -0.150878
    H   H9   0.547063  0.180889  0.770827  0.085005
    C   C20  0.494742  0.042078  0.872169  -0.152451
    H   H10  0.504065  0.082521  0.970781  0.120977
    C   C21  0.458633  0.935497  0.862107  -0.017933
    H   H11  0.437350  0.893147  0.952163  0.075339
    C   C22  0.452942  0.879275  0.737855  -0.297216
    H   H12  0.422881  0.796768  0.734061  0.145212
    C   C23  0.482344  0.930481  0.621761  0.224666
    C   C24  0.503469  0.051046  0.627598  0.146915
    C   C25  0.511187  0.117060  0.505915  -0.207239
    C   C26  0.510771  0.053540  0.384256  -0.070014
    H   H13  0.510169  0.881323  0.286633  0.098744
    C   C27  0.504668  0.928448  0.382546  -0.070139
    C   C28  0.490296  0.864965  0.500652  -0.225664
    H   H14  0.572530  0.628340  0.124901  0.141645
    C   C29  0.416213  0.325831  0.136039  -0.159560
    H   H15  0.413983  0.318491  0.243521  0.171897
    C   C30  0.374165  0.246975  0.066711  -0.058896
    H   H16  0.341720  0.183714  0.121662  0.092912
    C   C31  0.373670  0.248567  0.928178  -0.016149
    H   H17  0.340823  0.186545  0.872403  0.095102
    C   C32  0.415415  0.328643  0.859784  -0.208066
    H   H18  0.412322  0.323273  0.752316  0.153002
    C   C33  0.458428  0.410151  0.927615  0.255919
    C   C34  0.458608  0.408851  0.069138  0.137150
    N   N5   0.499431  0.487059  0.139959  -0.129543
    C   C35  0.539779  0.565382  0.070259  -0.026271
    H   H19  0.572802  0.629830  0.875491  0.113410
    C   C36  0.539880  0.566347  0.928978  0.050203
    N   N6   0.499419  0.489262  0.857937  -0.161810
    C   C37  0.851439  0.540299  0.238058  -0.258320
    C   C38  0.892177  0.641516  0.215215  0.099496
    C   C39  0.923926  0.657602  0.090865  0.012691
    Cl  Cl1  0.975900  0.785526  0.062411  -0.109705
    C   C40  0.915026  0.572691  0.989159  -0.004216
    C   C41  0.873749  0.472341  0.011268  -0.090391
    C   C42  0.841471  0.456707  0.135125  -0.134752
    H   H20  0.899283  0.708382  0.294685  0.028964
    H   H21  0.940386  0.584944  0.892115  0.050065
    H   H22  0.866884  0.405459  0.931800  0.121403
    H   H23  0.809581  0.377395  0.152227  0.101887
