# generated using pymatgen
data_ZnH24C35NO8
_symmetry_space_group_name_H-M   'P 1'
_cell_length_a   19.50896000
_cell_length_b   18.22876400
_cell_length_c   15.04615700
_cell_angle_alpha   90.00000000
_cell_angle_beta   90.01648800
_cell_angle_gamma   90.00000000
_symmetry_Int_Tables_number   1
_chemical_formula_structural   ZnH24C35NO8
_chemical_formula_sum   'Zn2 H48 C70 N2 O16'
_cell_volume   5350.77774181
_cell_formula_units_Z   2
loop_
 _symmetry_equiv_pos_site_id
 _symmetry_equiv_pos_as_xyz
  1  'x, y, z'
loop_
 _atom_site_type_symbol
 _atom_site_label
 _atom_site_symmetry_multiplicity
 _atom_site_fract_x
 _atom_site_fract_y
 _atom_site_fract_z
 _atom_site_occupancy
  Zn  Zn1  1  0.49999900  0.58347300  0.49997200  1
  Zn  Zn2  1  0.50000000  0.41666600  0.49997500  1
  H  H1  1  0.60894900  0.50325000  0.78046100  1
  H  H2  1  0.39103200  0.50238900  0.21946500  1
  H  H3  1  0.39109600  0.49697200  0.78032500  1
  H  H4  1  0.60892000  0.49782300  0.21960200  1
  H  H5  1  0.32942500  0.49861800  0.91856800  1
  H  H6  1  0.67057800  0.49993300  0.08136700  1
  H  H7  1  0.32940400  0.50030600  0.08117500  1
  H  H8  1  0.67059000  0.50162600  0.91876000  1
  H  H9  1  0.84458100  0.40936000  0.58939500  1
  H  H10  1  0.15515400  0.58987700  0.58969100  1
  H  H11  1  0.15537200  0.40933000  0.41074700  1
  H  H12  1  0.84488800  0.58991000  0.41045400  1
  H  H13  1  0.93812900  0.61692300  0.50173700  1
  H  H14  1  0.06189600  0.38221700  0.50180300  1
  H  H15  1  0.06188400  0.61691500  0.49844200  1
  H  H16  1  0.93808700  0.38222600  0.49837300  1
  H  H17  1  0.45145700  0.69995800  0.62480100  1
  H  H18  1  0.40197300  0.30010600  0.55821700  1
  H  H19  1  0.54853300  0.69996000  0.37514200  1
  H  H20  1  0.59804300  0.30010700  0.44173700  1
  H  H21  1  0.45151900  0.83446600  0.62678000  1
  H  H22  1  0.40054900  0.16568300  0.55833000  1
  H  H23  1  0.54847700  0.83446800  0.37317100  1
  H  H24  1  0.59946800  0.16568300  0.44162900  1
  H  H25  1  0.35112500  0.88157500  0.49350100  1
  H  H26  1  0.36023900  0.81862200  0.40092800  1
  H  H27  1  0.30347500  0.89683600  0.39230500  1
  H  H28  1  0.50514200  0.11961300  0.69200200  1
  H  H29  1  0.57731800  0.18162500  0.68048300  1
  H  H30  1  0.58266100  0.10366100  0.75463500  1
  H  H31  1  0.64887200  0.88155900  0.50645700  1
  H  H32  1  0.63975100  0.81860700  0.59902900  1
  H  H33  1  0.69652300  0.89681500  0.60765300  1
  H  H34  1  0.49487200  0.11961600  0.30795600  1
  H  H35  1  0.42270000  0.18163300  0.31947800  1
  H  H36  1  0.41735100  0.10367000  0.24532500  1
  H  H37  1  0.76898900  0.30458800  0.55265800  1
  H  H38  1  0.68580100  0.28163900  0.59673500  1
  H  H39  1  0.75578800  0.30131400  0.67187900  1
  H  H40  1  0.22942100  0.69495200  0.55294700  1
  H  H41  1  0.31272600  0.71881100  0.59576600  1
  H  H42  1  0.24359900  0.69856000  0.67197000  1
  H  H43  1  0.23092800  0.30455200  0.44753500  1
  H  H44  1  0.31409300  0.28154500  0.40343300  1
  H  H45  1  0.24409200  0.30121500  0.32830900  1
  H  H46  1  0.77063700  0.69498900  0.44726800  1
  H  H47  1  0.68735000  0.71889400  0.40442800  1
  H  H48  1  0.75649800  0.69867700  0.32824200  1
  C  C1  1  0.36551200  0.50007500  0.49995800  1
  C  C2  1  0.63448700  0.50009700  0.50000100  1
  C  C3  1  0.49996500  0.50004800  0.32619700  1
  C  C4  1  0.50003400  0.50005300  0.67374500  1
  C  C5  1  0.56116100  0.50165500  0.81660100  1
  C  C6  1  0.43883000  0.50115700  0.18333200  1
  C  C7  1  0.50002500  0.50007300  0.77071800  1
  C  C8  1  0.49997400  0.50006600  0.22922000  1
  C  C9  1  0.43887500  0.49854200  0.81652800  1
  C  C10  1  0.56113100  0.49903000  0.18340500  1
  C  C11  1  0.43879800  0.49928300  0.90822700  1
  C  C12  1  0.56120300  0.49976000  0.09170600  1
  C  C13  1  0.50000400  0.50010600  0.95412000  1
  C  C14  1  0.49999500  0.50010500  0.04581300  1
  C  C15  1  0.56121900  0.50093400  0.90829800  1
  C  C16  1  0.43877700  0.50045200  0.09163500  1
  C  C17  1  0.37758200  0.49915500  0.95410400  1
  C  C18  1  0.62242000  0.50009900  0.04583000  1
  C  C19  1  0.37757000  0.50013500  0.04569100  1
  C  C20  1  0.62242600  0.50108100  0.95424300  1
  C  C21  1  0.74652600  0.44772600  0.54879500  1
  C  C22  1  0.25332200  0.55208400  0.54886100  1
  C  C23  1  0.25344600  0.44768500  0.45127700  1
  C  C24  1  0.74670100  0.55212400  0.45121100  1
  C  C25  1  0.81732800  0.44795600  0.54795100  1
  C  C26  1  0.18252400  0.55143100  0.54819400  1
  C  C27  1  0.18264500  0.44792800  0.45216600  1
  C  C28  1  0.81749900  0.55146000  0.45192400  1
  C  C29  1  0.85323100  0.49962800  0.49992900  1
  C  C30  1  0.14676700  0.49960900  0.50020400  1
  C  C31  1  0.71021600  0.50001700  0.50002200  1
  C  C32  1  0.28978300  0.49998800  0.50000100  1
  C  C33  1  0.96467400  0.56492800  0.50011700  1
  C  C34  1  0.03533100  0.43420100  0.50016700  1
  C  C35  1  0.03533200  0.56492400  0.50006400  1
  C  C36  1  0.96465800  0.43420600  0.50001200  1
  C  C37  1  0.07131300  0.49956500  0.50015200  1
  C  C38  1  0.92868400  0.49957400  0.50001900  1
  C  C39  1  0.47319400  0.72980400  0.56955300  1
  C  C40  1  0.44540500  0.27030900  0.53216200  1
  C  C41  1  0.52679300  0.72980500  0.43038900  1
  C  C42  1  0.55461100  0.27031000  0.46779300  1
  C  C43  1  0.47317300  0.80540300  0.57081900  1
  C  C44  1  0.44446700  0.19471100  0.53224600  1
  C  C45  1  0.52681900  0.80540500  0.42912900  1
  C  C46  1  0.55555000  0.19471200  0.46771200  1
  C  C47  1  0.49999800  0.84372300  0.49997500  1
  C  C48  1  0.50000900  0.15636300  0.49998000  1
  C  C49  1  0.45614100  0.96204100  0.44406700  1
  C  C50  1  0.54324400  0.03795400  0.55675400  1
  C  C51  1  0.54386300  0.96203700  0.55588900  1
  C  C52  1  0.45676700  0.03795800  0.44320300  1
  C  C53  1  0.50000700  0.07599900  0.49997800  1
  C  C54  1  0.50000100  0.92404800  0.49997800  1
  C  C55  1  0.40999500  0.92209200  0.38396700  1
  C  C56  1  0.35269600  0.87681900  0.42006900  1
  C  C57  1  0.58962800  0.07773400  0.61676200  1
  C  C58  1  0.56183300  0.12366500  0.69048400  1
  C  C59  1  0.59000600  0.92208300  0.61598900  1
  C  C60  1  0.64730000  0.87680300  0.57988900  1
  C  C61  1  0.41038500  0.07774200  0.38319700  1
  C  C62  1  0.43818100  0.12367200  0.30947500  1
  C  C63  1  0.71214800  0.39477300  0.60765200  1
  C  C64  1  0.73219000  0.31575200  0.60714300  1
  C  C65  1  0.28752700  0.60541100  0.60742300  1
  C  C66  1  0.26677100  0.68423200  0.60695700  1
  C  C67  1  0.28778900  0.39468500  0.39244700  1
  C  C68  1  0.26771500  0.31567300  0.39302400  1
  C  C69  1  0.71253100  0.60549700  0.39267700  1
  C  C70  1  0.73330300  0.68431200  0.39322800  1
  N  N1  1  0.49999000  0.69321200  0.49996800  1
  N  N2  1  0.50000800  0.30692300  0.49997700  1
  O  O1  1  0.39786900  0.56328600  0.49940500  1
  O  O2  1  0.60211600  0.43691000  0.49945400  1
  O  O3  1  0.60213000  0.56330600  0.50054700  1
  O  O4  1  0.39788100  0.43689000  0.50050000  1
  O  O5  1  0.50031400  0.56334700  0.36753700  1
  O  O6  1  0.50035700  0.43674300  0.63241600  1
  O  O7  1  0.49970100  0.56335200  0.63240700  1
  O  O8  1  0.49962500  0.43674000  0.36753200  1
  O  O9  1  0.41692400  0.92789600  0.30372000  1
  O  O10  1  0.65151300  0.07130300  0.60836100  1
  O  O11  1  0.58307600  0.92788800  0.69623700  1
  O  O12  1  0.34849900  0.07131700  0.39160000  1
  O  O13  1  0.66863600  0.41560700  0.66002000  1
  O  O14  1  0.33142800  0.58505100  0.65955600  1
  O  O15  1  0.33130000  0.41546900  0.34005100  1
  O  O16  1  0.66863800  0.58518400  0.34050700  1
