# Generated by REPEAT Assigner based on pymatgen
data_DB0-m3_o9_o23_f0_nbo.sym.35
_audit_creation_date              2022-05-24
_audit_creation_method            REPEAT_Assigner
_cell_length_a                    21.873724
_cell_length_b                    21.874590
_cell_length_c                    22.211841
_cell_angle_alpha                 119.489984
_cell_angle_beta                  119.494072
_cell_angle_gamma                 90.010496
_cell_volume                      7628.338409
_symmetry_space_group_name_H-M    P1
_symmetry_Int_Tables_number       1
loop_
    _symmetry_equiv_pos_site_id
    _symmetry_equiv_pos_as_xyz
    1  x,y,z
loop_
    _atom_site_type_symbol
    _atom_site_label
    _atom_site_fract_x
    _atom_site_fract_y
    _atom_site_fract_z
    _atom_type_partial_charge
    O   O1    0.446849  0.089702  0.503169  -0.652311
    O   O2    0.550071  0.086901  0.498557  -0.654644
    C   C1    0.499240  0.117408  0.502023  0.564375
    O   O3    0.511938  0.056238  0.626028  -0.688933
    O   O4    0.614270  0.055851  0.619668  -0.690377
    C   C2    0.583885  0.074458  0.661734  0.791590
    Zn  Zn1   0.428071  0.998712  0.502750  1.287345
    Zn  Zn2   0.561799  0.992943  0.493469  1.294546
    O   O5    0.439268  0.904244  0.496631  -0.590894
    O   O6    0.543527  0.902642  0.494299  -0.657714
    O   O7    0.375625  0.936523  0.376475  -0.677687
    O   O8    0.477976  0.934713  0.370203  -0.697319
    C   C3    0.490745  0.874269  0.494438  0.495097
    C   C4    0.406119  0.916981  0.334350  0.794774
    C   C5    0.691340  0.263966  0.950801  -0.136408
    C   C6    0.798438  0.229849  0.949187  -0.121906
    C   C7    0.844994  0.283770  0.043811  -0.171587
    H   H1    0.755332  0.367070  0.072398  0.051323
    H   H2    0.698619  0.300749  0.932354  0.001908
    H   H3    0.821015  0.183432  0.931162  0.011771
    H   H4    0.799983  0.258794  0.920427  0.036431
    H   H5    0.861664  0.340802  0.060953  0.020251
    H   H6    0.895431  0.268901  0.071442  0.050343
    C   C8    0.882609  0.367238  0.244278  -0.009904
    C   C9    0.719267  0.199861  0.918785  0.758367
    C   C10   0.734947  0.307318  0.045221  -0.146966
    C   C11   0.799863  0.280186  0.077016  0.756548
    C   C12   0.771021  0.200712  0.046451  -0.112605
    C   C13   0.716904  0.154223  0.951861  -0.181167
    C   C14   0.845935  0.327407  0.168755  -0.533713
    C   C15   0.671879  0.153918  0.827080  -0.533537
    C   C16   0.631929  0.117230  0.751580  -0.010827
    H   H7    0.660080  0.136705  0.934870  0.023871
    H   H8    0.732317  0.104295  0.923998  0.052249
    H   H9    0.742514  0.198299  0.075315  0.034691
    H   H10   0.631746  0.242744  0.923741  0.048833
    H   H11   0.698531  0.299054  0.063668  0.003778
    H   H12   0.817979  0.178736  0.064228  0.009672
    H   H13   0.470835  0.272892  0.794808  0.101931
    C   C17   0.422852  0.277004  0.687292  -0.087023
    H   H14   0.376032  0.290490  0.689207  0.103337
    C   C18   0.429707  0.270076  0.625970  -0.213160
    H   H15   0.387956  0.278042  0.579831  0.110107
    C   C19   0.489046  0.252156  0.622741  0.304907
    C   C20   0.542514  0.242958  0.682518  -0.140982
    H   H16   0.590253  0.230969  0.681997  0.097473
    C   C21   0.535791  0.250475  0.744163  -0.109560
    H   H17   0.577722  0.243765  0.791157  0.119499
    C   C22   0.475898  0.267109  0.746387  -0.142374
    C   C23   0.499641  0.309100  0.556182  -0.146846
    H   H18   0.498111  0.358870  0.602133  0.098008
    C   C24   0.501744  0.307232  0.494234  0.302044
    C   C25   0.500291  0.241721  0.433113  -0.164579
    C   C26   0.501669  0.181704  0.439002  -0.288540
    H   H19   0.502077  0.131269  0.392627  0.155401
    C   C27   0.499936  0.183961  0.501260  0.253708
    C   C28   0.496431  0.247564  0.558774  -0.243292
    C   C29   0.436962  0.177219  0.280754  -0.217764
    H   H20   0.393950  0.142434  0.271750  0.135255
    C   C30   0.432075  0.166976  0.211925  -0.122457
    H   H21   0.385633  0.124071  0.149424  0.114004
    C   C31   0.486265  0.211462  0.222736  -0.143439
    H   H22   0.482394  0.203449  0.168762  0.107523
    C   C32   0.545568  0.265941  0.302447  -0.025525
    H   H23   0.588360  0.300666  0.311104  0.056700
    C   C33   0.550500  0.276089  0.371241  -0.211008
    H   H24   0.597365  0.318259  0.433169  0.103868
    C   C34   0.495757  0.232435  0.360789  0.289086
    C   C35   0.213411  0.732201  0.041439  -0.139488
    C   C36   0.325810  0.762820  0.047323  -0.110116
    C   C37   0.278819  0.711473  0.952548  -0.095194
    H   H25   0.155110  0.630861  0.917901  0.062796
    H   H26   0.235596  0.693377  0.058186  0.086558
    H   H27   0.369425  0.808404  0.068133  0.024357
    H   H28   0.352488  0.731392  0.074160  0.028718
    H   H29   0.275202  0.653458  0.933077  0.009818
    H   H30   0.304606  0.726584  0.927436  -0.000455
    C   C38   0.122546  0.634944  0.751556  -0.025255
    C   C39   0.277110  0.794867  0.076971  0.570897
    C   C40   0.164397  0.691143  0.946960  -0.323609
    C   C41   0.201776  0.718510  0.918731  0.823944
    C   C42   0.207489  0.799137  0.952069  -0.186791
    C   C43   0.246661  0.843502  0.046469  -0.076865
    C   C44   0.158214  0.673474  0.827063  -0.509811
    C   C45   0.321232  0.838750  0.168760  -0.438100
    C   C46   0.358987  0.874486  0.244351  -0.069467
    H   H31   0.206874  0.862840  0.062873  0.016520
    H   H32   0.292598  0.892283  0.076659  0.031544
    H   H33   0.151265  0.804188  0.923110  0.037516
    H   H34   0.180386  0.754729  0.067443  0.070098
    H   H35   0.110235  0.701273  0.927567  0.072052
    H   H36   0.239422  0.820865  0.936572  0.030435
    H   H37   0.155079  0.752849  0.278198  0.165184
    C   C47   0.234017  0.749610  0.381590  -0.019120
    H   H38   0.196142  0.746806  0.398723  0.100079
    C   C48   0.305029  0.749386  0.427436  -0.283625
    H   H39   0.322559  0.746627  0.480586  0.144149
    C   C49   0.353914  0.753777  0.406441  0.224895
    C   C50   0.330657  0.756275  0.337770  -0.282312
    H   H40   0.368019  0.757790  0.319631  0.148813
    C   C51   0.259399  0.756016  0.291495  0.429930
    C   C52   0.211112  0.753089  0.313744  -0.402482
    C   C53   0.434815  0.690363  0.457896  -0.219166
    H   H41   0.385250  0.645813  0.424263  0.135778
    C   C54   0.503134  0.685313  0.504030  0.157460
    C   C55   0.566633  0.742881  0.548350  -0.157159
    C   C56   0.560719  0.803001  0.542893  -0.231180
    H   H42   0.610670  0.847169  0.576747  0.143367
    C   C57   0.492367  0.808023  0.496173  0.238815
    C   C58   0.428562  0.751665  0.454758  -0.137126
    C   C59   0.684804  0.795873  0.684635  -0.172068
    H   H43   0.663521  0.837332  0.713318  0.110609
    C   C60   0.755794  0.797139  0.733393  -0.131878
    H   H44   0.789936  0.839437  0.800053  0.111945
    C   C61   0.783512  0.744978  0.697000  -0.094161
    H   H45   0.839429  0.746340  0.735040  0.097176
    C   C62   0.740231  0.691631  0.611871  -0.179290
    H   H46   0.762821  0.651975  0.583363  0.126543
    C   C63   0.668688  0.689433  0.563180  -0.111672
    H   H47   0.635255  0.647881  0.496293  0.091452
    C   C64   0.640692  0.741472  0.599639  0.258335
    O   O9    0.906964  0.548145  0.488029  -0.655841
    O   O10   0.911947  0.448560  0.499337  -0.651629
    C   C65   0.880126  0.497582  0.492077  0.546945
    O   O11   0.943746  0.487167  0.369789  -0.672320
    O   O12   0.943041  0.384965  0.376282  -0.700141
    C   C66   0.925176  0.415281  0.334141  0.785341
    Zn  Zn3   0.000772  0.568626  0.493852  1.297758
    Zn  Zn4   0.004505  0.434247  0.501979  1.297610
    O   O13   0.094168  0.555200  0.497997  -0.640575
    O   O14   0.097580  0.453989  0.506364  -0.668044
    O   O15   0.061345  0.617929  0.619569  -0.682920
    O   O16   0.062553  0.515669  0.626077  -0.683153
    C   C67   0.125251  0.505307  0.503912  0.542229
    C   C68   0.080282  0.587486  0.661710  0.783988
    O   O17   0.632360  0.535242  0.575344  -0.567478
    O   O18   0.559853  0.462022  0.430745  -0.664700
    C   C69   0.624803  0.497869  0.503108  0.505776
    O   O19   0.538073  0.438831  0.566760  -0.670759
    O   O20   0.463765  0.367300  0.422151  -0.569921
    C   C70   0.501590  0.374200  0.494009  0.522355
    Zn  Zn5   0.550320  0.543038  0.594305  1.268999
    Zn  Zn6   0.456097  0.450244  0.404675  1.268806
    O   O21   0.446723  0.532565  0.568402  -0.688269
    O   O22   0.374086  0.457031  0.423721  -0.654115
    O   O23   0.543656  0.625972  0.576739  -0.666282
    O   O24   0.467032  0.554336  0.432092  -0.699533
    C   C71   0.381912  0.494470  0.496200  0.646797
    C   C72   0.505613  0.618784  0.504635  0.669373
    H   H48   0.722354  0.522994  0.196891  0.102404
    C   C73   0.718015  0.571531  0.304289  -0.081814
    H   H49   0.703748  0.617789  0.301477  0.101317
    C   C74   0.725457  0.565413  0.366235  -0.223130
    H   H50   0.717155  0.607222  0.411991  0.113948
    C   C75   0.744372  0.506796  0.370613  0.319081
    C   C76   0.754094  0.453315  0.311386  -0.140076
    H   H51   0.766921  0.406138  0.312816  0.099960
    C   C77   0.746153  0.459354  0.249194  -0.115990
    H   H52   0.753395  0.417474  0.202744  0.122111
    C   C78   0.728474  0.518499  0.245771  -0.142046
    C   C79   0.688544  0.497558  0.438736  -0.127647
    H   H53   0.638417  0.498391  0.392466  0.093723
    C   C80   0.691339  0.497129  0.501979  0.314509
    C   C81   0.757345  0.499530  0.563416  -0.177788
    C   C82   0.816887  0.497464  0.556734  -0.294052
    H   H54   0.867677  0.497890  0.603546  0.155485
    C   C83   0.813812  0.497687  0.493346  0.273953
    C   C84   0.749736  0.500337  0.435426  -0.268877
    C   C85   0.821692  0.566721  0.716150  -0.240606
    H   H55   0.854643  0.609797  0.723421  0.142887
    C   C86   0.832978  0.573422  0.786200  -0.118525
    H   H56   0.874861  0.621412  0.848005  0.112292
    C   C87   0.790839  0.519044  0.777480  -0.143313
    H   H57   0.799670  0.524322  0.832406  0.106452
    C   C88   0.737719  0.457731  0.698662  -0.038999
    H   H58   0.704911  0.414773  0.691678  0.065410
    C   C89   0.726533  0.450992  0.628648  -0.189764
    H   H59   0.685571  0.402535  0.567444  0.088027
    C   C90   0.767752  0.505922  0.637000  0.308191
    H   H60   0.265340  0.833819  0.771060  0.109304
    C   C91   0.269041  0.768507  0.663862  -0.056158
    H   H61   0.277961  0.814258  0.659327  0.094033
    C   C92   0.265201  0.699315  0.607309  -0.252047
    H   H62   0.271005  0.691170  0.558495  0.136971
    C   C93   0.253049  0.640499  0.612291  0.310388
    C   C94   0.246730  0.651859  0.675680  -0.125076
    H   H63   0.239428  0.606763  0.681734  0.082831
    C   C95   0.251172  0.721255  0.732593  -0.106149
    H   H64   0.246725  0.730212  0.782457  0.121272
    C   C96   0.261925  0.779468  0.726438  -0.165002
    C   C97   0.313031  0.562910  0.550340  -0.188566
    H   H65   0.359698  0.612419  0.589643  0.127614
    C   C98   0.315625  0.495806  0.497523  0.144251
    C   C99   0.255892  0.432246  0.447424  -0.124645
    C   C100  0.195125  0.436983  0.451742  -0.268023
    H   H66   0.148885  0.387272  0.413136  0.145471
    C   C101  0.192275  0.504130  0.504089  0.284200
    C   C102  0.251683  0.567870  0.553611  -0.230828
    C   C103  0.201508  0.318341  0.307026  -0.169189
    H   H67   0.160615  0.341601  0.281309  0.107797
    C   C104  0.199504  0.248303  0.254501  -0.132548
    H   H68   0.157144  0.216881  0.187903  0.111824
    C   C105  0.251109  0.218099  0.286961  -0.097734
    H   H69   0.249246  0.162968  0.245889  0.097352
    C   C106  0.304576  0.257876  0.371976  -0.167994
    H   H70   0.343964  0.233423  0.397408  0.122400
    C   C107  0.307336  0.328383  0.424494  -0.114744
    H   H71   0.348948  0.358985  0.491245  0.093376
    C   C108  0.256036  0.359032  0.391986  0.248171
    N   N1    0.235951  0.757726  0.220271  -0.509077
    H   H72   0.180630  0.756003  0.192488  0.218581
    H   H73   0.238803  0.709572  0.177516  0.165572
