# generated using pymatgen
data_CuH9C14NO5
_symmetry_space_group_name_H-M   'P 1'
_cell_length_a   9.71424100
_cell_length_b   11.18841100
_cell_length_c   15.90467300
_cell_angle_alpha   93.57041200
_cell_angle_beta   81.99752700
_cell_angle_gamma   110.95537900
_symmetry_Int_Tables_number   1
_chemical_formula_structural   CuH9C14NO5
_chemical_formula_sum   'Cu2 H18 C28 N2 O10'
_cell_volume   1598.43138935
_cell_formula_units_Z   2
loop_
 _symmetry_equiv_pos_site_id
 _symmetry_equiv_pos_as_xyz
  1  'x, y, z'
loop_
 _atom_site_type_symbol
 _atom_site_label
 _atom_site_symmetry_multiplicity
 _atom_site_fract_x
 _atom_site_fract_y
 _atom_site_fract_z
 _atom_site_occupancy
  Cu  Cu1  1  0.36356400  0.47968200  0.48613700  1
  Cu  Cu2  1  0.64190100  0.51957300  0.51503700  1
  H  H1  1  0.10952300  0.42829100  0.03093200  1
  H  H2  1  0.88939300  0.56838900  0.96806800  1
  H  H3  1  0.41912800  0.48496800  0.21873400  1
  H  H4  1  0.58243300  0.51413100  0.78170200  1
  H  H5  1  0.86460100  0.56180300  0.25909900  1
  H  H6  1  0.13841900  0.43595600  0.73908300  1
  H  H7  1  0.05849900  0.41952300  0.89050900  1
  H  H8  1  0.94121800  0.57389000  0.10754500  1
  H  H9  1  0.27183000  0.45602300  0.13292800  1
  H  H10  1  0.72817000  0.54146500  0.86679200  1
  H  H11  1  0.62515900  0.12993200  0.51408900  1
  H  H12  1  0.37696700  0.86402600  0.48112900  1
  H  H13  1  0.13263100  0.58171000  0.55531700  1
  H  H14  1  0.87881600  0.42373700  0.44375500  1
  H  H15  1  0.09553500  0.37845600  0.42543300  1
  H  H16  1  0.90571500  0.61520000  0.58021600  1
  H  H17  1  0.21640000  0.01885600  0.52716800  1
  H  H18  1  0.78551300  0.97732100  0.46898700  1
  C  C1  1  0.55739200  0.74230100  0.50564400  1
  C  C2  1  0.44838800  0.25685100  0.49324300  1
  C  C3  1  0.41728700  0.48601900  0.66108400  1
  C  C4  1  0.58785700  0.51380300  0.33975200  1
  C  C5  1  0.36774900  0.47660200  0.75239600  1
  C  C6  1  0.63502200  0.52163100  0.24758600  1
  C  C7  1  0.17496900  0.44142200  0.86777500  1
  C  C8  1  0.82542700  0.55479100  0.13095300  1
  C  C9  1  0.22006200  0.45024100  0.78200700  1
  C  C10  1  0.78202800  0.54712800  0.21683000  1
  C  C11  1  0.46944200  0.49404700  0.80893700  1
  C  C12  1  0.53204600  0.50449200  0.19132600  1
  C  C13  1  0.42565200  0.48657200  0.89650400  1
  C  C14  1  0.57453500  0.51215200  0.10343600  1
  C  C15  1  0.27647900  0.45969300  0.92440700  1
  C  C16  1  0.72333500  0.53795500  0.07495100  1
  C  C17  1  0.52580500  0.50436000  0.95647200  1
  C  C18  1  0.47397900  0.49447800  0.04343400  1
  C  C19  1  0.32248700  0.46645200  0.06810000  1
  C  C20  1  0.67693900  0.53151400  0.93145800  1
  C  C21  1  0.22630600  0.44976400  0.00935600  1
  C  C22  1  0.77291100  0.54751700  0.98994000  1
  C  C23  1  0.58823400  0.88065100  0.50874300  1
  C  C24  1  0.41474900  0.11770200  0.48852000  1
  C  C25  1  0.48463300  0.92814400  0.49557100  1
  C  C26  1  0.51657600  0.06749200  0.50035000  1
  C  C27  1  0.92752500  0.49059100  0.49259100  1
  C  C28  1  0.08130300  0.51193400  0.50808500  1
  N  N1  1  0.84976200  0.54932400  0.53729900  1
  N  N2  1  0.15586800  0.44969100  0.46392300  1
  O  O1  1  0.42533300  0.66600800  0.49092900  1
  O  O2  1  0.58220200  0.33345100  0.50580000  1
  O  O3  1  0.66472500  0.70043200  0.51515000  1
  O  O4  1  0.34417100  0.29942500  0.47942800  1
  O  O5  1  0.31959800  0.47558500  0.60948800  1
  O  O6  1  0.68584900  0.52222100  0.39135400  1
  O  O7  1  0.55637200  0.50269100  0.63423600  1
  O  O8  1  0.44911800  0.49828400  0.36674600  1
  O  O9  1  0.27695400  0.03978400  0.47094400  1
  O  O10  1  0.72521200  0.96147200  0.52539400  1
