# Generated by REPEAT Assigner based on pymatgen
data_DB0-m3_o23_o26_f0_pcu.sym.50
_audit_creation_date              2022-05-24
_audit_creation_method            REPEAT_Assigner
_cell_length_a                    14.821532
_cell_length_b                    15.985529
_cell_length_c                    17.487743
_cell_angle_alpha                 90.006744
_cell_angle_beta                  86.387978
_cell_angle_gamma                 90.043959
_cell_volume                      4135.139829
_symmetry_space_group_name_H-M    P1
_symmetry_Int_Tables_number       1
loop_
    _symmetry_equiv_pos_site_id
    _symmetry_equiv_pos_as_xyz
    1  x,y,z
loop_
    _atom_site_type_symbol
    _atom_site_label
    _atom_site_fract_x
    _atom_site_fract_y
    _atom_site_fract_z
    _atom_type_partial_charge
    O   O1   0.417702  0.625640  0.502943  -0.655284
    O   O2   0.573725  0.626670  0.500870  -0.741739
    C   C1   0.495410  0.664987  0.502140  0.882538
    O   O3   0.411499  0.500413  0.616046  -0.641457
    O   O4   0.567280  0.500803  0.614402  -0.649703
    C   C2   0.487266  0.500366  0.651096  0.659503
    Zn  Zn1  0.394729  0.500722  0.501961  1.081812
    Zn  Zn2  0.600220  0.502335  0.500199  1.107387
    O   O5   0.421259  0.376405  0.501256  -0.702965
    O   O6   0.577236  0.377398  0.499061  -0.667365
    O   O7   0.427655  0.502224  0.387755  -0.653219
    O   O8   0.583492  0.502770  0.386104  -0.656362
    C   C3   0.499516  0.338029  0.499852  0.861820
    C   C4   0.507707  0.502860  0.351060  0.709647
    C   C5   0.482365  0.499432  0.735120  -0.015026
    C   C6   0.560032  0.490955  0.774206  -0.081053
    C   C7   0.555357  0.489009  0.853216  -0.224329
    C   C8   0.472663  0.496181  0.894284  0.283441
    C   C9   0.395239  0.503822  0.854942  -0.255605
    C   C10  0.399915  0.506033  0.776026  -0.086731
    C   C11  0.438529  0.510246  0.149173  -0.224674
    C   C12  0.434331  0.508055  0.228140  -0.071272
    C   C13  0.595219  0.503383  0.225909  -0.048785
    C   C14  0.599376  0.505487  0.146960  -0.245159
    C   C15  0.521402  0.508043  0.107780  0.262434
    C   C16  0.463009  0.492896  0.978641  -0.235340
    C   C17  0.530631  0.511045  0.023307  -0.218370
    C   C18  0.512544  0.504395  0.267030  -0.059240
    H   H1   0.625319  0.484534  0.743655  0.104114
    H   H2   0.368768  0.510142  0.258795  0.098381
    H   H3   0.657558  0.500962  0.254697  0.097346
    H   H4   0.596202  0.528663  0.997775  0.127761
    H   H5   0.330114  0.508958  0.886050  0.116516
    H   H6   0.375781  0.515737  0.121595  0.128443
    H   H7   0.338228  0.513370  0.747031  0.121893
    H   H8   0.397145  0.475713  0.003733  0.134554
    H   H9   0.617250  0.479410  0.881302  0.130252
    H   H10  0.664649  0.504524  0.115708  0.123660
    C   C19  0.412719  0.955942  0.456208  -0.489767
    C   C20  0.578852  0.951303  0.454512  -0.197078
    C   C21  0.573947  0.046251  0.439838  -0.607256
    H   H11  0.388451  0.082076  0.417356  0.084036
    H   H12  0.429034  0.945702  0.394339  0.124506
    H   H13  0.637225  0.936693  0.488674  0.079049
    H   H14  0.589621  0.914132  0.401455  0.051255
    C   C22  0.499973  0.248257  0.498603  -0.067991
    C   C23  0.492411  0.921630  0.498782  0.991245
    C   C24  0.407125  0.050029  0.470257  -0.138647
    C   C25  0.498210  0.081153  0.496288  1.014488
    C   C26  0.510213  0.048924  0.577898  -0.353327
    C   C27  0.495697  0.954852  0.580638  -0.475116
    C   C28  0.499636  0.172848  0.497463  -0.549179
    C   C29  0.493402  0.830084  0.500326  -0.510354
    C   C30  0.494639  0.754712  0.501438  -0.087928
    H   H15  0.557493  0.928338  0.603724  0.084238
    H   H16  0.353275  0.065203  0.514034  -0.081839
    H   H17  0.580828  0.057986  0.591739  0.137195
    C   C31  0.945179  0.587886  0.509997  -0.130260
    C   C32  0.954367  0.464876  0.425339  -0.139593
    C   C33  0.056313  0.474536  0.423740  -0.145950
    H   H18  0.079110  0.631924  0.477695  0.051307
    H   H19  0.930641  0.625052  0.458671  0.032809
    H   H20  0.937274  0.398087  0.417856  0.040991
    H   H21  0.928510  0.500506  0.376921  0.057901
    H   H22  0.078360  0.523333  0.381522  0.036958
    H   H23  0.089000  0.414488  0.406447  0.065174
    N   N1   0.259647  0.500593  0.504076  -0.039300
    C   C34  0.911963  0.498935  0.500695  0.754916
    C   C35  0.046129  0.587192  0.519102  -0.168749
    C   C36  0.082924  0.499793  0.502753  0.822590
    C   C37  0.042572  0.435907  0.559835  -0.584350
    C   C38  0.941060  0.447925  0.569017  -0.401325
    C   C39  0.181591  0.500237  0.503825  -0.269048
    C   C40  0.813274  0.501159  0.498961  -0.266342
    N   N2   0.735291  0.502422  0.498127  -0.034589
    H   H24  0.923166  0.484266  0.621758  0.113257
    H   H25  0.910155  0.617121  0.561143  0.062795
    H   H26  0.060200  0.608142  0.577429  0.071291
    H   H27  0.055956  0.372717  0.535539  0.117467
    C   C41  0.553063  0.065337  0.357821  0.686260
    O   O9   0.535683  0.136868  0.339269  -0.492604
    O   O10  0.557190  0.005114  0.303699  -0.274069
    C   C42  0.539477  0.022773  0.229401  -0.071164
    H   H28  0.546247  0.964769  0.194737  0.094049
    H   H29  0.588428  0.069880  0.205373  0.073217
    H   H30  0.469508  0.046892  0.227326  0.071139
    C   C43  0.664911  0.086042  0.449585  0.817056
    O   O11  0.705992  0.074681  0.506933  -0.540763
    O   O12  0.704681  0.130026  0.390939  -0.255083
    C   C44  0.789075  0.163968  0.395919  -0.087454
    H   H31  0.808644  0.197885  0.342094  0.099226
    H   H32  0.838922  0.113573  0.404281  0.058160
    H   H33  0.788240  0.208505  0.444528  0.094280
    C   C45  0.420197  0.925854  0.635525  0.878005
    O   O13  0.342242  0.947316  0.628970  -0.539512
    O   O14  0.440033  0.875550  0.693960  -0.395077
    C   C46  0.373521  0.847699  0.745851  0.029628
    H   H34  0.404083  0.807362  0.788844  0.084616
    H   H35  0.323086  0.810703  0.715928  0.045217
    H   H36  0.340054  0.901788  0.775517  0.037368
    C   C47  0.459302  0.097157  0.640634  0.732215
    O   O15  0.500817  0.122995  0.693843  -0.561510
    O   O16  0.370704  0.115244  0.638314  -0.143277
    C   C48  0.326282  0.160678  0.695506  -0.222521
    H   H37  0.254404  0.167634  0.682543  0.127481
    H   H38  0.357331  0.223633  0.698973  0.103506
    H   H39  0.329797  0.127575  0.750989  0.097466
    C   C49  0.323313  0.912209  0.471966  0.733415
    O   O17  0.315549  0.838623  0.455141  -0.522542
    O   O18  0.248846  0.956041  0.495263  -0.211483
    C   C50  0.166136  0.917738  0.505378  -0.146676
    H   H40  0.114760  0.964613  0.525256  0.102376
    H   H41  0.168980  0.867727  0.549141  0.090111
    H   H42  0.146788  0.890696  0.450316  0.072920
    C   C51  0.896927  0.363579  0.578533  0.801496
    O   O19  0.849796  0.334918  0.530196  -0.484640
    O   O20  0.911302  0.318271  0.641605  -0.347159
    C   C52  0.873639  0.240416  0.652131  0.019749
    H   H43  0.893914  0.214172  0.707176  0.086246
    H   H44  0.897991  0.198410  0.604725  0.048823
    H   H45  0.798861  0.245152  0.653926  0.067899
    C   C53  0.084273  0.438704  0.635583  0.891386
    O   O21  0.077352  0.500630  0.676261  -0.543408
    O   O22  0.126389  0.370051  0.660304  -0.372922
    C   C54  0.160303  0.368191  0.731432  0.040515
    H   H46  0.191624  0.306364  0.740575  0.070617
    H   H47  0.104837  0.378139  0.776103  0.048346
    H   H48  0.212291  0.417553  0.735454  0.055767
