# Generated by REPEAT Assigner based on pymatgen
data_DB0-m3_o45_o22_f0_fsc.sym.24_sqe
_audit_creation_date              2022-05-24
_audit_creation_method            REPEAT_Assigner
_cell_length_a                    8.549561
_cell_length_b                    9.153415
_cell_length_c                    12.795575
_cell_angle_alpha                 90.000000
_cell_angle_beta                  93.595564
_cell_angle_gamma                 90.000000
_cell_volume                      999.380893
_symmetry_space_group_name_H-M    P1
_symmetry_Int_Tables_number       1
loop_
    _symmetry_equiv_pos_site_id
    _symmetry_equiv_pos_as_xyz
    1  x,y,z
loop_
    _atom_site_type_symbol
    _atom_site_label
    _atom_site_fract_x
    _atom_site_fract_y
    _atom_site_fract_z
    _atom_type_partial_charge
    C   C1   0.847468  0.999277  0.288155  0.162203
    C   C2   0.830914  0.984716  0.181126  -0.423735
    H   H1   0.715357  0.976588  0.142158  0.143063
    C   C3   0.961929  0.987822  0.123148  0.623100
    C   C4   0.111312  0.990118  0.174196  -0.505062
    H   H2   0.216929  0.983073  0.132235  0.181013
    C   C5   0.125656  0.002305  0.282127  0.308259
    C   C6   0.993651  0.016728  0.336389  -0.417594
    N   N1   0.939671  0.987986  0.012743  -0.341164
    N   N2   0.061672  0.019625  0.969965  -0.029495
    C   C7   0.175910  0.017530  0.802450  -0.267831
    C   C8   0.159976  0.991639  0.695869  -0.088694
    C   C9   0.013936  0.968872  0.648135  0.210157
    C   C10  0.880957  0.989754  0.700405  -0.307471
    C   C11  0.894046  0.012034  0.807428  -0.075599
    H   H3   0.787892  0.022988  0.848440  0.084996
    C   C12  0.042634  0.018056  0.859420  0.310243
    H   H4   0.005720  0.037306  0.418738  0.222318
    H   H5   0.002675  0.942234  0.566650  0.007959
    O   O1   0.665478  0.122988  0.388754  -0.765710
    O   O2   0.663197  0.868427  0.383928  -0.739243
    C   C13  0.713832  0.996820  0.353274  0.863555
    O   O3   0.676812  0.868812  0.598870  -0.774489
    O   O4   0.676289  0.119495  0.604715  -0.787482
    C   C14  0.731524  0.992554  0.637222  1.109964
    O   O5   0.342401  0.868852  0.594601  -0.777323
    O   O6   0.342959  0.122087  0.598313  -0.733341
    C   C15  0.291919  0.994353  0.628929  0.962628
    O   O7   0.330129  0.122016  0.382656  -0.640215
    O   O8   0.329097  0.872169  0.377955  -0.637379
    C   C16  0.275695  0.998783  0.344057  0.661436
    Zn  Zn1  0.501910  0.829736  0.488624  0.991400
    Zn  Zn2  0.503893  0.161296  0.493166  0.961575
    C   C17  0.634750  0.579987  0.551531  0.276599
    C   C18  0.626432  0.414393  0.564779  -0.498145
    H   H6   0.639909  0.624646  0.632022  0.026183
    H   H7   0.603911  0.388934  0.647219  0.142064
    H   H8   0.743506  0.609236  0.513480  -0.000718
    H   H9   0.741533  0.367320  0.547538  0.214379
    H   H10  0.378429  0.598844  0.624690  0.107070
    H   H11  0.340000  0.375818  0.611080  0.114738
    C   C19  0.361740  0.577406  0.539473  -0.127429
    C   C20  0.355113  0.412598  0.530003  -0.137872
    C   C21  0.504328  0.573633  0.384898  -0.182611
    C   C22  0.533709  0.410447  0.391617  0.102906
    N   N3   0.498030  0.636863  0.489469  0.176998
    N   N4   0.502430  0.353878  0.494857  0.450661
    H   H12  0.397244  0.596308  0.335292  0.081893
    H   H13  0.467857  0.350865  0.327969  0.039440
    H   H14  0.603153  0.620805  0.344600  0.090599
    H   H15  0.659281  0.394125  0.378231  0.001834
    N   N5   0.212141  0.644289  0.504305  0.690385
    O   O9   0.161399  0.646803  0.406506  -0.334360
    O   O10  0.114790  0.676753  0.574876  -0.436948
    N   N6   0.219080  0.362641  0.465331  0.659835
    O   O11  0.206732  0.383629  0.364684  -0.327237
    O   O12  0.107857  0.293837  0.509642  -0.463874
    N   N7   0.328082  0.036372  0.854270  0.689020
    O   O13  0.343759  0.100499  0.944998  -0.425509
    O   O14  0.452891  0.993483  0.809956  -0.421945
