# generated using pymatgen
data_ZnH8C17NO4F
_symmetry_space_group_name_H-M   'P 1'
_cell_length_a   13.41007300
_cell_length_b   8.56235400
_cell_length_c   10.68757200
_cell_angle_alpha   90.00000000
_cell_angle_beta   97.90585200
_cell_angle_gamma   90.00000000
_symmetry_Int_Tables_number   1
_chemical_formula_structural   ZnH8C17NO4F
_chemical_formula_sum   'Zn2 H16 C34 N2 O8 F2'
_cell_volume   1215.50247210
_cell_formula_units_Z   2
loop_
 _symmetry_equiv_pos_site_id
 _symmetry_equiv_pos_as_xyz
  1  'x, y, z'
loop_
 _atom_site_type_symbol
 _atom_site_label
 _atom_site_symmetry_multiplicity
 _atom_site_fract_x
 _atom_site_fract_y
 _atom_site_fract_z
 _atom_site_occupancy
  Zn  Zn1  1  0.11097500  0.50413500  0.49737200  1
  Zn  Zn2  1  0.88902500  0.49586500  0.50262800  1
  H  H1  1  0.04895600  0.38509800  0.90437600  1
  H  H2  1  0.95104400  0.61490100  0.09562400  1
  H  H3  1  0.02484400  0.38323000  0.12465600  1
  H  H4  1  0.97515600  0.61677000  0.87534300  1
  H  H5  1  0.05264900  0.00379500  0.59129600  1
  H  H6  1  0.94735100  0.99620500  0.40870300  1
  H  H7  1  0.56806500  0.67113200  0.74053700  1
  H  H8  1  0.43193500  0.32886800  0.25946300  1
  H  H9  1  0.37551100  0.50208300  0.18381300  1
  H  H10  1  0.62449000  0.49791900  0.81618800  1
  H  H11  1  0.43578300  0.51938700  0.81131500  1
  H  H12  1  0.56421800  0.48061200  0.18868600  1
  H  H13  1  0.52082100  0.65718600  0.25597700  1
  H  H14  1  0.47918000  0.34281300  0.74402400  1
  H  H15  1  0.73019400  0.49532600  0.30643800  1
  H  H16  1  0.26980600  0.50467200  0.69356300  1
  C  C1  1  0.04184600  0.00285100  0.68935300  1
  C  C2  1  0.95815400  0.99714900  0.31064600  1
  C  C3  1  0.03610500  0.14217800  0.75189500  1
  C  C4  1  0.96389500  0.85782200  0.24810500  1
  C  C5  1  0.97544300  0.13669000  0.25354700  1
  C  C6  1  0.02455700  0.86330900  0.74645300  1
  C  C7  1  0.02393000  0.14054800  0.87836100  1
  C  C8  1  0.97607000  0.85945200  0.12163800  1
  C  C9  1  0.99518100  0.13768800  0.12985600  1
  C  C10  1  0.00481900  0.86231200  0.87014400  1
  C  C11  1  0.02993600  0.27712900  0.94691600  1
  C  C12  1  0.97006400  0.72287000  0.05308300  1
  C  C13  1  0.01701600  0.27551200  0.07243400  1
  C  C14  1  0.98298400  0.72448800  0.92756600  1
  C  C15  1  0.00787200  0.00060200  0.93733500  1
  C  C16  1  0.99212800  0.99939700  0.06266400  1
  C  C17  1  0.02528600  0.28499500  0.67527900  1
  C  C18  1  0.97471400  0.71500500  0.32472100  1
  C  C19  1  0.98285800  0.27739300  0.33166800  1
  C  C20  1  0.01714200  0.72260700  0.66833200  1
  C  C21  1  0.69779800  0.49224100  0.39356500  1
  C  C22  1  0.30220300  0.50775800  0.60643600  1
  C  C23  1  0.72001500  0.49973900  0.61474700  1
  C  C24  1  0.27998500  0.50026300  0.38525300  1
  C  C25  1  0.61690100  0.50470200  0.61447300  1
  C  C26  1  0.38309900  0.49529800  0.38552800  1
  C  C27  1  0.55421600  0.49784600  0.50124500  1
  C  C28  1  0.44578400  0.50215400  0.49875500  1
  C  C29  1  0.59469000  0.49765500  0.38999300  1
  C  C30  1  0.40531000  0.50234400  0.61000800  1
  C  C31  1  0.57434600  0.54245800  0.73269800  1
  C  C32  1  0.42565400  0.45754300  0.26730200  1
  C  C33  1  0.47087300  0.47096100  0.73159200  1
  C  C34  1  0.52912700  0.52903800  0.26840900  1
  N  N1  1  0.75857100  0.49050700  0.50499200  1
  N  N2  1  0.24142900  0.50949300  0.49500800  1
  O  O1  1  0.93330600  0.33131700  0.63327000  1
  O  O2  1  0.06669400  0.66868300  0.36673000  1
  O  O3  1  0.07301400  0.33201600  0.37138500  1
  O  O4  1  0.92698600  0.66798400  0.62861500  1
  O  O5  1  0.10525400  0.34265500  0.63354400  1
  O  O6  1  0.89474600  0.65734500  0.36645600  1
  O  O7  1  0.90091600  0.33017400  0.37154800  1
  O  O8  1  0.09908400  0.66982600  0.62845200  1
  F  F1  1  0.78280800  0.51013100  0.72517800  1
  F  F2  1  0.21719200  0.48987200  0.27482200  1
