# generated using pymatgen
data_ZnH20C39(NO4)2
_symmetry_space_group_name_H-M   'P 1'
_cell_length_a   14.84510800
_cell_length_b   16.03099500
_cell_length_c   27.61649500
_cell_angle_alpha   89.97441900
_cell_angle_beta   103.55476000
_cell_angle_gamma   86.04297600
_symmetry_Int_Tables_number   1
_chemical_formula_structural   ZnH20C39(NO4)2
_chemical_formula_sum   'Zn2 H40 C78 N4 O16'
_cell_volume   6372.99704986
_cell_formula_units_Z   2
loop_
 _symmetry_equiv_pos_site_id
 _symmetry_equiv_pos_as_xyz
  1  'x, y, z'
loop_
 _atom_site_type_symbol
 _atom_site_label
 _atom_site_symmetry_multiplicity
 _atom_site_fract_x
 _atom_site_fract_y
 _atom_site_fract_z
 _atom_site_occupancy
  Zn  Zn1  1  0.40475700  0.47986600  0.48852500  1
  Zn  Zn2  1  0.60658300  0.52269800  0.51388300  1
  H  H1  1  0.65304700  0.51034800  0.67418500  1
  H  H2  1  0.63858500  0.55226300  0.36353700  1
  H  H3  1  0.65200400  0.51050100  0.76232100  1
  H  H4  1  0.63764700  0.55187300  0.27510600  1
  H  H5  1  0.37264400  0.44937900  0.33022600  1
  H  H6  1  0.35819600  0.49321300  0.63685600  1
  H  H7  1  0.37385700  0.44852700  0.24207000  1
  H  H8  1  0.35863300  0.49432000  0.72516100  1
  H  H9  1  0.45360500  0.70465300  0.11552300  1
  H  H10  1  0.61080700  0.31222300  0.89373000  1
  H  H11  1  0.45175000  0.70782400  0.03016500  1
  H  H12  1  0.61143600  0.30871400  0.97891600  1
  H  H13  1  0.39475500  0.69152900  0.95483200  1
  H  H14  1  0.55368400  0.29433400  0.03979300  1
  H  H15  1  0.25910000  0.01778300  0.46942200  1
  H  H16  1  0.75224200  0.98478600  0.53122800  1
  H  H17  1  0.45336800  0.21534000  0.49496200  1
  H  H18  1  0.55797800  0.78722200  0.50794300  1
  H  H19  1  0.73498600  0.27279200  0.52949100  1
  H  H20  1  0.27635400  0.72977800  0.47208100  1
  H  H21  1  0.22685400  0.87716800  0.46561500  1
  H  H22  1  0.78448700  0.12540300  0.53541000  1
  H  H23  1  0.36122700  0.12483800  0.48217600  1
  H  H24  1  0.65011700  0.87773000  0.51846000  1
  H  H25  1  0.03068900  0.65900600  0.59267700  1
  H  H26  1  0.98073800  0.34332800  0.40988200  1
  H  H27  1  0.23946900  0.53743400  0.52152800  1
  H  H28  1  0.77188800  0.46510600  0.48090100  1
  H  H29  1  0.29490100  0.36145400  0.41989400  1
  H  H30  1  0.71643800  0.64112500  0.58250700  1
  H  H31  1  0.87808700  0.67740500  0.60344800  1
  H  H32  1  0.13328700  0.32507000  0.39902000  1
  H  H33  1  0.14374600  0.59491500  0.55534300  1
  H  H34  1  0.86770900  0.40735500  0.44725400  1
  H  H35  1  0.28572600  0.82661000  0.81494200  1
  H  H36  1  0.37616600  0.89886300  0.83141200  1
  H  H37  1  0.29374200  0.88991600  0.86989100  1
  H  H38  1  0.56355900  0.13270500  0.16722100  1
  H  H39  1  0.68879600  0.11829600  0.17796700  1
  H  H40  1  0.61599400  0.08556600  0.11991300  1
  C  C1  1  0.45200400  0.66091900  0.49439000  1
  C  C2  1  0.55933700  0.34164600  0.50799900  1
  C  C3  1  0.50578800  0.50138400  0.59604100  1
  C  C4  1  0.50553900  0.50118700  0.40636700  1
  C  C5  1  0.46832800  0.57054700  0.82003400  1
  C  C6  1  0.52506200  0.42739000  0.18024300  1
  C  C7  1  0.54182300  0.43566900  0.82963800  1
  C  C8  1  0.48707400  0.57171300  0.17511900  1
  C  C9  1  0.42323000  0.49788100  0.71384500  1
  C  C10  1  0.43186800  0.47133700  0.26888400  1
  C  C11  1  0.42335600  0.49693700  0.66394400  1
  C  C12  1  0.43135700  0.47219100  0.31873700  1
  C  C13  1  0.58778000  0.50682900  0.68476500  1
  C  C14  1  0.57989900  0.52924800  0.33734300  1
  C  C15  1  0.58754900  0.50663300  0.73466000  1
  C  C16  1  0.57955800  0.52937100  0.28737800  1
  C  C17  1  0.50529200  0.50247900  0.74929900  1
  C  C18  1  0.50577000  0.50014300  0.25312200  1
  C  C19  1  0.50479600  0.50318000  0.90046900  1
  C  C20  1  0.50606200  0.49939800  0.10201700  1
  C  C21  1  0.46789100  0.57221700  0.87047800  1
  C  C22  1  0.52612800  0.42585400  0.12988400  1
  C  C23  1  0.43116500  0.64142100  0.89131600  1
  C  C24  1  0.54663400  0.35231400  0.10700700  1
  C  C25  1  0.54158600  0.43473800  0.87959100  1
  C  C26  1  0.48622900  0.57238700  0.12503300  1
  C  C27  1  0.50566100  0.50168300  0.64911500  1
  C  C28  1  0.50558200  0.50091200  0.35328300  1
  C  C29  1  0.48023600  0.57381000  0.02368100  1
  C  C30  1  0.53757300  0.43061400  0.97968400  1
  C  C31  1  0.53087300  0.42794800  0.02935800  1
  C  C32  1  0.47300400  0.57275100  0.97225100  1
  C  C33  1  0.50595500  0.50041400  0.05163400  1
  C  C34  1  0.50533200  0.50227000  0.95090800  1
  C  C35  1  0.46378800  0.64715000  0.04810900  1
  C  C36  1  0.57734300  0.36350700  0.95819600  1
  C  C37  1  0.46683400  0.64621600  0.09810400  1
  C  C38  1  0.57921200  0.36576600  0.90882200  1
  C  C39  1  0.43243000  0.64039900  0.94145900  1
  C  C40  1  0.54701900  0.35376800  0.05707100  1
  C  C41  1  0.42175100  0.75040300  0.49049900  1
  C  C42  1  0.58959100  0.25216200  0.51163400  1
  C  C43  1  0.30031200  0.85851000  0.47495000  1
  C  C44  1  0.71103000  0.14405900  0.52638700  1
  C  C45  1  0.32840600  0.77500300  0.47861600  1
  C  C46  1  0.68293500  0.22756500  0.52304500  1
  C  C47  1  0.48650200  0.81022200  0.49867300  1
  C  C48  1  0.52484200  0.19234300  0.50356000  1
  C  C49  1  0.45894800  0.89569300  0.49497300  1
  C  C50  1  0.55239600  0.10687400  0.50670600  1
  C  C51  1  0.36462800  0.91813600  0.48300600  1
  C  C52  1  0.64671600  0.08443200  0.51835300  1
  C  C53  1  0.52218300  0.95906000  0.50281700  1
  C  C54  1  0.48916100  0.04350600  0.49867800  1
  C  C55  1  0.39349600  0.06248200  0.48648300  1
  C  C56  1  0.61784800  0.94008500  0.51462800  1
  C  C57  1  0.33289500  0.00063100  0.47884600  1
  C  C58  1  0.67844800  0.00193700  0.52215300  1
  C  C59  1  0.85684800  0.63002300  0.57611100  1
  C  C60  1  0.15452400  0.37246200  0.42635000  1
  C  C61  1  0.76617000  0.60976000  0.56444600  1
  C  C62  1  0.24517900  0.39278800  0.43797500  1
  C  C63  1  0.79981400  0.51103700  0.50741600  1
  C  C64  1  0.21155000  0.49147600  0.49503000  1
  C  C65  1  0.89307000  0.52958300  0.51797600  1
  C  C66  1  0.11831900  0.47286100  0.48451300  1
  C  C67  1  0.92006500  0.59012400  0.55296300  1
  C  C68  1  0.09132700  0.41231100  0.44953100  1
  C  C69  1  0.95960300  0.49004700  0.49491700  1
  C  C70  1  0.05180400  0.51235300  0.50760100  1
  C  C71  1  0.07525200  0.57367600  0.54313600  1
  C  C72  1  0.93617500  0.42867000  0.45941500  1
  C  C73  1  0.01014000  0.61160700  0.56525300  1
  C  C74  1  0.00127800  0.39075800  0.43728600  1
  C  C75  1  0.39667500  0.78828800  0.87673000  1
  C  C76  1  0.33408100  0.85520400  0.84630300  1
  C  C77  1  0.62524300  0.21728900  0.12719000  1
  C  C78  1  0.62328200  0.13307800  0.14949600  1
  N  N1  1  0.50508800  0.50284500  0.80085500  1
  N  N2  1  0.50585600  0.49976000  0.20159300  1
  N  N3  1  0.73934300  0.55100600  0.53055300  1
  N  N4  1  0.27199900  0.45155500  0.47186000  1
  O  O1  1  0.38829900  0.60643400  0.48627100  1
  O  O2  1  0.62303900  0.39613000  0.51593300  1
  O  O3  1  0.54133300  0.63884300  0.50574200  1
  O  O4  1  0.47000900  0.36372200  0.49684800  1
  O  O5  1  0.42918800  0.48532200  0.56373100  1
  O  O6  1  0.58202800  0.51762800  0.43865800  1
  O  O7  1  0.58240300  0.51735300  0.58299800  1
  O  O8  1  0.42905900  0.48483200  0.41942700  1
  O  O9  1  0.43421000  0.63664900  0.78975100  1
  O  O10  1  0.54460200  0.35754600  0.20875900  1
  O  O11  1  0.46788600  0.64278600  0.19765300  1
  O  O12  1  0.57728100  0.36879500  0.80923000  1
  O  O13  1  0.39000700  0.70786100  0.86246600  1
  O  O14  1  0.45742000  0.80726300  0.91216700  1
  O  O15  1  0.56155500  0.27885800  0.13256100  1
  O  O16  1  0.68797900  0.23140900  0.10732900  1
