data_DB0-m2_o12_o28_f0_pcu.sym.4_repeat
_audit_creation_date              2024-02-23
_audit_creation_method            'Materials Studio'
_symmetry_space_group_name_H-M    'P1'
_symmetry_Int_Tables_number       1
_symmetry_cell_setting            triclinic
loop_
_symmetry_equiv_pos_as_xyz
  x,y,z
_cell_length_a                    23.3388
_cell_length_b                    11.1349
_cell_length_c                    9.6215
_cell_angle_alpha                 111.9563
_cell_angle_beta                  99.6068
_cell_angle_gamma                 90.0158
loop_
_atom_site_label
_atom_site_type_symbol
_atom_site_fract_x
_atom_site_fract_y
_atom_site_fract_z
_atom_site_U_iso_or_equiv
_atom_site_adp_type
_atom_site_occupancy
O1     O     0.50821   0.33497   0.58421   0.00000  Uiso   1.00
O2     O     0.49168   0.66285   0.41515   0.00000  Uiso   1.00
O3     O     0.48710   0.29249   0.32827   0.00000  Uiso   1.00
O4     O     0.51259   0.70558   0.67293   0.00000  Uiso   1.00
C1     C     0.49699   0.25411   0.44212   0.00000  Uiso   1.00
C2     C     0.50286   0.74361   0.55733   0.00000  Uiso   1.00
O5     O     0.42524   0.52256   0.62821   0.00000  Uiso   1.00
O6     O     0.57492   0.48310   0.37524   0.00000  Uiso   1.00
O7     O     0.40801   0.47960   0.37070   0.00000  Uiso   1.00
O8     O     0.59190   0.52664   0.63192   0.00000  Uiso   1.00
C3     C     0.39008   0.49820   0.49835   0.00000  Uiso   1.00
C4     C     0.61060   0.50306   0.50377   0.00000  Uiso   1.00
Cu1    Cu    0.50977   0.52425   0.65003   0.00000  Uiso   1.00
Cu2    Cu    0.49029   0.47269   0.35062   0.00000  Uiso   1.00
C5     C     0.87815   0.58312   0.45663   0.00000  Uiso   1.00
C6     C     0.12203   0.41651   0.54292   0.00000  Uiso   1.00
N1     N     0.85318   0.50069   0.50458   0.00000  Uiso   1.00
N2     N     0.14731   0.49940   0.49569   0.00000  Uiso   1.00
C7     C     0.88435   0.41614   0.55011   0.00000  Uiso   1.00
C8     C     0.11572   0.58379   0.45004   0.00000  Uiso   1.00
C9     C     0.94433   0.41358   0.55057   0.00000  Uiso   1.00
C10    C     0.05573   0.58617   0.44949   0.00000  Uiso   1.00
C11    C     0.97045   0.49912   0.50162   0.00000  Uiso   1.00
C12    C     0.02965   0.50086   0.49892   0.00000  Uiso   1.00
C13    C     0.93699   0.58326   0.45433   0.00000  Uiso   1.00
C14    C     0.06310   0.41645   0.54563   0.00000  Uiso   1.00
C15    C     0.97887   0.32836   0.59754   0.00000  Uiso   1.00
C16    C     0.02109   0.67165   0.40258   0.00000  Uiso   1.00
C17    C     0.03770   0.33118   0.59445   0.00000  Uiso   1.00
C18    C     0.96225   0.66866   0.40575   0.00000  Uiso   1.00
O9     O     0.84566   0.66752   0.41448   0.00000  Uiso   1.00
O10    O     0.15439   0.33141   0.58408   0.00000  Uiso   1.00
O11    O     0.85592   0.33246   0.58968   0.00000  Uiso   1.00
O12    O     0.14385   0.66748   0.41015   0.00000  Uiso   1.00
H1     H     0.06404   0.26507   0.63093   0.00000  Uiso   1.00
H2     H     0.93562   0.73440   0.36915   0.00000  Uiso   1.00
C19    C     0.24750   0.51346   0.62736   0.00000  Uiso   1.00
C20    C     0.75391   0.48742   0.37346   0.00000  Uiso   1.00
H3     H     0.23220   0.52659   0.73189   0.00000  Uiso   1.00
H4     H     0.76966   0.47330   0.26942   0.00000  Uiso   1.00
C21    C     0.30650   0.51313   0.62774   0.00000  Uiso   1.00
C22    C     0.69485   0.48817   0.37281   0.00000  Uiso   1.00
H5     H     0.33623   0.52468   0.73109   0.00000  Uiso   1.00
H6     H     0.66597   0.47723   0.26774   0.00000  Uiso   1.00
C23    C     0.32760   0.49846   0.49729   0.00000  Uiso   1.00
C24    C     0.67386   0.50336   0.50447   0.00000  Uiso   1.00
C25    C     0.28899   0.48327   0.36521   0.00000  Uiso   1.00
C26    C     0.71268   0.51722   0.63597   0.00000  Uiso   1.00
H7     H     0.30473   0.47079   0.26157   0.00000  Uiso   1.00
H8     H     0.69823   0.52994   0.74136   0.00000  Uiso   1.00
C27    C     0.22977   0.48389   0.36456   0.00000  Uiso   1.00
C28    C     0.77161   0.51554   0.63555   0.00000  Uiso   1.00
H9     H     0.19975   0.46947   0.26003   0.00000  Uiso   1.00
H10    H     0.80132   0.52754   0.73940   0.00000  Uiso   1.00
C29    C     0.20872   0.49889   0.49584   0.00000  Uiso   1.00
C30    C     0.79234   0.50096   0.50453   0.00000  Uiso   1.00
H11    H     0.49109   0.86334   0.36232   0.00000  Uiso   1.00
H12    H     0.50579   0.13639   0.63437   0.00000  Uiso   1.00
C31    C     0.49462   0.11436   0.40607   0.00000  Uiso   1.00
C32    C     0.50418   0.88397   0.59201   0.00000  Uiso   1.00
C33    C     0.49988   0.06948   0.51689   0.00000  Uiso   1.00
C34    C     0.49759   0.92931   0.48036   0.00000  Uiso   1.00
H13    H     0.51098   0.95071   0.71063   0.00000  Uiso   1.00
H14    H     0.48812   0.04661   0.28776   0.00000  Uiso   1.00
H15    H     0.46097   0.42087   0.84056   0.00000  Uiso   1.00
H16    H     0.53831   0.57843   0.16604   0.00000  Uiso   1.00
N3     N     0.47492   0.43786   0.12775   0.00000  Uiso   1.00
N4     N     0.52461   0.55986   0.87319   0.00000  Uiso   1.00
C35    C     0.50603   0.50535   0.08196   0.00000  Uiso   1.00
C36    C     0.49530   0.48971   0.92038   0.00000  Uiso   1.00
H17    H     0.55656   0.62435   0.95165   0.00000  Uiso   1.00
H18    H     0.44662   0.36456   0.04651   0.00000  Uiso   1.00
C37    C     0.95554   0.23274   0.65299   0.00000  Uiso   1.00
H19    H     0.92346   0.16106   0.56087   0.00000  Uiso   1.00
H20    H     0.99107   0.17798   0.68704   0.00000  Uiso   1.00
H21    H     0.93604   0.28449   0.75505   0.00000  Uiso   1.00
C38    C     0.04413   0.76747   0.34646   0.00000  Uiso   1.00
H22    H     0.07613   0.83940   0.43827   0.00000  Uiso   1.00
H23    H     0.06362   0.71611   0.24431   0.00000  Uiso   1.00
H24    H     0.00847   0.82202   0.31236   0.00000  Uiso   1.00
