# generated using pymatgen
data_Fe2H13C34IO16
_symmetry_space_group_name_H-M   'P 1'
_cell_length_a   13.46893700
_cell_length_b   14.54074900
_cell_length_c   13.17411900
_cell_angle_alpha   86.89026700
_cell_angle_beta   84.86687600
_cell_angle_gamma   113.33868400
_symmetry_Int_Tables_number   1
_chemical_formula_structural   Fe2H13C34IO16
_chemical_formula_sum   'Fe2 H13 C34 I1 O16'
_cell_volume   2348.14479730
_cell_formula_units_Z   1
loop_
 _symmetry_equiv_pos_site_id
 _symmetry_equiv_pos_as_xyz
  1  'x, y, z'
loop_
 _atom_site_type_symbol
 _atom_site_label
 _atom_site_symmetry_multiplicity
 _atom_site_fract_x
 _atom_site_fract_y
 _atom_site_fract_z
 _atom_site_occupancy
  Fe  Fe1  1  0.49997300  0.00500600  0.22935600  1
  Fe  Fe2  1  0.49556500  0.99928900  0.77601700  1
  H  H1  1  0.15925200  0.94907400  0.21657300  1
  H  H2  1  0.98853600  0.93891900  0.16943100  1
  H  H3  1  0.13752800  0.05249600  0.86181800  1
  H  H4  1  0.97221700  0.98204400  0.82668100  1
  H  H5  1  0.80558300  0.98755900  0.78497600  1
  H  H6  1  0.89142900  0.02384400  0.13777800  1
  H  H7  1  0.48931000  0.36177100  0.31677000  1
  H  H8  1  0.52489700  0.36703800  0.63574500  1
  H  H9  1  0.50889400  0.64939600  0.36852500  1
  H  H10  1  0.56248000  0.13712600  0.46963400  1
  H  H11  1  0.45489000  0.87343100  0.53250300  1
  H  H12  1  0.44090700  0.47923800  0.41503700  1
  H  H13  1  0.58543300  0.53429000  0.58690600  1
  C  C1  1  0.15489900  0.96968900  0.13757600  1
  C  C2  1  0.05765500  0.96712200  0.11096100  1
  C  C3  1  0.05014800  0.00051400  0.01274200  1
  C  C4  1  0.14068700  0.02774100  0.93952100  1
  C  C5  1  0.23663500  0.02274000  0.96398400  1
  C  C6  1  0.24578700  0.00035400  0.06603100  1
  C  C7  1  0.92017900  0.99360200  0.88714100  1
  C  C8  1  0.82390200  0.99539100  0.86304700  1
  C  C9  1  0.74758800  0.99961400  0.93740200  1
  C  C10  1  0.77037200  0.00664400  0.03880700  1
  C  C11  1  0.87129400  0.01182700  0.06091300  1
  C  C12  1  0.94606200  0.00269000  0.98635900  1
  C  C13  1  0.69216000  0.00996400  0.12379900  1
  C  C14  1  0.48157800  0.82485400  0.34431500  1
  C  C15  1  0.34970600  0.01382200  0.10323300  1
  C  C16  1  0.51065100  0.18677800  0.29697600  1
  C  C17  1  0.49793000  0.82327100  0.70692800  1
  C  C18  1  0.64380800  0.99106400  0.90387400  1
  C  C19  1  0.54222000  0.18732400  0.65815500  1
  C  C20  1  0.32164700  0.03173900  0.88004200  1
  C  C21  1  0.53147100  0.24747800  0.38353100  1
  C  C22  1  0.50986300  0.33234800  0.38518700  1
  C  C23  1  0.51509400  0.38017100  0.47369200  1
  C  C24  1  0.53182800  0.33659300  0.56378700  1
  C  C25  1  0.54710400  0.24787700  0.56320300  1
  C  C26  1  0.55241900  0.20711200  0.47165000  1
  C  C27  1  0.49154800  0.47086100  0.47114300  1
  C  C28  1  0.53186100  0.54224000  0.53399700  1
  C  C29  1  0.50253300  0.67708900  0.62222100  1
  C  C30  1  0.48095600  0.76215400  0.62085800  1
  C  C31  1  0.46570000  0.80379600  0.53088200  1
  C  C32  1  0.47759500  0.76510800  0.43953300  1
  C  C33  1  0.49669300  0.67823900  0.44027500  1
  C  C34  1  0.50715500  0.63252900  0.53213700  1
  I  I1  1  0.52138700  0.61562100  0.76477900  1
  O  O1  1  0.59684000  0.00740600  0.10619000  1
  O  O2  1  0.50543100  0.79940700  0.25424900  1
  O  O3  1  0.71654800  0.01263900  0.21814400  1
  O  O4  1  0.47216200  0.91071000  0.35307800  1
  O  O5  1  0.34940500  0.96236700  0.18836000  1
  O  O6  1  0.44036800  0.08808300  0.06212600  1
  O  O7  1  0.57764900  0.14402900  0.27089200  1
  O  O8  1  0.41082500  0.14846900  0.27326900  1
  O  O9  1  0.42510200  0.85927400  0.73430700  1
  O  O10  1  0.59868700  0.87168200  0.72520300  1
  O  O11  1  0.64450500  0.04713700  0.82186700  1
  O  O12  1  0.55392500  0.91331600  0.93999000  1
  O  O13  1  0.31645200  0.06423500  0.78665100  1
  O  O14  1  0.52352300  0.09220800  0.65110700  1
  O  O15  1  0.39295900  0.99331800  0.89615500  1
  O  O16  1  0.54253500  0.22261200  0.74777300  1
