# generated using pymatgen
data_FeH10C24(NO4)2
_symmetry_space_group_name_H-M   'P 1'
_cell_length_a   20.39311300
_cell_length_b   8.64000800
_cell_length_c   10.91132300
_cell_angle_alpha   77.56118500
_cell_angle_beta   96.71340600
_cell_angle_gamma   109.33267200
_symmetry_Int_Tables_number   1
_chemical_formula_structural   FeH10C24(NO4)2
_chemical_formula_sum   'Fe2 H20 C48 N4 O16'
_cell_volume   1769.37724205
_cell_formula_units_Z   2
loop_
 _symmetry_equiv_pos_site_id
 _symmetry_equiv_pos_as_xyz
  1  'x, y, z'
loop_
 _atom_site_type_symbol
 _atom_site_label
 _atom_site_symmetry_multiplicity
 _atom_site_fract_x
 _atom_site_fract_y
 _atom_site_fract_z
 _atom_site_occupancy
  Fe  Fe1  1  0.50525600  0.98672700  0.22265200  1
  Fe  Fe2  1  0.49476900  0.01346400  0.77707700  1
  H  H1  1  0.90094300  0.19257200  0.26019600  1
  H  H2  1  0.82082600  0.97231500  0.71633300  1
  H  H3  1  0.09903800  0.80716800  0.73980000  1
  H  H4  1  0.17916100  0.02744500  0.28365200  1
  H  H5  1  0.96767200  0.09757700  0.97198700  1
  H  H6  1  0.03230900  0.90212400  0.02802300  1
  H  H7  1  0.21879900  0.88039800  0.77906100  1
  H  H8  1  0.27779600  0.06029100  0.19076900  1
  H  H9  1  0.17622600  0.10697400  0.46634900  1
  H  H10  1  0.14861100  0.21407900  0.63902300  1
  H  H11  1  0.04087100  0.28699800  0.62726500  1
  H  H12  1  0.95924400  0.25458200  0.44228700  1
  H  H13  1  0.78118300  0.11950300  0.22086600  1
  H  H14  1  0.72220200  0.93958200  0.80916700  1
  H  H15  1  0.82375300  0.89275300  0.53364900  1
  H  H16  1  0.85136400  0.78563000  0.36098300  1
  H  H17  1  0.95910300  0.71270400  0.37274400  1
  H  H18  1  0.04073200  0.74512900  0.55771900  1
  H  H19  1  0.46385800  0.50117700  0.69446200  1
  H  H20  1  0.53617300  0.49892000  0.30523500  1
  C  C1  1  0.08234000  0.12153300  0.35847100  1
  C  C2  1  0.02315000  0.16248800  0.35176900  1
  C  C3  1  0.98867100  0.13072200  0.23888800  1
  C  C4  1  0.08323400  0.06667200  0.24906700  1
  C  C5  1  0.92685500  0.14960100  0.19980600  1
  C  C6  1  0.88838100  0.09918500  0.08466200  1
  C  C7  1  0.81763100  0.06946600  0.06159900  1
  C  C8  1  0.80138200  0.01981600  0.94934500  1
  C  C9  1  0.86175100  0.02153200  0.90369500  1
  C  C10  1  0.86526300  0.97824100  0.78168800  1
  C  C11  1  0.91674700  0.93306800  0.75092800  1
  C  C12  1  0.91764000  0.87819500  0.64152800  1
  C  C13  1  0.97682800  0.83723600  0.64823200  1
  C  C14  1  0.01130800  0.86901200  0.76110900  1
  C  C15  1  0.07312600  0.85014100  0.80018900  1
  C  C16  1  0.11160100  0.90058300  0.91532300  1
  C  C17  1  0.18235500  0.93035700  0.93836300  1
  C  C18  1  0.19860600  0.98000100  0.05061800  1
  C  C19  1  0.13823400  0.97823600  0.09629000  1
  C  C20  1  0.13472200  0.02151300  0.21830200  1
  C  C21  1  0.23235800  0.91789800  0.86931200  1
  C  C22  1  0.30075800  0.95562300  0.91897800  1
  C  C23  1  0.31641600  0.00680700  0.03606700  1
  C  C24  1  0.26523600  0.02179400  0.10081100  1
  C  C25  1  0.12891400  0.13895700  0.46044400  1
  C  C26  1  0.11322200  0.19909100  0.55738900  1
  C  C27  1  0.05236800  0.24027100  0.55075300  1
  C  C28  1  0.00637300  0.22211200  0.44699500  1
  C  C29  1  0.76762900  0.08199100  0.13061800  1
  C  C30  1  0.69923500  0.04432800  0.08092000  1
  C  C31  1  0.68358200  0.99313100  0.96383800  1
  C  C32  1  0.73475800  0.97807500  0.89912600  1
  C  C33  1  0.87106400  0.86076700  0.53955600  1
  C  C34  1  0.88675400  0.80062300  0.44261500  1
  C  C35  1  0.94760700  0.75943900  0.44925300  1
  C  C36  1  0.99360300  0.77760300  0.55301000  1
  C  C37  1  0.64395500  0.04961500  0.15520400  1
  C  C38  1  0.52138000  0.73088800  0.40932800  1
  C  C39  1  0.38537400  0.03843400  0.09886000  1
  C  C40  1  0.50695800  0.22956300  0.35283300  1
  C  C41  1  0.49307100  0.77052800  0.64690000  1
  C  C42  1  0.61463900  0.96160900  0.90100000  1
  C  C43  1  0.47866600  0.26925500  0.59038200  1
  C  C44  1  0.35603600  0.95043000  0.84464600  1
  C  C45  1  0.51658400  0.39539200  0.38047400  1
  C  C46  1  0.49750100  0.41562100  0.48865500  1
  C  C47  1  0.50253800  0.58450900  0.51104900  1
  C  C48  1  0.48345100  0.60471800  0.61923400  1
  N  N1  1  0.02560700  0.07188900  0.17572300  1
  N  N2  1  0.91541700  0.07213100  0.98643800  1
  N  N3  1  0.97437500  0.92785400  0.82427100  1
  N  N4  1  0.08456400  0.92760700  0.01355900  1
  O  O1  1  0.57856200  0.98917800  0.11766400  1
  O  O2  1  0.57650500  0.76639100  0.34457300  1
  O  O3  1  0.65964800  0.10481900  0.26136300  1
  O  O4  1  0.48151500  0.82647100  0.38274900  1
  O  O5  1  0.41488500  0.92085300  0.12222300  1
  O  O6  1  0.41230600  0.17211500  0.14906500  1
  O  O7  1  0.54266700  0.21620500  0.26453000  1
  O  O8  1  0.45487300  0.10093900  0.39928200  1
  O  O9  1  0.45735700  0.78385600  0.73520800  1
  O  O10  1  0.54515200  0.89917100  0.60046100  1
  O  O11  1  0.58516000  0.07924600  0.87764600  1
  O  O12  1  0.58769900  0.82798800  0.85072500  1
  O  O13  1  0.34034400  0.89536900  0.73842900  1
  O  O14  1  0.51854700  0.17371400  0.61698900  1
  O  O15  1  0.42142700  0.01080400  0.88220900  1
  O  O16  1  0.42352900  0.23370700  0.65511400  1
