# generated using pymatgen
data_Cu3H36C68S4(NO8)2
_symmetry_space_group_name_H-M   'P 1'
_cell_length_a   29.80134300
_cell_length_b   29.80134300
_cell_length_c   46.52850200
_cell_angle_alpha   90.00000000
_cell_angle_beta   90.00000000
_cell_angle_gamma   90.00000000
_symmetry_Int_Tables_number   1
_chemical_formula_structural   Cu3H36C68S4(NO8)2
_chemical_formula_sum   'Cu12 H144 C272 S16 N8 O64'
_cell_volume   41322.89527158
_cell_formula_units_Z   4
loop_
 _symmetry_equiv_pos_site_id
 _symmetry_equiv_pos_as_xyz
  1  'x, y, z'
loop_
 _atom_site_type_symbol
 _atom_site_label
 _atom_site_symmetry_multiplicity
 _atom_site_fract_x
 _atom_site_fract_y
 _atom_site_fract_z
 _atom_site_occupancy
  Cu  Cu1  1  0.00000000  0.45619600  0.50000000  1
  Cu  Cu2  1  0.54380400  0.00000000  0.50000000  1
  Cu  Cu3  1  0.00000000  0.54380400  0.50000000  1
  Cu  Cu4  1  0.45619600  0.00000000  0.50000000  1
  Cu  Cu5  1  0.50000000  0.95619600  0.00000000  1
  Cu  Cu6  1  0.04380400  0.50000000  0.00000000  1
  Cu  Cu7  1  0.50000000  0.04380400  0.00000000  1
  Cu  Cu8  1  0.95619600  0.50000000  0.00000000  1
  Cu  Cu9  1  0.50000000  0.50000000  0.52793700  1
  Cu  Cu10  1  0.50000000  0.50000000  0.47206300  1
  Cu  Cu11  1  0.00000000  0.00000000  0.02793700  1
  Cu  Cu12  1  0.00000000  0.00000000  0.97206300  1
  H  H1  1  0.07847700  0.42044000  0.77592200  1
  H  H2  1  0.57956000  0.07847700  0.77592200  1
  H  H3  1  0.92152300  0.57956000  0.77592200  1
  H  H4  1  0.42044000  0.92152300  0.77592200  1
  H  H5  1  0.07847700  0.57956000  0.22407800  1
  H  H6  1  0.57956000  0.92152300  0.22407800  1
  H  H7  1  0.92152300  0.42044000  0.22407800  1
  H  H8  1  0.42044000  0.07847700  0.22407800  1
  H  H9  1  0.57847700  0.92044000  0.27592200  1
  H  H10  1  0.07956000  0.57847700  0.27592200  1
  H  H11  1  0.42152300  0.07956000  0.27592200  1
  H  H12  1  0.92044000  0.42152300  0.27592200  1
  H  H13  1  0.57847700  0.07956000  0.72407800  1
  H  H14  1  0.07956000  0.42152300  0.72407800  1
  H  H15  1  0.42152300  0.92044000  0.72407800  1
  H  H16  1  0.92044000  0.57847700  0.72407800  1
  H  H17  1  0.00952500  0.57103500  0.64172400  1
  H  H18  1  0.42896500  0.00952500  0.64172400  1
  H  H19  1  0.99047500  0.42896500  0.64172400  1
  H  H20  1  0.57103500  0.99047500  0.64172400  1
  H  H21  1  0.00952500  0.42896500  0.35827600  1
  H  H22  1  0.42896500  0.99047500  0.35827600  1
  H  H23  1  0.99047500  0.57103500  0.35827600  1
  H  H24  1  0.57103500  0.00952500  0.35827600  1
  H  H25  1  0.50952500  0.07103500  0.14172400  1
  H  H26  1  0.92896500  0.50952500  0.14172400  1
  H  H27  1  0.49047500  0.92896500  0.14172400  1
  H  H28  1  0.07103500  0.49047500  0.14172400  1
  H  H29  1  0.50952500  0.92896500  0.85827600  1
  H  H30  1  0.92896500  0.49047500  0.85827600  1
  H  H31  1  0.49047500  0.07103500  0.85827600  1
  H  H32  1  0.07103500  0.50952500  0.85827600  1
  H  H33  1  0.00796400  0.57124200  0.58943100  1
  H  H34  1  0.42875800  0.00796400  0.58943100  1
  H  H35  1  0.99203600  0.42875800  0.58943100  1
  H  H36  1  0.57124200  0.99203600  0.58943100  1
  H  H37  1  0.00796400  0.42875900  0.41056900  1
  H  H38  1  0.42875800  0.99203600  0.41056900  1
  H  H39  1  0.99203600  0.57124200  0.41056900  1
  H  H40  1  0.57124100  0.00796400  0.41056900  1
  H  H41  1  0.50796400  0.07124200  0.08943100  1
  H  H42  1  0.92875800  0.50796400  0.08943100  1
  H  H43  1  0.49203600  0.92875800  0.08943100  1
  H  H44  1  0.07124200  0.49203600  0.08943100  1
  H  H45  1  0.50796400  0.92875800  0.91056900  1
  H  H46  1  0.92875800  0.49203600  0.91056900  1
  H  H47  1  0.49203600  0.07124200  0.91056900  1
  H  H48  1  0.07124200  0.50796400  0.91056900  1
  H  H49  1  0.63941400  0.54838800  0.46623700  1
  H  H50  1  0.45161200  0.63941400  0.46623700  1
  H  H51  1  0.36058600  0.45161200  0.46623700  1
  H  H52  1  0.54838800  0.36058600  0.46623700  1
  H  H53  1  0.63941400  0.45161200  0.53376300  1
  H  H54  1  0.45161200  0.36058600  0.53376300  1
  H  H55  1  0.36058600  0.54838800  0.53376300  1
  H  H56  1  0.54838800  0.63941400  0.53376300  1
  H  H57  1  0.13941400  0.04838800  0.96623700  1
  H  H58  1  0.95161200  0.13941400  0.96623700  1
  H  H59  1  0.86058600  0.95161200  0.96623700  1
  H  H60  1  0.04838800  0.86058600  0.96623700  1
  H  H61  1  0.13941400  0.95161200  0.03376300  1
  H  H62  1  0.95161200  0.86058600  0.03376300  1
  H  H63  1  0.86058600  0.04838800  0.03376300  1
  H  H64  1  0.04838800  0.13941400  0.03376300  1
  H  H65  1  0.70829200  0.42327000  0.55167700  1
  H  H66  1  0.57673000  0.70829200  0.55167700  1
  H  H67  1  0.29170800  0.57673000  0.55167700  1
  H  H68  1  0.42327000  0.29170800  0.55167700  1
  H  H69  1  0.70829200  0.57673000  0.44832300  1
  H  H70  1  0.57673000  0.29170800  0.44832300  1
  H  H71  1  0.29170800  0.42327000  0.44832300  1
  H  H72  1  0.42327000  0.70829200  0.44832300  1
  H  H73  1  0.20829200  0.92327000  0.05167700  1
  H  H74  1  0.07673000  0.20829200  0.05167700  1
  H  H75  1  0.79170800  0.07673000  0.05167700  1
  H  H76  1  0.92327000  0.79170800  0.05167700  1
  H  H77  1  0.20829200  0.07673000  0.94832300  1
  H  H78  1  0.07673000  0.79170800  0.94832300  1
  H  H79  1  0.79170800  0.92327000  0.94832300  1
  H  H80  1  0.92327000  0.20829200  0.94832300  1
  H  H81  1  0.86195900  0.44954100  0.53172300  1
  H  H82  1  0.55045900  0.86195900  0.53172300  1
  H  H83  1  0.13804100  0.55045900  0.53172300  1
  H  H84  1  0.44954100  0.13804100  0.53172300  1
  H  H85  1  0.86195900  0.55045900  0.46827700  1
  H  H86  1  0.55045900  0.13804100  0.46827700  1
  H  H87  1  0.13804100  0.44954100  0.46827700  1
  H  H88  1  0.44954100  0.86195900  0.46827700  1
  H  H89  1  0.36195900  0.94954100  0.03172300  1
  H  H90  1  0.05045900  0.36195900  0.03172300  1
  H  H91  1  0.63804100  0.05045900  0.03172300  1
  H  H92  1  0.94954100  0.63804100  0.03172300  1
  H  H93  1  0.36195900  0.05045900  0.96827700  1
  H  H94  1  0.05045900  0.63804100  0.96827700  1
  H  H95  1  0.63804100  0.94954100  0.96827700  1
  H  H96  1  0.94954100  0.36195900  0.96827700  1
  H  H97  1  0.82050600  0.33375700  0.54148800  1
  H  H98  1  0.80120500  0.37163200  0.51394500  1
  H  H99  1  0.76097900  0.34461300  0.53761400  1
  H  H100  1  0.66624300  0.82050600  0.54148800  1
  H  H101  1  0.62836800  0.80120500  0.51394500  1
  H  H102  1  0.65538700  0.76097900  0.53761400  1
  H  H103  1  0.17949400  0.66624300  0.54148800  1
  H  H104  1  0.19879500  0.62836800  0.51394500  1
  H  H105  1  0.23902100  0.65538700  0.53761400  1
  H  H106  1  0.33375700  0.17949400  0.54148800  1
  H  H107  1  0.37163200  0.19879600  0.51394500  1
  H  H108  1  0.34461300  0.23902100  0.53761400  1
  H  H109  1  0.82050600  0.66624300  0.45851200  1
  H  H110  1  0.80120500  0.62836800  0.48605500  1
  H  H111  1  0.76097900  0.65538700  0.46238600  1
  H  H112  1  0.66624300  0.17949400  0.45851200  1
  H  H113  1  0.62836800  0.19879500  0.48605500  1
  H  H114  1  0.65538700  0.23902100  0.46238600  1
  H  H115  1  0.17949400  0.33375700  0.45851200  1
  H  H116  1  0.19879500  0.37163200  0.48605500  1
  H  H117  1  0.23902100  0.34461300  0.46238600  1
  H  H118  1  0.33375700  0.82050600  0.45851200  1
  H  H119  1  0.37163200  0.80120500  0.48605500  1
  H  H120  1  0.34461300  0.76097900  0.46238600  1
  H  H121  1  0.32050600  0.83375700  0.04148800  1
  H  H122  1  0.30120500  0.87163200  0.01394500  1
  H  H123  1  0.26097900  0.84461300  0.03761400  1
  H  H124  1  0.16624300  0.32050700  0.04148800  1
  H  H125  1  0.12836800  0.30120500  0.01394500  1
  H  H126  1  0.15538700  0.26097900  0.03761400  1
  H  H127  1  0.67949400  0.16624300  0.04148800  1
  H  H128  1  0.69879500  0.12836800  0.01394500  1
  H  H129  1  0.73902100  0.15538700  0.03761400  1
  H  H130  1  0.83375700  0.67949400  0.04148800  1
  H  H131  1  0.87163200  0.69879600  0.01394500  1
  H  H132  1  0.84461300  0.73902100  0.03761400  1
  H  H133  1  0.32050600  0.16624300  0.95851200  1
  H  H134  1  0.30120500  0.12836800  0.98605500  1
  H  H135  1  0.26097900  0.15538700  0.96238600  1
  H  H136  1  0.16624300  0.67949400  0.95851200  1
  H  H137  1  0.12836800  0.69879600  0.98605500  1
  H  H138  1  0.15538700  0.73902100  0.96238600  1
  H  H139  1  0.67949400  0.83375700  0.95851200  1
  H  H140  1  0.69879600  0.87163200  0.98605500  1
  H  H141  1  0.73902100  0.84461300  0.96238600  1
  H  H142  1  0.83375700  0.32050700  0.95851200  1
  H  H143  1  0.87163200  0.30120500  0.98605500  1
  H  H144  1  0.84461300  0.26097900  0.96238600  1
  C  C1  1  0.91499900  0.50000000  0.50000000  1
  C  C2  1  0.50000000  0.91499900  0.50000000  1
  C  C3  1  0.08500100  0.50000000  0.50000000  1
  C  C4  1  0.50000000  0.08500100  0.50000000  1
  C  C5  1  0.41499900  0.00000000  0.00000000  1
  C  C6  1  0.00000000  0.41499900  0.00000000  1
  C  C7  1  0.58500100  0.00000000  0.00000000  1
  C  C8  1  0.00000000  0.58500100  0.00000000  1
  C  C9  1  0.00000000  0.50000000  0.55441900  1
  C  C10  1  0.50000000  0.00000000  0.55441900  1
  C  C11  1  0.00000000  0.50000000  0.44558100  1
  C  C12  1  0.50000000  0.00000000  0.44558100  1
  C  C13  1  0.50000000  0.00000000  0.05441900  1
  C  C14  1  0.00000000  0.50000000  0.05441900  1
  C  C15  1  0.50000000  0.00000000  0.94558100  1
  C  C16  1  0.00000000  0.50000000  0.94558100  1
  C  C17  1  0.97316000  0.52875700  0.80942400  1
  C  C18  1  0.47124300  0.97316000  0.80942400  1
  C  C19  1  0.02684000  0.47124300  0.80942400  1
  C  C20  1  0.52875700  0.02684000  0.80942400  1
  C  C21  1  0.97316000  0.47124300  0.19057600  1
  C  C22  1  0.47124300  0.02684000  0.19057600  1
  C  C23  1  0.02684000  0.52875700  0.19057600  1
  C  C24  1  0.52875700  0.97316000  0.19057600  1
  C  C25  1  0.47316000  0.02875700  0.30942400  1
  C  C26  1  0.97124300  0.47316000  0.30942400  1
  C  C27  1  0.52684000  0.97124300  0.30942400  1
  C  C28  1  0.02875700  0.52684000  0.30942400  1
  C  C29  1  0.47316000  0.97124300  0.69057600  1
  C  C30  1  0.97124300  0.52684000  0.69057600  1
  C  C31  1  0.52684000  0.02875700  0.69057600  1
  C  C32  1  0.02875700  0.47316000  0.69057600  1
  C  C33  1  0.02780500  0.47147500  0.77971700  1
  C  C34  1  0.52852500  0.02780500  0.77971700  1
  C  C35  1  0.97219500  0.52852500  0.77971700  1
  C  C36  1  0.47147500  0.97219500  0.77971700  1
  C  C37  1  0.02780500  0.52852500  0.22028300  1
  C  C38  1  0.52852500  0.97219500  0.22028300  1
  C  C39  1  0.97219500  0.47147500  0.22028300  1
  C  C40  1  0.47147500  0.02780500  0.22028300  1
  C  C41  1  0.52780500  0.97147500  0.27971700  1
  C  C42  1  0.02852500  0.52780500  0.27971700  1
  C  C43  1  0.47219500  0.02852500  0.27971700  1
  C  C44  1  0.97147500  0.47219500  0.27971700  1
  C  C45  1  0.52780500  0.02852500  0.72028300  1
  C  C46  1  0.02852500  0.47219500  0.72028300  1
  C  C47  1  0.47219500  0.97147500  0.72028300  1
  C  C48  1  0.97147500  0.52780500  0.72028300  1
  C  C49  1  0.00000000  0.50000000  0.76482200  1
  C  C50  1  0.50000000  0.00000000  0.76482200  1
  C  C51  1  0.00000000  0.50000000  0.23517800  1
  C  C52  1  0.50000000  0.00000000  0.23517800  1
  C  C53  1  0.50000000  0.00000000  0.26482200  1
  C  C54  1  0.00000000  0.50000000  0.26482200  1
  C  C55  1  0.50000000  0.00000000  0.73517800  1
  C  C56  1  0.00000000  0.50000000  0.73517800  1
  C  C57  1  0.05618500  0.44314400  0.76480100  1
  C  C58  1  0.55685600  0.05618500  0.76480100  1
  C  C59  1  0.94381500  0.55685600  0.76480100  1
  C  C60  1  0.44314400  0.94381500  0.76480100  1
  C  C61  1  0.05618500  0.55685600  0.23520000  1
  C  C62  1  0.55685600  0.94381500  0.23520000  1
  C  C63  1  0.94381500  0.44314400  0.23519900  1
  C  C64  1  0.44314400  0.05618500  0.23520000  1
  C  C65  1  0.55618500  0.94314400  0.26480100  1
  C  C66  1  0.05685600  0.55618500  0.26480100  1
  C  C67  1  0.44381500  0.05685600  0.26480100  1
  C  C68  1  0.94314400  0.44381500  0.26480100  1
  C  C69  1  0.55618500  0.05685600  0.73520000  1
  C  C70  1  0.05685600  0.44381500  0.73520000  1
  C  C71  1  0.44381500  0.94314400  0.73520000  1
  C  C72  1  0.94314400  0.55618500  0.73519900  1
  C  C73  1  0.00485000  0.53973300  0.63037600  1
  C  C74  1  0.46026700  0.00485000  0.63037600  1
  C  C75  1  0.99515000  0.46026700  0.63037600  1
  C  C76  1  0.53973300  0.99515000  0.63037600  1
  C  C77  1  0.00485000  0.46026700  0.36962400  1
  C  C78  1  0.46026700  0.99515000  0.36962400  1
  C  C79  1  0.99515000  0.53973300  0.36962400  1
  C  C80  1  0.53973300  0.00485000  0.36962400  1
  C  C81  1  0.50485000  0.03973300  0.13037600  1
  C  C82  1  0.96026700  0.50485000  0.13037600  1
  C  C83  1  0.49515000  0.96026700  0.13037600  1
  C  C84  1  0.03973300  0.49515000  0.13037600  1
  C  C85  1  0.50485000  0.96026700  0.86962400  1
  C  C86  1  0.96026700  0.49515000  0.86962400  1
  C  C87  1  0.49515000  0.03973300  0.86962400  1
  C  C88  1  0.03973300  0.50485000  0.86962400  1
  C  C89  1  0.00411300  0.53982300  0.60076000  1
  C  C90  1  0.46017700  0.00411300  0.60076000  1
  C  C91  1  0.99588700  0.46017700  0.60076000  1
  C  C92  1  0.53982300  0.99588700  0.60076000  1
  C  C93  1  0.00411300  0.46017700  0.39924000  1
  C  C94  1  0.46017700  0.99588700  0.39924000  1
  C  C95  1  0.99588700  0.53982300  0.39924000  1
  C  C96  1  0.53982300  0.00411300  0.39924000  1
  C  C97  1  0.50411300  0.03982300  0.10076000  1
  C  C98  1  0.96017700  0.50411300  0.10076000  1
  C  C99  1  0.49588700  0.96017700  0.10076000  1
  C  C100  1  0.03982300  0.49588700  0.10076000  1
  C  C101  1  0.50411300  0.96017700  0.89924000  1
  C  C102  1  0.96017700  0.49588700  0.89924000  1
  C  C103  1  0.49588700  0.03982300  0.89924000  1
  C  C104  1  0.03982300  0.50411300  0.89924000  1
  C  C105  1  0.00000000  0.50000000  0.58584100  1
  C  C106  1  0.50000000  0.00000000  0.58584100  1
  C  C107  1  0.00000000  0.50000000  0.41415900  1
  C  C108  1  0.50000000  0.00000000  0.41415900  1
  C  C109  1  0.50000000  0.00000000  0.08584100  1
  C  C110  1  0.00000000  0.50000000  0.08584100  1
  C  C111  1  0.50000000  0.00000000  0.91415900  1
  C  C112  1  0.00000000  0.50000000  0.91415900  1
  C  C113  1  0.00000000  0.50000000  0.64539000  1
  C  C114  1  0.50000000  0.00000000  0.64539000  1
  C  C115  1  0.00000000  0.50000000  0.35461000  1
  C  C116  1  0.50000000  0.00000000  0.35461000  1
  C  C117  1  0.50000000  0.00000000  0.14539000  1
  C  C118  1  0.00000000  0.50000000  0.14539000  1
  C  C119  1  0.50000000  0.00000000  0.85461000  1
  C  C120  1  0.00000000  0.50000000  0.85461000  1
  C  C121  1  0.65725100  0.52682100  0.48100000  1
  C  C122  1  0.47317900  0.65725100  0.48100000  1
  C  C123  1  0.34274900  0.47317900  0.48100000  1
  C  C124  1  0.52682100  0.34274900  0.48100000  1
  C  C125  1  0.65725100  0.47317900  0.51900000  1
  C  C126  1  0.47317900  0.34274900  0.51900000  1
  C  C127  1  0.34274900  0.52682100  0.51900000  1
  C  C128  1  0.52682100  0.65725100  0.51900000  1
  C  C129  1  0.15725100  0.02682100  0.98100000  1
  C  C130  1  0.97317900  0.15725100  0.98100000  1
  C  C131  1  0.84274900  0.97317900  0.98100000  1
  C  C132  1  0.02682100  0.84274900  0.98100000  1
  C  C133  1  0.15725100  0.97317900  0.01900000  1
  C  C134  1  0.97317900  0.84275000  0.01900000  1
  C  C135  1  0.84274900  0.02682200  0.01900000  1
  C  C136  1  0.02682100  0.15725100  0.01900000  1
  C  C137  1  0.63394600  0.50000000  0.50000000  1
  C  C138  1  0.50000000  0.63394600  0.50000000  1
  C  C139  1  0.36605400  0.50000000  0.50000000  1
  C  C140  1  0.50000000  0.36605400  0.50000000  1
  C  C141  1  0.13394600  0.00000000  0.00000000  1
  C  C142  1  0.00000000  0.13394600  0.00000000  1
  C  C143  1  0.86605400  0.00000000  0.00000000  1
  C  C144  1  0.00000000  0.86605400  0.00000000  1
  C  C145  1  0.70352800  0.47273400  0.51867100  1
  C  C146  1  0.52726600  0.70352800  0.51867100  1
  C  C147  1  0.29647200  0.52726600  0.51867100  1
  C  C148  1  0.47273400  0.29647200  0.51867100  1
  C  C149  1  0.70352800  0.52726600  0.48132900  1
  C  C150  1  0.52726600  0.29647200  0.48132900  1
  C  C151  1  0.29647200  0.47273400  0.48132900  1
  C  C152  1  0.47273400  0.70352800  0.48132900  1
  C  C153  1  0.20352800  0.97273400  0.01867100  1
  C  C154  1  0.02726600  0.20352900  0.01867100  1
  C  C155  1  0.79647200  0.02726600  0.01867100  1
  C  C156  1  0.97273400  0.79647200  0.01867100  1
  C  C157  1  0.20352800  0.02726600  0.98132900  1
  C  C158  1  0.02726600  0.79647200  0.98132900  1
  C  C159  1  0.79647200  0.97273400  0.98132900  1
  C  C160  1  0.97273400  0.20352900  0.98132900  1
  C  C161  1  0.72681500  0.50000000  0.50000000  1
  C  C162  1  0.50000000  0.72681500  0.50000000  1
  C  C163  1  0.27318500  0.50000000  0.50000000  1
  C  C164  1  0.50000000  0.27318500  0.50000000  1
  C  C165  1  0.22681500  0.00000000  0.00000000  1
  C  C166  1  0.00000000  0.22681500  0.00000000  1
  C  C167  1  0.77318500  0.00000000  0.00000000  1
  C  C168  1  0.00000000  0.77318500  0.00000000  1
  C  C169  1  0.72643600  0.44484000  0.53706100  1
  C  C170  1  0.55516000  0.72643600  0.53706100  1
  C  C171  1  0.27356400  0.55516000  0.53706100  1
  C  C172  1  0.44484000  0.27356400  0.53706100  1
  C  C173  1  0.72643600  0.55516000  0.46293900  1
  C  C174  1  0.55516000  0.27356400  0.46293900  1
  C  C175  1  0.27356400  0.44484000  0.46293900  1
  C  C176  1  0.44484000  0.72643600  0.46293900  1
  C  C177  1  0.22643600  0.94484000  0.03706100  1
  C  C178  1  0.05516000  0.22643600  0.03706100  1
  C  C179  1  0.77356400  0.05516000  0.03706100  1
  C  C180  1  0.94484000  0.77356400  0.03706100  1
  C  C181  1  0.22643600  0.05516000  0.96293900  1
  C  C182  1  0.05516000  0.77356400  0.96293900  1
  C  C183  1  0.77356400  0.94484000  0.96293900  1
  C  C184  1  0.94484000  0.22643600  0.96293900  1
  C  C185  1  0.77257600  0.44372200  0.53685700  1
  C  C186  1  0.55627800  0.77257600  0.53685700  1
  C  C187  1  0.22742400  0.55627800  0.53685700  1
  C  C188  1  0.44372200  0.22742400  0.53685700  1
  C  C189  1  0.77257600  0.55627800  0.46314300  1
  C  C190  1  0.55627800  0.22742400  0.46314300  1
  C  C191  1  0.22742400  0.44372200  0.46314300  1
  C  C192  1  0.44372200  0.77257600  0.46314300  1
  C  C193  1  0.27257600  0.94372200  0.03685700  1
  C  C194  1  0.05627800  0.27257600  0.03685700  1
  C  C195  1  0.72742400  0.05627800  0.03685700  1
  C  C196  1  0.94372200  0.72742400  0.03685700  1
  C  C197  1  0.27257600  0.05627800  0.96314300  1
  C  C198  1  0.05627800  0.72742400  0.96314300  1
  C  C199  1  0.72742400  0.94372200  0.96314300  1
  C  C200  1  0.94372200  0.27257600  0.96314300  1
  C  C201  1  0.79635500  0.47154100  0.51831900  1
  C  C202  1  0.52845900  0.79635500  0.51831900  1
  C  C203  1  0.20364500  0.52845900  0.51831900  1
  C  C204  1  0.47154100  0.20364600  0.51831900  1
  C  C205  1  0.79635500  0.52845900  0.48168100  1
  C  C206  1  0.52845900  0.20364600  0.48168100  1
  C  C207  1  0.20364500  0.47154100  0.48168100  1
  C  C208  1  0.47154100  0.79635500  0.48168100  1
  C  C209  1  0.29635500  0.97154100  0.01831900  1
  C  C210  1  0.02845900  0.29635500  0.01831900  1
  C  C211  1  0.70364600  0.02845900  0.01831900  1
  C  C212  1  0.97154100  0.70364600  0.01831900  1
  C  C213  1  0.29635500  0.02845900  0.98168100  1
  C  C214  1  0.02845900  0.70364600  0.98168100  1
  C  C215  1  0.70364500  0.97154100  0.98168100  1
  C  C216  1  0.97154100  0.29635500  0.98168100  1
  C  C217  1  0.77322100  0.50000000  0.50000000  1
  C  C218  1  0.50000000  0.77322100  0.50000000  1
  C  C219  1  0.22677900  0.50000000  0.50000000  1
  C  C220  1  0.50000000  0.22677900  0.50000000  1
  C  C221  1  0.27322100  0.00000000  0.00000000  1
  C  C222  1  0.00000000  0.27322100  0.00000000  1
  C  C223  1  0.72677900  0.00000000  0.00000000  1
  C  C224  1  0.00000000  0.72678000  0.00000000  1
  C  C225  1  0.84283100  0.47122000  0.51783300  1
  C  C226  1  0.52878000  0.84283100  0.51783300  1
  C  C227  1  0.15716900  0.52878000  0.51783300  1
  C  C228  1  0.47122000  0.15716900  0.51783300  1
  C  C229  1  0.84283100  0.52878000  0.48216700  1
  C  C230  1  0.52878000  0.15716900  0.48216700  1
  C  C231  1  0.15716900  0.47122000  0.48216700  1
  C  C232  1  0.47122000  0.84283100  0.48216700  1
  C  C233  1  0.34283100  0.97122000  0.01783300  1
  C  C234  1  0.02878000  0.34283200  0.01783300  1
  C  C235  1  0.65716900  0.02878000  0.01783300  1
  C  C236  1  0.97122000  0.65716900  0.01783300  1
  C  C237  1  0.34283100  0.02878000  0.98216700  1
  C  C238  1  0.02878000  0.65716900  0.98216700  1
  C  C239  1  0.65716900  0.97122000  0.98216700  1
  C  C240  1  0.97122000  0.34283200  0.98216700  1
  C  C241  1  0.86590200  0.50000000  0.50000000  1
  C  C242  1  0.50000000  0.86590200  0.50000000  1
  C  C243  1  0.13409800  0.50000000  0.50000000  1
  C  C244  1  0.50000000  0.13409800  0.50000000  1
  C  C245  1  0.36590200  0.00000000  0.00000000  1
  C  C246  1  0.00000000  0.36590200  0.00000000  1
  C  C247  1  0.63409800  0.00000000  0.00000000  1
  C  C248  1  0.00000000  0.63409800  0.00000000  1
  C  C249  1  0.50000000  0.58487300  0.50000000  1
  C  C250  1  0.41512700  0.50000000  0.50000000  1
  C  C251  1  0.50000000  0.41512700  0.50000000  1
  C  C252  1  0.58487300  0.50000000  0.50000000  1
  C  C253  1  0.00000000  0.08487300  0.00000000  1
  C  C254  1  0.91512700  0.00000000  0.00000000  1
  C  C255  1  0.00000000  0.91512700  0.00000000  1
  C  C256  1  0.08487300  0.00000000  0.00000000  1
  C  C257  1  0.79499700  0.35951400  0.53612400  1
  C  C258  1  0.64048600  0.79499700  0.53612400  1
  C  C259  1  0.20500300  0.64048600  0.53612400  1
  C  C260  1  0.35951400  0.20500300  0.53612400  1
  C  C261  1  0.79499700  0.64048600  0.46387600  1
  C  C262  1  0.64048600  0.20500300  0.46387600  1
  C  C263  1  0.20500300  0.35951400  0.46387600  1
  C  C264  1  0.35951400  0.79499700  0.46387600  1
  C  C265  1  0.29499700  0.85951400  0.03612400  1
  C  C266  1  0.14048600  0.29499700  0.03612400  1
  C  C267  1  0.70500300  0.14048600  0.03612400  1
  C  C268  1  0.85951400  0.70500300  0.03612400  1
  C  C269  1  0.29499700  0.14048600  0.96387600  1
  C  C270  1  0.14048600  0.70500300  0.96387600  1
  C  C271  1  0.70500300  0.85951400  0.96387600  1
  C  C272  1  0.85951400  0.29499700  0.96387600  1
  S  S1  1  0.79979400  0.40593700  0.56116900  1
  S  S2  1  0.59406300  0.79979400  0.56116900  1
  S  S3  1  0.20020600  0.59406300  0.56116900  1
  S  S4  1  0.40593700  0.20020600  0.56116900  1
  S  S5  1  0.79979400  0.59406300  0.43883100  1
  S  S6  1  0.59406300  0.20020600  0.43883100  1
  S  S7  1  0.20020600  0.40593700  0.43883100  1
  S  S8  1  0.40593700  0.79979400  0.43883100  1
  S  S9  1  0.29979400  0.90593800  0.06116900  1
  S  S10  1  0.09406300  0.29979400  0.06116900  1
  S  S11  1  0.70020600  0.09406300  0.06116900  1
  S  S12  1  0.90593700  0.70020600  0.06116900  1
  S  S13  1  0.29979400  0.09406300  0.93883100  1
  S  S14  1  0.09406300  0.70020600  0.93883100  1
  S  S15  1  0.70020600  0.90593800  0.93883100  1
  S  S16  1  0.90593700  0.29979500  0.93883100  1
  N  N1  1  0.00000000  0.50000000  0.82387000  1
  N  N2  1  0.50000000  0.00000000  0.82387000  1
  N  N3  1  0.00000000  0.50000000  0.17613000  1
  N  N4  1  0.50000000  0.00000000  0.17613000  1
  N  N5  1  0.50000000  0.00000000  0.32387000  1
  N  N6  1  0.00000000  0.50000000  0.32387000  1
  N  N7  1  0.50000000  0.00000000  0.67613000  1
  N  N8  1  0.00000000  0.50000000  0.67613000  1
  O  O1  1  0.93604600  0.46303100  0.50798000  1
  O  O2  1  0.53696900  0.93604600  0.50798000  1
  O  O3  1  0.06395400  0.53696900  0.50798000  1
  O  O4  1  0.46303100  0.06395400  0.50798000  1
  O  O5  1  0.93604600  0.53696900  0.49202000  1
  O  O6  1  0.53696900  0.06395400  0.49202000  1
  O  O7  1  0.06395400  0.46303100  0.49202000  1
  O  O8  1  0.46303100  0.93604600  0.49202000  1
  O  O9  1  0.43604600  0.96303100  0.00798000  1
  O  O10  1  0.03696900  0.43604600  0.00798000  1
  O  O11  1  0.56395400  0.03696900  0.00798000  1
  O  O12  1  0.96303100  0.56395400  0.00798000  1
  O  O13  1  0.43604600  0.03696900  0.99202000  1
  O  O14  1  0.03696900  0.56395400  0.99202000  1
  O  O15  1  0.56395400  0.96303100  0.99202000  1
  O  O16  1  0.96303100  0.43604600  0.99202000  1
  O  O17  1  0.01245700  0.46300200  0.54096000  1
  O  O18  1  0.53699800  0.01245700  0.54096000  1
  O  O19  1  0.98754300  0.53699800  0.54096000  1
  O  O20  1  0.46300200  0.98754300  0.54096000  1
  O  O21  1  0.01245700  0.53699800  0.45904000  1
  O  O22  1  0.53699800  0.98754300  0.45904000  1
  O  O23  1  0.98754300  0.46300200  0.45904000  1
  O  O24  1  0.46300200  0.01245700  0.45904000  1
  O  O25  1  0.51245700  0.96300200  0.04096000  1
  O  O26  1  0.03699800  0.51245700  0.04096000  1
  O  O27  1  0.48754300  0.03699800  0.04096000  1
  O  O28  1  0.96300200  0.48754300  0.04096000  1
  O  O29  1  0.51245700  0.03699800  0.95904000  1
  O  O30  1  0.03699800  0.48754300  0.95904000  1
  O  O31  1  0.48754300  0.96300200  0.95904000  1
  O  O32  1  0.96300200  0.51245700  0.95904000  1
  O  O33  1  0.94800900  0.55853900  0.82394700  1
  O  O34  1  0.44146100  0.94800900  0.82394700  1
  O  O35  1  0.05199100  0.44146100  0.82394700  1
  O  O36  1  0.55853900  0.05199100  0.82394700  1
  O  O37  1  0.94800900  0.44146100  0.17605300  1
  O  O38  1  0.44146100  0.05199100  0.17605300  1
  O  O39  1  0.05199100  0.55853900  0.17605300  1
  O  O40  1  0.55853900  0.94800900  0.17605300  1
  O  O41  1  0.44800900  0.05853900  0.32394700  1
  O  O42  1  0.94146100  0.44800900  0.32394700  1
  O  O43  1  0.55199100  0.94146100  0.32394700  1
  O  O44  1  0.05853900  0.55199100  0.32394700  1
  O  O45  1  0.44800900  0.94146100  0.67605300  1
  O  O46  1  0.94146100  0.55199100  0.67605300  1
  O  O47  1  0.55199100  0.05853900  0.67605300  1
  O  O48  1  0.05853900  0.44800900  0.67605300  1
  O  O49  1  0.51333900  0.56384000  0.52352700  1
  O  O50  1  0.43616000  0.51333900  0.52352700  1
  O  O51  1  0.48666100  0.43616000  0.52352700  1
  O  O52  1  0.56384000  0.48666100  0.52352700  1
  O  O53  1  0.51333900  0.43616000  0.47647300  1
  O  O54  1  0.43616000  0.48666100  0.47647300  1
  O  O55  1  0.48666100  0.56384000  0.47647300  1
  O  O56  1  0.56384000  0.51333900  0.47647300  1
  O  O57  1  0.01333900  0.06384100  0.02352700  1
  O  O58  1  0.93616000  0.01333900  0.02352700  1
  O  O59  1  0.98666100  0.93616000  0.02352700  1
  O  O60  1  0.06384000  0.98666100  0.02352700  1
  O  O61  1  0.01333900  0.93616000  0.97647300  1
  O  O62  1  0.93616000  0.98666100  0.97647300  1
  O  O63  1  0.98666100  0.06384100  0.97647300  1
  O  O64  1  0.06384000  0.01333900  0.97647300  1
