data_DB0-m3_o6_o151_f0_fsc.sym.15_repeat
_audit_creation_date              2024-02-20
_audit_creation_method            'Materials Studio'
_symmetry_space_group_name_H-M    'P1'
_symmetry_Int_Tables_number       1
_symmetry_cell_setting            triclinic
loop_
_symmetry_equiv_pos_as_xyz
  x,y,z
_cell_length_a                    14.3880
_cell_length_b                    8.5473
_cell_length_c                    19.2841
_cell_angle_alpha                 90.0000
_cell_angle_beta                  91.0216
_cell_angle_gamma                 90.0000
loop_
_atom_site_label
_atom_site_type_symbol
_atom_site_fract_x
_atom_site_fract_y
_atom_site_fract_z
_atom_site_U_iso_or_equiv
_atom_site_adp_type
_atom_site_occupancy
H1     H     0.04327   0.99994   0.54739   0.00000  Uiso   1.00
H2     H     0.95709   0.99981   0.45282   0.00000  Uiso   1.00
C1     C     0.01970   0.13943   0.63627   0.00000  Uiso   1.00
C2     C     0.98011   0.86008   0.36393   0.00000  Uiso   1.00
C3     C     0.98039   0.13924   0.36389   0.00000  Uiso   1.00
C4     C     0.01966   0.86026   0.63621   0.00000  Uiso   1.00
C5     C     0.00622   0.14014   0.70688   0.00000  Uiso   1.00
C6     C     0.99309   0.85927   0.29330   0.00000  Uiso   1.00
C7     C     0.99352   0.13984   0.29323   0.00000  Uiso   1.00
C8     C     0.00626   0.85959   0.70681   0.00000  Uiso   1.00
H3     H     0.00059   0.24997   0.73427   0.00000  Uiso   1.00
H4     H     0.00022   0.74958   0.26599   0.00000  Uiso   1.00
H5     H     0.99916   0.24961   0.26580   0.00000  Uiso   1.00
H6     H     0.99884   0.74995   0.73410   0.00000  Uiso   1.00
C9     C     0.00379   0.99980   0.74264   0.00000  Uiso   1.00
C10    C     0.99558   0.99944   0.25747   0.00000  Uiso   1.00
C11    C     0.03142   0.99987   0.60231   0.00000  Uiso   1.00
C12    C     0.96871   0.99972   0.39788   0.00000  Uiso   1.00
C13    C     0.91994   0.95887   0.07258   0.00000  Uiso   1.00
C14    C     0.07919   0.95840   0.92754   0.00000  Uiso   1.00
C15    C     0.92131   0.04376   0.92419   0.00000  Uiso   1.00
C16    C     0.07807   0.04293   0.07595   0.00000  Uiso   1.00
H7     H     0.85824   0.92278   0.04415   0.00000  Uiso   1.00
H8     H     0.14079   0.92176   0.95594   0.00000  Uiso   1.00
H9     H     0.85912   0.08100   0.95005   0.00000  Uiso   1.00
H10    H     0.14036   0.07967   0.05010   0.00000  Uiso   1.00
C17    C     0.91929   0.95658   0.14400   0.00000  Uiso   1.00
C18    C     0.07989   0.95646   0.85612   0.00000  Uiso   1.00
C19    C     0.92208   0.04364   0.85264   0.00000  Uiso   1.00
C20    C     0.07733   0.04262   0.14749   0.00000  Uiso   1.00
C21    C     0.99791   0.99896   0.18176   0.00000  Uiso   1.00
C22    C     0.00138   0.99937   0.81836   0.00000  Uiso   1.00
C23    C     0.99928   0.00165   0.03810   0.00000  Uiso   1.00
C24    C     0.99996   0.00171   0.96203   0.00000  Uiso   1.00
O1     O     0.08905   0.66925   0.56410   0.00000  Uiso   1.00
O2     O     0.91095   0.33022   0.43601   0.00000  Uiso   1.00
O3     O     0.91082   0.66906   0.43599   0.00000  Uiso   1.00
O4     O     0.08914   0.33040   0.56415   0.00000  Uiso   1.00
O5     O     0.93035   0.66316   0.57951   0.00000  Uiso   1.00
O6     O     0.06963   0.33633   0.42061   0.00000  Uiso   1.00
O7     O     0.06953   0.66316   0.42059   0.00000  Uiso   1.00
O8     O     0.93045   0.33635   0.57955   0.00000  Uiso   1.00
C25    C     0.01351   0.71830   0.59437   0.00000  Uiso   1.00
C26    C     0.98648   0.28124   0.40570   0.00000  Uiso   1.00
C27    C     0.98634   0.71815   0.40573   0.00000  Uiso   1.00
C28    C     0.01362   0.28138   0.59446   0.00000  Uiso   1.00
Zn1    Zn    0.89708   0.49967   0.50783   0.00000  Uiso   1.00
Zn2    Zn    0.10291   0.49979   0.49230   0.00000  Uiso   1.00
C29    C     0.45777   0.51372   0.43543   0.00000  Uiso   1.00
C30    C     0.54225   0.48550   0.56464   0.00000  Uiso   1.00
H11    H     0.42369   0.52475   0.38525   0.00000  Uiso   1.00
H12    H     0.57635   0.47447   0.61481   0.00000  Uiso   1.00
C31    C     0.40440   0.49962   0.49375   0.00000  Uiso   1.00
C32    C     0.59562   0.49956   0.50632   0.00000  Uiso   1.00
C33    C     0.44639   0.48564   0.55839   0.00000  Uiso   1.00
C34    C     0.55364   0.51361   0.44168   0.00000  Uiso   1.00
C35    C     0.30477   0.49978   0.48769   0.00000  Uiso   1.00
C36    C     0.69523   0.49953   0.51240   0.00000  Uiso   1.00
N1     N     0.77563   0.49955   0.51541   0.00000  Uiso   1.00
N2     N     0.22436   0.49987   0.48471   0.00000  Uiso   1.00
N3     N     0.83620   0.91366   0.17830   0.00000  Uiso   1.00
H13    H     0.84965   0.81352   0.20774   0.00000  Uiso   1.00
H14    H     0.81842   0.00484   0.21156   0.00000  Uiso   1.00
N4     N     0.16297   0.91362   0.82180   0.00000  Uiso   1.00
H15    H     0.14946   0.81384   0.79216   0.00000  Uiso   1.00
H16    H     0.18093   0.00511   0.78875   0.00000  Uiso   1.00
N5     N     0.84003   0.08588   0.81469   0.00000  Uiso   1.00
H17    H     0.85476   0.18423   0.78480   0.00000  Uiso   1.00
H18    H     0.82297   0.99338   0.78146   0.00000  Uiso   1.00
N6     N     0.15955   0.08389   0.18545   0.00000  Uiso   1.00
H19    H     0.14517   0.18214   0.21549   0.00000  Uiso   1.00
H20    H     0.17637   0.99100   0.21852   0.00000  Uiso   1.00
N7     N     0.60979   0.52815   0.38186   0.00000  Uiso   1.00
H21    H     0.64884   0.42571   0.37775   0.00000  Uiso   1.00
H22    H     0.56642   0.53587   0.33805   0.00000  Uiso   1.00
N8     N     0.39025   0.47121   0.61823   0.00000  Uiso   1.00
H23    H     0.35112   0.57358   0.62227   0.00000  Uiso   1.00
H24    H     0.43367   0.46374   0.66202   0.00000  Uiso   1.00
