# Generated by REPEAT Assigner based on pymatgen
data_DB0-m2_o6_o25_f0_nbo.sym.116_sqe
_audit_creation_date              2022-05-24
_audit_creation_method            REPEAT_Assigner
_cell_length_a                    27.683244
_cell_length_b                    27.690097
_cell_length_c                    27.783542
_cell_angle_alpha                 109.312782
_cell_angle_beta                  109.720030
_cell_angle_gamma                 109.207353
_cell_volume                      16429.574575
_symmetry_space_group_name_H-M    P1
_symmetry_Int_Tables_number       1
loop_
    _symmetry_equiv_pos_site_id
    _symmetry_equiv_pos_as_xyz
    1  x,y,z
loop_
    _atom_site_type_symbol
    _atom_site_label
    _atom_site_fract_x
    _atom_site_fract_y
    _atom_site_fract_z
    _atom_type_partial_charge
    O   O1   0.941076  0.975768  0.538301  -0.571706
    O   O2   0.938162  0.904072  0.463371  -0.592284
    C   C1   0.920214  0.920508  0.500791  0.772964
    O   O3   0.937428  0.034193  0.475218  -0.585021
    O   O4   0.941297  0.965877  0.403686  -0.570340
    C   C2   0.919890  0.000031  0.420013  0.654578
    Cu  Cu1  0.999951  0.041751  0.541914  1.014600
    Cu  Cu2  0.000510  0.958821  0.459288  1.012054
    O   O5   0.062316  0.096501  0.537846  -0.594317
    O   O6   0.059372  0.024805  0.462891  -0.579492
    O   O7   0.059149  0.034682  0.597516  -0.580740
    O   O8   0.063044  0.966393  0.525984  -0.591966
    C   C3   0.080266  0.080063  0.500425  0.783360
    C   C4   0.080565  0.000538  0.581188  0.744827
    C   C5   0.703981  0.985904  0.256825  -0.454156
    C   C6   0.731560  0.947249  0.245654  -0.406790
    C   C7   0.875055  0.000108  0.375192  0.196059
    C   C8   0.627482  0.999741  0.127097  0.198131
    C   C9   0.764633  0.038855  0.303433  -0.386102
    C   C10  0.791725  0.000201  0.291776  1.915320
    C   C11  0.771160  0.053134  0.256974  -0.377493
    C   C12  0.710996  0.000181  0.210859  1.862568
    C   C13  0.798748  0.014482  0.245811  -0.486637
    C   C14  0.738095  0.961528  0.199201  -0.299757
    C   C15  0.837400  0.000165  0.337518  -1.017433
    C   C16  0.665242  0.000014  0.164994  -1.015014
    C   C17  0.755965  0.702453  0.501196  -0.183508
    C   C18  0.707723  0.707004  0.500831  0.517407
    C   C19  0.702373  0.754678  0.500419  -0.197826
    C   C20  0.745207  0.797741  0.500359  -0.144138
    C   C21  0.793472  0.793213  0.500771  0.473682
    C   C22  0.798829  0.745546  0.501195  -0.169789
    C   C23  0.663088  0.662144  0.500816  -0.238307
    C   C24  0.838089  0.838067  0.500764  -0.205645
    C   C25  0.875577  0.875727  0.500771  -0.157428
    C   C26  0.625552  0.624485  0.500764  -0.121706
    C   C27  0.299272  0.000265  0.746827  -0.193339
    C   C28  0.294532  0.000341  0.794684  0.543116
    C   C29  0.246578  0.000461  0.799457  -0.189219
    C   C30  0.203366  0.000485  0.756369  -0.189894
    C   C31  0.208121  0.000433  0.708522  0.531242
    C   C32  0.256086  0.000333  0.703765  -0.187206
    C   C33  0.339451  0.000197  0.839437  -0.266128
    C   C34  0.163174  0.000465  0.663686  -0.260577
    C   C35  0.125436  0.000496  0.626010  -0.108775
    C   C36  0.377216  0.000016  0.876936  -0.095191
    C   C37  0.245724  0.245258  0.447910  -0.186921
    C   C38  0.293671  0.292812  0.500612  0.552568
    C   C39  0.298340  0.297416  0.553151  -0.262215
    C   C40  0.255147  0.254464  0.552959  -0.104030
    H   H1   0.258830  0.258040  0.594127  0.116067
    C   C41  0.207250  0.206939  0.500298  0.351577
    C   C42  0.202505  0.202350  0.447748  -0.168165
    C   C43  0.338639  0.337491  0.500774  -0.230479
    C   C44  0.162475  0.162289  0.500323  -0.128984
    C   C45  0.124967  0.124811  0.500462  -0.195184
    C   C46  0.376370  0.375019  0.500890  -0.124424
    O   O9   0.467855  0.024474  0.064082  -0.565097
    O   O10  0.536281  0.096399  0.060476  -0.574243
    C   C47  0.501967  0.079816  0.081552  0.799855
    O   O11  0.527185  0.965266  0.064518  -0.574968
    O   O12  0.598883  0.037036  0.064201  -0.579167
    C   C48  0.582510  0.999270  0.081872  0.654028
    Cu  Cu3  0.460868  0.958312  0.002101  1.009913
    Cu  Cu4  0.543813  0.041362  0.001862  1.007647
    O   O13  0.468537  0.903373  0.943550  -0.598065
    O   O14  0.536683  0.975127  0.939832  -0.604181
    O   O15  0.405783  0.965691  0.942801  -0.586593
    O   O16  0.477483  0.037590  0.942610  -0.561175
    C   C49  0.502682  0.919840  0.922365  0.766200
    C   C50  0.422179  0.999711  0.921401  0.716762
    O   O17  0.466237  0.441195  0.403922  -0.563969
    O   O18  0.534873  0.437071  0.475596  -0.580709
    C   C51  0.500491  0.419718  0.420324  0.732474
    O   O19  0.525347  0.558953  0.463038  -0.559727
    O   O20  0.597419  0.561620  0.538102  -0.579193
    C   C52  0.580799  0.579707  0.500632  0.728184
    Cu  Cu5  0.459325  0.500096  0.459402  0.996825
    Cu  Cu6  0.542671  0.499276  0.542193  0.990073
    O   O21  0.467101  0.562281  0.526003  -0.584560
    O   O22  0.535785  0.558198  0.597675  -0.560082
    O   O23  0.404580  0.437741  0.463480  -0.580635
    O   O24  0.476645  0.440439  0.538578  -0.556708
    C   C53  0.501516  0.579655  0.581281  0.740872
    C   C54  0.421189  0.419686  0.500976  0.727993
    C   C55  0.500566  0.297494  0.245578  -0.181321
    C   C56  0.500625  0.292677  0.293447  0.519443
    C   C57  0.500938  0.244848  0.298474  -0.175310
    C   C58  0.501233  0.201939  0.255738  -0.195772
    C   C59  0.501161  0.206749  0.207863  0.506900
    C   C60  0.500804  0.254555  0.202811  -0.181607
    C   C61  0.500478  0.337431  0.338042  -0.245996
    C   C62  0.501467  0.162060  0.163362  -0.202563
    C   C63  0.501712  0.124520  0.126007  -0.189544
    C   C64  0.500432  0.375008  0.375561  -0.118391
    C   C65  0.554898  0.754041  0.756794  -0.197597
    C   C66  0.502036  0.706688  0.708806  0.507825
    C   C67  0.449377  0.702358  0.704099  -0.184830
    C   C68  0.449578  0.745340  0.747251  -0.161793
    C   C69  0.502436  0.792697  0.795230  0.468816
    C   C70  0.555098  0.796986  0.799987  -0.147790
    C   C71  0.501818  0.661947  0.663839  -0.220828
    C   C72  0.502622  0.837498  0.840102  -0.216951
    C   C73  0.502703  0.875108  0.877708  -0.141721
    C   C74  0.501652  0.624374  0.626110  -0.136987
    I   I1   0.701674  0.862452  0.238497  0.022935
    I   I2   0.736624  0.870257  0.499595  0.052327
    I   I3   0.263633  0.000247  0.630875  0.071152
    I   I4   0.372282  0.999990  0.739213  0.060150
    I   I5   0.239065  0.000570  0.872367  0.065903
    I   I6   0.130243  0.000547  0.763862  0.063241
    I   I7   0.129423  0.130004  0.367162  0.079305
    I   I8   0.238250  0.237888  0.367557  0.056149
    I   I9   0.371253  0.369865  0.633755  0.057318
    I   I10  0.500654  0.262283  0.129931  0.061753
    I   I11  0.626241  0.963091  0.263853  0.066518
    I   I12  0.500176  0.370323  0.237541  0.062225
    I   I13  0.501008  0.237076  0.371313  0.062042
    I   I14  0.501850  0.129221  0.263892  0.066940
    I   I15  0.635964  0.868977  0.873097  0.072714
    I   I16  0.635470  0.761067  0.764383  0.060598
    I   I17  0.368503  0.630235  0.631147  0.061345
    I   I18  0.369005  0.738383  0.739591  0.058886
    I   I19  0.714955  0.899654  0.113784  0.010974
    I   I20  0.876601  0.037423  0.238966  0.053133
    I   I21  0.801060  0.137969  0.264225  0.028018
    I   I22  0.787697  0.100796  0.388771  0.033926
    I   I23  0.872319  0.738279  0.501824  0.059257
    I   I24  0.764431  0.629819  0.501716  0.062095
    I   I25  0.628923  0.761986  0.499865  0.063566
