data_DB0-m29_o96_o1470_f0_pts.sym.125_repeat
_audit_creation_date              2024-02-24
_audit_creation_method            'Materials Studio'
_symmetry_space_group_name_H-M    'P1'
_symmetry_Int_Tables_number       1
_symmetry_cell_setting            triclinic
loop_
_symmetry_equiv_pos_as_xyz
  x,y,z
_cell_length_a                    17.3953
_cell_length_b                    12.0832
_cell_length_c                    18.9208
_cell_angle_alpha                 88.7522
_cell_angle_beta                  90.6231
_cell_angle_gamma                 108.6104
loop_
_atom_site_label
_atom_site_type_symbol
_atom_site_fract_x
_atom_site_fract_y
_atom_site_fract_z
_atom_site_U_iso_or_equiv
_atom_site_adp_type
_atom_site_occupancy
C1     C     0.22053   0.00863   0.11021   0.00000  Uiso   1.00
C2     C     0.16621   0.96931   0.16338   0.00000  Uiso   1.00
C3     C     0.09109   0.96421   0.13685   0.00000  Uiso   1.00
N1     N     0.09739   0.99550   0.06769   0.00000  Uiso   1.00
C4     C     0.17680   0.02198   0.05111   0.00000  Uiso   1.00
C5     C     0.02349   0.94007   0.17519   0.00000  Uiso   1.00
C6     C     0.94665   0.95251   0.14897   0.00000  Uiso   1.00
C7     C     0.89090   0.97898   0.19089   0.00000  Uiso   1.00
C8     C     0.82714   0.97988   0.14937   0.00000  Uiso   1.00
C9     C     0.84526   0.95499   0.08153   0.00000  Uiso   1.00
N2     N     0.91818   0.93671   0.08205   0.00000  Uiso   1.00
C10    C     0.79427   0.95278   0.01846   0.00000  Uiso   1.00
C11    C     0.82456   0.97953   0.95330   0.00000  Uiso   1.00
C12    C     0.78107   0.99322   0.89397   0.00000  Uiso   1.00
C13    C     0.83563   0.03156   0.84084   0.00000  Uiso   1.00
C14    C     0.91051   0.03611   0.86747   0.00000  Uiso   1.00
N3     N     0.90396   0.00513   0.93673   0.00000  Uiso   1.00
C15    C     0.97810   0.06009   0.82902   0.00000  Uiso   1.00
C16    C     0.05516   0.04866   0.85515   0.00000  Uiso   1.00
C17    C     0.11194   0.02441   0.81322   0.00000  Uiso   1.00
C18    C     0.17512   0.02268   0.85547   0.00000  Uiso   1.00
C19    C     0.15591   0.04569   0.92319   0.00000  Uiso   1.00
N4     N     0.08273   0.06297   0.92236   0.00000  Uiso   1.00
C20    C     0.20703   0.04909   0.98610   0.00000  Uiso   1.00
H1     H     0.02692   0.92165   0.23106   0.00000  Uiso   1.00
H2     H     0.73064   0.94075   0.02674   0.00000  Uiso   1.00
H3     H     0.97466   0.07826   0.77313   0.00000  Uiso   1.00
H4     H     0.27078   0.06218   0.97783   0.00000  Uiso   1.00
H5     H     0.94543   0.90900   0.04025   0.00000  Uiso   1.00
H6     H     0.05490   0.08966   0.96417   0.00000  Uiso   1.00
C21    C     0.11105   0.00264   0.74229   0.00000  Uiso   1.00
C22    C     0.17770   0.98077   0.71423   0.00000  Uiso   1.00
C23    C     0.24357   0.98021   0.75679   0.00000  Uiso   1.00
C24    C     0.24220   0.00028   0.82888   0.00000  Uiso   1.00
C25    C     0.30247   0.02936   0.12088   0.00000  Uiso   1.00
C26    C     0.32723   0.00381   0.18738   0.00000  Uiso   1.00
C27    C     0.27063   0.95839   0.24060   0.00000  Uiso   1.00
C28    C     0.18944   0.94273   0.22944   0.00000  Uiso   1.00
C29    C     0.89474   0.00694   0.26087   0.00000  Uiso   1.00
C30    C     0.82983   0.03220   0.29028   0.00000  Uiso   1.00
C31    C     0.76114   0.02739   0.24881   0.00000  Uiso   1.00
C32    C     0.76087   0.00344   0.17688   0.00000  Uiso   1.00
C33    C     0.69926   0.97385   0.88286   0.00000  Uiso   1.00
C34    C     0.67517   0.99949   0.81601   0.00000  Uiso   1.00
C35    C     0.73220   0.04353   0.76296   0.00000  Uiso   1.00
C36    C     0.81305   0.05810   0.77458   0.00000  Uiso   1.00
H7     H     0.06045   0.00276   0.70872   0.00000  Uiso   1.00
H8     H     0.29260   0.00035   0.86274   0.00000  Uiso   1.00
H9     H     0.34635   0.06419   0.07948   0.00000  Uiso   1.00
H10    H     0.29007   0.93943   0.29261   0.00000  Uiso   1.00
H11    H     0.14665   0.91008   0.27186   0.00000  Uiso   1.00
H12    H     0.94812   0.01309   0.29229   0.00000  Uiso   1.00
H13    H     0.70927   0.00027   0.14378   0.00000  Uiso   1.00
H14    H     0.65512   0.94020   0.92421   0.00000  Uiso   1.00
H15    H     0.71347   0.06252   0.71070   0.00000  Uiso   1.00
H16    H     0.85605   0.08994   0.73223   0.00000  Uiso   1.00
H17    H     0.17786   0.96511   0.65825   0.00000  Uiso   1.00
O1     O     0.62540   0.04490   0.24262   0.00000  Uiso   1.00
C37    C     0.68690   0.03788   0.28143   0.00000  Uiso   1.00
O2     O     0.52201   0.79559   0.31602   0.00000  Uiso   1.00
O3     O     0.67722   0.02600   0.35010   0.00000  Uiso   1.00
O4     O     0.51292   0.93150   0.39259   0.00000  Uiso   1.00
C38    C     0.50739   0.82281   0.38009   0.00000  Uiso   1.00
Fe1    Fe    0.53348   0.03232   0.30645   0.00000  Uiso   1.00
O5     O     0.43105   0.95889   0.25177   0.00000  Uiso   1.00
O6     O     0.46574   0.12956   0.18815   0.00000  Uiso   1.00
C39    C     0.41279   0.02809   0.20497   0.00000  Uiso   1.00
O7     O     0.56047   0.19741   0.33899   0.00000  Uiso   1.00
O8     O     0.42702   0.12406   0.36357   0.00000  Uiso   1.00
C40    C     0.49588   0.20913   0.36945   0.00000  Uiso   1.00
C41    C     0.51038   0.22057   0.49500   0.00000  Uiso   1.00
C42    C     0.50169   0.26535   0.55972   0.00000  Uiso   1.00
C43    C     0.50133   0.38089   0.56250   0.00000  Uiso   1.00
C44    C     0.49371   0.43423   0.63164   0.00000  Uiso   1.00
C45    C     0.52514   0.56572   0.62930   0.00000  Uiso   1.00
C46    C     0.50706   0.27935   0.43316   0.00000  Uiso   1.00
C47    C     0.49857   0.38929   0.43513   0.00000  Uiso   1.00
C48    C     0.50048   0.44293   0.49954   0.00000  Uiso   1.00
C49    C     0.49417   0.56139   0.50087   0.00000  Uiso   1.00
C50    C     0.49716   0.61536   0.56533   0.00000  Uiso   1.00
C51    C     0.48904   0.72547   0.56758   0.00000  Uiso   1.00
C52    C     0.47106   0.43851   0.37077   0.00000  Uiso   1.00
C53    C     0.50024   0.57015   0.36866   0.00000  Uiso   1.00
C54    C     0.49297   0.62340   0.43796   0.00000  Uiso   1.00
C55    C     0.49334   0.73934   0.44091   0.00000  Uiso   1.00
C56    C     0.48532   0.78428   0.50580   0.00000  Uiso   1.00
H18    H     0.42932   0.40436   0.64845   0.00000  Uiso   1.00
H19    H     0.50489   0.59636   0.67832   0.00000  Uiso   1.00
H20    H     0.40378   0.40772   0.36982   0.00000  Uiso   1.00
H21    H     0.46033   0.59305   0.32901   0.00000  Uiso   1.00
H22    H     0.51211   0.13252   0.49047   0.00000  Uiso   1.00
H23    H     0.48388   0.87247   0.51041   0.00000  Uiso   1.00
H24    H     0.53202   0.40949   0.67204   0.00000  Uiso   1.00
H25    H     0.59240   0.59413   0.62906   0.00000  Uiso   1.00
H26    H     0.49317   0.40932   0.32216   0.00000  Uiso   1.00
H27    H     0.56424   0.60231   0.35081   0.00000  Uiso   1.00
O9     O     0.57390   0.04534   0.74856   0.00000  Uiso   1.00
O10    O     0.53491   0.87969   0.81710   0.00000  Uiso   1.00
C57    C     0.59001   0.97775   0.79767   0.00000  Uiso   1.00
O11    O     0.43883   0.81022   0.66265   0.00000  Uiso   1.00
O12    O     0.57212   0.87902   0.63675   0.00000  Uiso   1.00
C58    C     0.50215   0.79605   0.63127   0.00000  Uiso   1.00
O13    O     0.46751   0.20672   0.68339   0.00000  Uiso   1.00
O14    O     0.37996   0.96696   0.76094   0.00000  Uiso   1.00
C59    C     0.31542   0.96494   0.72355   0.00000  Uiso   1.00
O15    O     0.49035   0.07664   0.60932   0.00000  Uiso   1.00
C60    C     0.48868   0.18256   0.62072   0.00000  Uiso   1.00
O16    O     0.31821   0.95973   0.65448   0.00000  Uiso   1.00
Fe2    Fe    0.46975   0.97571   0.69539   0.00000  Uiso   1.00
N5     N     0.83816   0.07291   0.36039   0.00000  Uiso   1.00
C61    C     0.83652   0.99309   0.41201   0.00000  Uiso   1.00
O17    O     0.83926   0.89672   0.39720   0.00000  Uiso   1.00
C62    C     0.82983   0.02132   0.48762   0.00000  Uiso   1.00
H28    H     0.81970   0.14298   0.37279   0.00000  Uiso   1.00
H29    H     0.82887   0.11215   0.49244   0.00000  Uiso   1.00
H30    H     0.88257   0.01164   0.51753   0.00000  Uiso   1.00
H31    H     0.77320   0.96008   0.51014   0.00000  Uiso   1.00
