# generated using pymatgen
data_CuH15C20S2N3O4
_symmetry_space_group_name_H-M   'P 1'
_cell_length_a   13.04735500
_cell_length_b   15.56531600
_cell_length_c   17.01350300
_cell_angle_alpha   96.36176700
_cell_angle_beta   90.34842500
_cell_angle_gamma   87.35433500
_symmetry_Int_Tables_number   1
_chemical_formula_structural   CuH15C20S2N3O4
_chemical_formula_sum   'Cu2 H30 C40 S4 N6 O8'
_cell_volume   3430.26898205
_cell_formula_units_Z   2
loop_
 _symmetry_equiv_pos_site_id
 _symmetry_equiv_pos_as_xyz
  1  'x, y, z'
loop_
 _atom_site_type_symbol
 _atom_site_label
 _atom_site_symmetry_multiplicity
 _atom_site_fract_x
 _atom_site_fract_y
 _atom_site_fract_z
 _atom_site_occupancy
  Cu  Cu1  1  0.50076800  0.41901700  0.49716200  1
  Cu  Cu2  1  0.50254000  0.59156900  0.50676900  1
  H  H1  1  0.01129500  0.61661100  0.63907100  1
  H  H2  1  0.99001800  0.40070100  0.36052900  1
  H  H3  1  0.49821700  0.38217100  0.74477900  1
  H  H4  1  0.50470600  0.62850800  0.25909700  1
  H  H5  1  0.49629900  0.39116000  0.88637500  1
  H  H6  1  0.50693700  0.61949400  0.11751400  1
  H  H7  1  0.48132100  0.34465000  0.10349100  1
  H  H8  1  0.52366900  0.66583000  0.90036000  1
  H  H9  1  0.47913200  0.35416800  0.24708000  1
  H  H10  1  0.52561000  0.65628900  0.75677300  1
  H  H11  1  0.59113500  0.28093300  0.59119500  1
  H  H12  1  0.40095000  0.73100900  0.41945200  1
  H  H13  1  0.58270400  0.12599000  0.58704700  1
  H  H14  1  0.40860200  0.88625200  0.42430200  1
  H  H15  1  0.62157000  0.88317300  0.61678900  1
  H  H16  1  0.39282700  0.12573400  0.38071200  1
  H  H17  1  0.61077200  0.72603600  0.60775900  1
  H  H18  1  0.40464700  0.28258600  0.38875700  1
  H  H19  1  0.81058600  0.52414400  0.74770300  1
  H  H20  1  0.89050100  0.46421500  0.67281300  1
  H  H21  1  0.75184400  0.46003500  0.66577200  1
  H  H22  1  0.21695700  0.25336800  0.38870400  1
  H  H23  1  0.09428100  0.29251700  0.42867900  1
  H  H24  1  0.21018700  0.31384400  0.48550400  1
  H  H25  1  0.73454700  0.24523400  0.37084400  1
  H  H26  1  0.81982500  0.29259500  0.44547000  1
  H  H27  1  0.87002000  0.25023400  0.34902200  1
  H  H28  1  0.27317000  0.55613500  0.76773800  1
  H  H29  1  0.24156700  0.47989000  0.68447300  1
  H  H30  1  0.14016200  0.54069800  0.74233200  1
  C  C1  1  0.49348600  0.49769500  0.35029000  1
  C  C2  1  0.50990600  0.51291800  0.65362900  1
  C  C3  1  0.30426900  0.51423600  0.50864800  1
  C  C4  1  0.69881500  0.49628700  0.49516800  1
  C  C5  1  0.81100800  0.49056200  0.48733500  1
  C  C6  1  0.19170900  0.51982600  0.51641300  1
  C  C7  1  0.04158100  0.57614900  0.58823500  1
  C  C8  1  0.96039000  0.43797300  0.41331800  1
  C  C9  1  0.14653900  0.57115900  0.57945300  1
  C  C10  1  0.85561400  0.44235200  0.42249100  1
  C  C11  1  0.13015400  0.47323800  0.46185500  1
  C  C12  1  0.87242800  0.53516100  0.54305600  1
  C  C13  1  0.02342900  0.48045300  0.46947200  1
  C  C14  1  0.97891500  0.53083900  0.53377200  1
  C  C15  1  0.49183000  0.49217400  0.26364300  1
  C  C16  1  0.51197500  0.51839600  0.74024900  1
  C  C17  1  0.49918900  0.56569100  0.22565400  1
  C  C18  1  0.50424500  0.44492300  0.77823300  1
  C  C19  1  0.50065300  0.56003300  0.14411200  1
  C  C20  1  0.50292700  0.45058100  0.85977700  1
  C  C21  1  0.49453300  0.48005700  0.09962400  1
  C  C22  1  0.50955500  0.53051500  0.90425700  1
  C  C23  1  0.48621600  0.40708800  0.13777800  1
  C  C24  1  0.51831900  0.60342900  0.86609400  1
  C  C25  1  0.48499100  0.41279100  0.21913900  1
  C  C26  1  0.51943000  0.59771700  0.78473400  1
  C  C27  1  0.44919100  0.76492300  0.46325100  1
  C  C28  1  0.54770600  0.24647200  0.54453200  1
  C  C29  1  0.45419600  0.85368100  0.46628900  1
  C  C30  1  0.54262400  0.15774300  0.54170700  1
  C  C31  1  0.51655800  0.89731200  0.52211700  1
  C  C32  1  0.48646400  0.11321400  0.48225600  1
  C  C33  1  0.57197800  0.85053000  0.57317500  1
  C  C34  1  0.43745100  0.15908800  0.42732100  1
  C  C35  1  0.56545800  0.76208000  0.56816000  1
  C  C36  1  0.44442500  0.24747900  0.43189300  1
  C  C37  1  0.81661100  0.50161900  0.68367000  1
  C  C38  1  0.17622000  0.30752000  0.42538300  1
  C  C39  1  0.80345900  0.28410800  0.38111200  1
  C  C40  1  0.21860200  0.54288800  0.71812200  1
  S  S1  1  0.81230700  0.59490200  0.62814800  1
  S  S2  1  0.18993600  0.40699200  0.38010500  1
  S  S3  1  0.77864700  0.38916700  0.34617400  1
  S  S4  1  0.22270300  0.62843000  0.65395500  1
  N  N1  1  0.49690800  0.47050900  0.01594500  1
  N  N2  1  0.50722900  0.54007200  0.98793700  1
  N  N3  1  0.50366400  0.72064500  0.51431300  1
  N  N4  1  0.49968800  0.28992000  0.48963000  1
  N  N5  1  0.52608300  0.98798200  0.52813600  1
  N  N6  1  0.47696400  0.02254100  0.47626100  1
  O  O1  1  0.49091900  0.42585000  0.38343800  1
  O  O2  1  0.51238300  0.58476800  0.62049400  1
  O  O3  1  0.49964900  0.57367500  0.39131900  1
  O  O4  1  0.50366900  0.43695200  0.61261000  1
  O  O5  1  0.35204500  0.43802700  0.50554600  1
  O  O6  1  0.65127600  0.57259200  0.49841600  1
  O  O7  1  0.35327600  0.58595800  0.50826400  1
  O  O8  1  0.64999000  0.42458700  0.49563400  1
