# generated using pymatgen
data_FeH8C17NO4
_symmetry_space_group_name_H-M   'P 1'
_cell_length_a   6.74677800
_cell_length_b   11.60024100
_cell_length_c   13.44098500
_cell_angle_alpha   90.10170000
_cell_angle_beta   90.06826000
_cell_angle_gamma   74.44712000
_symmetry_Int_Tables_number   1
_chemical_formula_structural   FeH8C17NO4
_chemical_formula_sum   'Fe2 H16 C34 N2 O8'
_cell_volume   1013.42796341
_cell_formula_units_Z   2
loop_
 _symmetry_equiv_pos_site_id
 _symmetry_equiv_pos_as_xyz
  1  'x, y, z'
loop_
 _atom_site_type_symbol
 _atom_site_label
 _atom_site_symmetry_multiplicity
 _atom_site_fract_x
 _atom_site_fract_y
 _atom_site_fract_z
 _atom_site_occupancy
  Fe  Fe1  1  0.05987400  0.86034500  0.99328000  1
  Fe  Fe2  1  0.96852300  0.11958300  0.00782000  1
  H  H1  1  0.17273800  0.29566700  0.06676200  1
  H  H2  1  0.78501800  0.69528800  0.06705700  1
  H  H3  1  0.04983900  0.51441700  0.08566400  1
  H  H4  1  0.58723700  0.28098700  0.97432300  1
  H  H5  1  0.84975500  0.69284100  0.92631600  1
  H  H6  1  0.30407200  0.36143900  0.95077500  1
  H  H7  1  0.95499100  0.47401500  0.91045800  1
  H  H8  1  0.44226600  0.79993800  0.00919900  1
  H  H9  1  0.24531600  0.87234100  0.32021700  1
  H  H10  1  0.45279200  0.86892500  0.47110100  1
  H  H11  1  0.30462300  0.01517200  0.52503300  1
  H  H12  1  0.15912400  0.97520300  0.68247100  1
  H  H13  1  0.93012800  0.07705000  0.24938700  1
  H  H14  1  0.08277200  0.11939400  0.40680400  1
  H  H15  1  0.07370900  0.13251900  0.58429900  1
  H  H16  1  0.92900600  0.09234100  0.74404700  1
  C  C1  1  0.72331800  0.99259500  0.13985900  1
  C  C2  1  0.73081200  0.00443800  0.85648300  1
  C  C3  1  0.29559300  0.97261500  0.14588900  1
  C  C4  1  0.30415500  0.99089200  0.86143200  1
  C  C5  1  0.94571900  0.46407300  0.06032600  1
  C  C6  1  0.00367200  0.64329500  0.94747300  1
  C  C7  1  0.06390900  0.52064900  0.93666000  1
  C  C8  1  0.26267100  0.45724100  0.95913300  1
  C  C9  1  0.40379200  0.51787700  0.98858600  1
  C  C10  1  0.33816800  0.64163200  0.99634900  1
  C  C11  1  0.60987800  0.45816500  0.00784800  1
  C  C12  1  0.74398000  0.52243100  0.03827500  1
  C  C13  1  0.67902800  0.64509800  0.04383000  1
  C  C14  1  0.48095700  0.70432200  0.01721700  1
  C  C15  1  0.68579500  0.33511700  0.99775500  1
  C  C16  1  0.01489000  0.34165400  0.04937200  1
  C  C17  1  0.42861500  0.95859800  0.23335700  1
  C  C18  1  0.37164200  0.91325300  0.32024300  1
  C  C19  1  0.47568500  0.92096500  0.40743800  1
  C  C20  1  0.39911400  0.00200900  0.59111400  1
  C  C21  1  0.60963800  0.99146000  0.23181600  1
  C  C22  1  0.69602700  0.01423700  0.32037200  1
  C  C23  1  0.61703700  0.98827500  0.40956100  1
  C  C24  1  0.69246300  0.02138100  0.49838900  1
  C  C25  1  0.31159200  0.98777700  0.68095700  1
  C  C26  1  0.41456300  0.99254800  0.76883500  1
  C  C27  1  0.59552900  0.01551900  0.58832600  1
  C  C28  1  0.68959100  0.03206000  0.67652300  1
  C  C29  1  0.60453000  0.01513700  0.76684800  1
  C  C30  1  0.86490600  0.05979500  0.31941100  1
  C  C31  1  0.95011500  0.08388800  0.40768600  1
  C  C32  1  0.86321900  0.06559600  0.49705300  1
  C  C33  1  0.94561500  0.09327300  0.58514600  1
  C  C34  1  0.86457600  0.07111400  0.67483900  1
  N  N1  1  0.88513200  0.27960000  0.01728500  1
  N  N2  1  0.13816200  0.70158900  0.98090300  1
  O  O1  1  0.77810200  0.08941600  0.11912300  1
  O  O2  1  0.81017600  0.89101400  0.09366400  1
  O  O3  1  0.84179300  0.89763000  0.88291900  1
  O  O4  1  0.75840400  0.10080500  0.89907800  1
  O  O5  1  0.20406800  0.08034200  0.11159400  1
  O  O6  1  0.24741900  0.87856700  0.11124100  1
  O  O7  1  0.26758600  0.89049500  0.88914300  1
  O  O8  1  0.20080100  0.09307000  0.90040900  1
