# Generated by REPEAT Assigner based on pymatgen
data_DB0-m29_o91_o172_f0_pts.sym.3
_audit_creation_date              2022-05-24
_audit_creation_method            REPEAT_Assigner
_cell_length_a                    20.802112
_cell_length_b                    21.052381
_cell_length_c                    20.783880
_cell_angle_alpha                 90.256907
_cell_angle_beta                  108.377957
_cell_angle_gamma                 117.034221
_cell_volume                      7575.440450
_symmetry_space_group_name_H-M    P1
_symmetry_Int_Tables_number       1
loop_
    _symmetry_equiv_pos_site_id
    _symmetry_equiv_pos_as_xyz
    1  x,y,z
loop_
    _atom_site_type_symbol
    _atom_site_label
    _atom_site_fract_x
    _atom_site_fract_y
    _atom_site_fract_z
    _atom_type_partial_charge
    C   C1   0.924804  0.050335  0.068983  0.491193
    N   N1   0.850525  0.997641  0.043247  -0.226405
    C   C2   0.829393  0.938564  0.998984  0.474686
    C   C3   0.883694  0.931348  0.979218  -0.144830
    C   C4   0.959596  0.984747  0.005039  0.131619
    C   C5   0.980397  0.044609  0.050215  -0.126300
    C   C6   0.862794  0.870928  0.934218  -0.008572
    C   C7   0.917482  0.864693  0.914719  -0.090440
    C   C8   0.993664  0.918633  0.940393  -0.080927
    C   C9   0.014425  0.978336  0.985778  0.055518
    C   C10  0.090262  0.031849  0.011528  -0.082110
    C   C11  0.111291  0.092061  0.056851  -0.063226
    C   C12  0.056597  0.098393  0.076151  -0.052207
    C   C13  0.049271  0.913450  0.921038  0.456880
    N   N2   0.123453  0.966421  0.946640  -0.154831
    C   C14  0.144434  0.025198  0.991180  0.435534
    O   O1   0.944456  0.109249  0.112069  -0.492483
    O   O2   0.755513  0.885697  0.975314  -0.492648
    H   H1   0.803750  0.827867  0.913577  0.105377
    H   H2   0.899491  0.817099  0.879208  0.124254
    O   O3   0.029673  0.855120  0.877184  -0.493843
    O   O4   0.218030  0.078634  0.014222  -0.475188
    H   H3   0.170422  0.134939  0.077850  0.126350
    H   H4   0.074607  0.145984  0.111671  0.124692
    C   C15  0.244386  0.963285  0.971570  -0.250189
    H   H5   0.249525  0.962864  0.024952  0.164810
    C   C16  0.305435  0.971414  0.952839  0.060041
    C   C17  0.300953  0.976139  0.884732  -0.023638
    C   C18  0.234473  0.971539  0.837089  -0.105513
    H   H6   0.229258  0.974807  0.783973  0.135944
    C   C19  0.174718  0.965143  0.856776  -0.182588
    H   H7   0.125018  0.965323  0.819456  0.132138
    C   C20  0.180056  0.962432  0.924379  0.265106
    C   C21  0.731305  0.004465  0.016066  -0.245043
    H   H8   0.725995  0.002674  0.962566  0.182470
    C   C22  0.673132  0.004111  0.034819  -0.064864
    C   C23  0.677569  0.003349  0.102991  -0.032303
    C   C24  0.742120  0.005048  0.151329  -0.071133
    H   H9   0.747727  0.004847  0.204784  0.122529
    C   C25  0.799725  0.004992  0.132047  -0.195582
    H   H10  0.848278  0.003773  0.170206  0.135073
    C   C26  0.794006  0.003567  0.064119  0.301119
    O   O5   0.555970  0.003706  0.084153  -0.516607
    C   C27  0.614921  0.997956  0.125417  0.568400
    O   O6   0.427967  0.836604  0.092720  -0.499870
    O   O7   0.616876  0.985199  0.187544  -0.555492
    O   O8   0.459604  0.910781  0.190273  -0.477945
    C   C28  0.438296  0.846615  0.158324  0.547221
    Fe  Fe1  0.478960  0.983229  0.128572  1.420949
    O   O9   0.375023  0.940873  0.053129  -0.574362
    O   O10  0.440098  0.046303  0.019053  -0.461231
    C   C29  0.376665  0.984906  0.008338  0.621022
    O   O11  0.522479  0.080135  0.185991  -0.608080
    O   O12  0.415435  0.015267  0.212925  -0.553000
    C   C30  0.476503  0.076944  0.218455  0.593686
    O   O13  0.479299  0.927884  0.797950  -0.584538
    O   O14  0.609627  0.991383  0.831705  -0.588242
    C   C31  0.544289  0.934202  0.795776  0.624715
    O   O15  0.605487  0.050683  0.949500  -0.640250
    O   O16  0.544647  0.930959  0.954733  -0.559783
    C   C32  0.604442  0.995768  0.979706  0.868706
    O   O17  0.368315  0.014923  0.805020  -0.564695
    O   O18  0.534719  0.097961  0.817730  -0.582891
    C   C33  0.533277  0.151259  0.849021  0.672633
    O   O19  0.420934  0.975539  0.898151  -0.528541
    C   C34  0.365376  0.988635  0.861756  0.605043
    O   O20  0.516215  0.144576  0.905106  -0.523505
    Fe  Fe2  0.509163  0.013612  0.865593  1.442475
    C   C35  0.492308  0.606362  0.425941  0.044502
    C   C36  0.532391  0.679911  0.451984  -0.133650
    C   C37  0.437007  0.633014  0.541230  -0.110951
    C   C38  0.491794  0.611134  0.568639  -0.045891
    C   C39  0.499089  0.558935  0.534850  0.120799
    C   C40  0.491505  0.552397  0.465589  0.025704
    C   C41  0.510626  0.509002  0.572742  -0.195781
    C   C42  0.510069  0.449380  0.543940  0.017059
    C   C43  0.494996  0.438947  0.473051  0.112100
    C   C44  0.488425  0.491553  0.435873  -0.213901
    C   C45  0.529199  0.405889  0.588949  0.035292
    C   C46  0.566889  0.368332  0.580257  -0.100315
    C   C47  0.435183  0.306736  0.445993  -0.099523
    C   C48  0.480004  0.375503  0.435813  -0.030539
    H   H11  0.479594  0.483948  0.381947  0.182881
    H   H12  0.519065  0.517058  0.626400  0.169434
    C   C49  0.431139  0.253072  0.404555  -0.210207
    C   C50  0.472803  0.279619  0.361780  0.126694
    S   S1   0.514911  0.375887  0.367059  -0.014019
    S   S2   0.513339  0.399579  0.669516  -0.031182
    C   C51  0.552343  0.338721  0.682781  0.109090
    C   C52  0.578145  0.329636  0.631811  -0.196250
    C   C53  0.445198  0.687877  0.584635  -0.211429
    C   C54  0.507644  0.710462  0.645596  0.248205
    S   S3   0.553974  0.655388  0.655008  -0.032172
    S   S4   0.445363  0.586942  0.333783  -0.037191
    C   C55  0.475233  0.681778  0.338460  0.108821
    C   C56  0.521377  0.721602  0.403608  -0.177335
    C   C57  0.483969  0.236345  0.320750  -0.051864
    C   C58  0.553977  0.302840  0.738435  -0.053595
    C   C59  0.531380  0.770517  0.693525  -0.321134
    C   C60  0.454426  0.712658  0.282127  -0.054856
    S   S5   0.437562  0.139512  0.311872  0.055079
    C   C61  0.490028  0.142348  0.257342  0.019948
    C   C62  0.536962  0.210992  0.249220  -0.166881
    C   C63  0.533276  0.263841  0.284447  -0.105841
    C   C64  0.414346  0.674796  0.215476  -0.090510
    C   C65  0.403834  0.717773  0.168064  -0.176231
    C   C66  0.433830  0.788591  0.197775  0.016010
    S   S6   0.478638  0.806445  0.289461  0.079702
    S   S7   0.468656  0.808586  0.690423  0.091504
    C   C67  0.546671  0.875465  0.761386  0.032164
    C   C68  0.611655  0.867544  0.782584  -0.366259
    C   C69  0.603668  0.808695  0.745695  0.406279
    C   C70  0.528223  0.314361  0.792766  -0.096393
    C   C71  0.524069  0.264576  0.835821  -0.143889
    C   C72  0.544968  0.215557  0.817747  -0.044916
    S   S8   0.576115  0.229806  0.745215  0.094663
    H   H13  0.400672  0.196587  0.408091  0.177315
    H   H14  0.605562  0.296652  0.631872  0.169486
    H   H15  0.408706  0.712847  0.569266  0.165334
    H   H16  0.547683  0.779751  0.416630  0.166253
    H   H17  0.571247  0.222341  0.216823  0.181479
    H   H18  0.566402  0.320636  0.283328  0.152677
    H   H19  0.395252  0.618069  0.200725  0.165032
    H   H20  0.376312  0.698057  0.113200  0.165189
    H   H21  0.663844  0.903856  0.824677  0.217522
    H   H22  0.511650  0.355246  0.798356  0.160819
    H   H23  0.502738  0.262129  0.877414  0.163412
    H   H24  0.570290  0.704019  0.504689  0.140671
    H   H25  0.392569  0.610306  0.490669  0.138939
    H   H26  0.587955  0.369770  0.538702  0.126294
    H   H27  0.406312  0.295577  0.482908  0.139286
    C   C73  0.671330  0.795764  0.760316  -0.305534
    H   H28  0.722426  0.840671  0.799836  0.091581
    H   H29  0.659781  0.744840  0.781068  0.120639
    H   H30  0.685234  0.794773  0.713142  0.064090
