# generated using pymatgen
data_FeH8C24N4(ClO4)2
_symmetry_space_group_name_H-M   'P 1'
_cell_length_a   9.40597900
_cell_length_b   17.00667500
_cell_length_c   19.28240700
_cell_angle_alpha   103.47663400
_cell_angle_beta   85.62428800
_cell_angle_gamma   76.73291600
_symmetry_Int_Tables_number   1
_chemical_formula_structural   FeH8C24N4(ClO4)2
_chemical_formula_sum   'Fe2 H16 C48 N8 Cl4 O16'
_cell_volume   2891.93824891
_cell_formula_units_Z   2
loop_
 _symmetry_equiv_pos_site_id
 _symmetry_equiv_pos_as_xyz
  1  'x, y, z'
loop_
 _atom_site_type_symbol
 _atom_site_label
 _atom_site_symmetry_multiplicity
 _atom_site_fract_x
 _atom_site_fract_y
 _atom_site_fract_z
 _atom_site_occupancy
  Fe  Fe1  1  0.48457000  0.99758400  0.36378700  1
  Fe  Fe2  1  0.48014700  0.00327700  0.62930200  1
  H  H1  1  0.93498200  0.01320000  0.65641700  1
  H  H2  1  0.19053800  0.01048200  0.82963600  1
  H  H3  1  0.74142400  0.99730900  0.85679900  1
  H  H4  1  0.21562400  0.01947300  0.13872200  1
  H  H5  1  0.02599300  0.00018600  0.33857500  1
  H  H6  1  0.76756800  0.00431900  0.16654700  1
  H  H7  1  0.18514500  0.28663400  0.44242600  1
  H  H8  1  0.32710000  0.32017300  0.68477300  1
  H  H9  1  0.84171600  0.56249200  0.34589800  1
  H  H10  1  0.77585600  0.72410400  0.55770900  1
  H  H11  1  0.89014400  0.59899000  0.11373600  1
  H  H12  1  0.42665500  0.67604000  0.18118100  1
  H  H13  1  0.46965600  0.70749400  0.30751200  1
  H  H14  1  0.02349200  0.57085800  0.83040000  1
  H  H15  1  0.29252100  0.64525800  0.68294000  1
  H  H16  1  0.32841400  0.50914400  0.59594400  1
  C  C1  1  0.07724300  0.01151200  0.73790800  1
  C  C2  1  0.08755100  0.00920900  0.80872700  1
  C  C3  1  0.96615700  0.00561900  0.85247000  1
  C  C4  1  0.83650900  0.00161800  0.82419000  1
  C  C5  1  0.82534800  0.00561900  0.75427100  1
  C  C6  1  0.94448100  0.01198000  0.71165100  1
  C  C7  1  0.98317200  0.01060700  0.06768700  1
  C  C8  1  0.97315400  0.00649000  0.92849400  1
  C  C9  1  0.12093900  0.01494800  0.17147500  1
  C  C10  1  0.13343800  0.00982000  0.24099300  1
  C  C11  1  0.01513700  0.00281100  0.28374900  1
  C  C12  1  0.88221900  0.00281900  0.25788900  1
  C  C13  1  0.87057400  0.00601700  0.18731500  1
  C  C14  1  0.99086400  0.01098300  0.14357900  1
  C  C15  1  0.75576900  0.99980100  0.30607900  1
  C  C16  1  0.61744800  0.84104800  0.37512700  1
  C  C17  1  0.27134100  0.01271200  0.27018300  1
  C  C18  1  0.33209100  0.14649800  0.45964600  1
  C  C19  1  0.29583400  0.22616800  0.51434700  1
  C  C20  1  0.21644700  0.29534600  0.49589400  1
  C  C21  1  0.17560700  0.37340500  0.54425400  1
  C  C22  1  0.21936300  0.38182000  0.61230300  1
  C  C23  1  0.29505100  0.31202600  0.63146000  1
  C  C24  1  0.33141400  0.23342900  0.58388300  1
  C  C25  1  0.91105200  0.56696900  0.47877800  1
  C  C26  1  0.08368800  0.44351900  0.52184500  1
  C  C27  1  0.80190700  0.62367900  0.38293200  1
  C  C28  1  0.72907500  0.68910200  0.35757200  1
  C  C29  1  0.67513900  0.76858900  0.40407000  1
  C  C30  1  0.68770400  0.77928800  0.47709400  1
  C  C31  1  0.76123700  0.71309100  0.50152500  1
  C  C32  1  0.82181600  0.63560200  0.45437700  1
  C  C33  1  0.68939400  0.99933600  0.72413000  1
  C  C34  1  0.64067000  0.86159300  0.52859500  1
  C  C35  1  0.20564500  0.01202900  0.68969200  1
  C  C36  1  0.39405600  0.16066200  0.61160200  1
  C  C37  1  0.70465300  0.67101500  0.28195900  1
  C  C38  1  0.82264700  0.64013000  0.22730400  1
  C  C39  1  0.79788000  0.62247400  0.15641400  1
  C  C40  1  0.65581500  0.63523000  0.13983100  1
  C  C41  1  0.53810100  0.66603200  0.19416800  1
  C  C42  1  0.56242100  0.68396400  0.26509300  1
  C  C43  1  0.19523800  0.46333200  0.66401700  1
  C  C44  1  0.11050000  0.48063600  0.73018100  1
  C  C45  1  0.09075600  0.55712200  0.77891400  1
  C  C46  1  0.15606300  0.61622600  0.76198400  1
  C  C47  1  0.24106800  0.59897900  0.69617900  1
  C  C48  1  0.26074600  0.52264600  0.64728700  1
  N  N1  1  0.85411300  0.00321500  0.97012300  1
  N  N2  1  0.85901000  0.00508900  0.03882000  1
  N  N3  1  0.10213100  0.01394400  0.02606200  1
  N  N4  1  0.09724700  0.01205400  0.95738100  1
  N  N5  1  0.00102700  0.51232100  0.57056700  1
  N  N6  1  0.91670400  0.57356000  0.54934700  1
  N  N7  1  0.99163200  0.49773600  0.43013400  1
  N  N8  1  0.07639700  0.43683000  0.45138000  1
  Cl  Cl1  1  0.00429700  0.62695100  0.24682600  1
  Cl  Cl2  1  0.62498000  0.61276400  0.04974300  1
  Cl  Cl3  1  0.02243300  0.40744500  0.75178900  1
  Cl  Cl4  1  0.13072900  0.71325400  0.82399800  1
  O  O1  1  0.62610700  0.00243600  0.28445700  1
  O  O2  1  0.66407100  0.83986900  0.30891800  1
  O  O3  1  0.77164400  0.99510200  0.37214100  1
  O  O4  1  0.52747100  0.90962700  0.41629300  1
  O  O5  1  0.30511500  0.97529900  0.32124300  1
  O  O6  1  0.35654100  0.05558800  0.24793900  1
  O  O7  1  0.47047000  0.10678200  0.43509500  1
  O  O8  1  0.22558400  0.11760700  0.43181000  1
  O  O9  1  0.65327500  0.03502300  0.67226000  1
  O  O10  1  0.60925000  0.95357500  0.74570800  1
  O  O11  1  0.50620700  0.88875000  0.56396500  1
  O  O12  1  0.73322300  0.90898800  0.53869300  1
  O  O13  1  0.39795000  0.17178600  0.68103200  1
  O  O14  1  0.33771200  0.00140600  0.70961900  1
  O  O15  1  0.43283500  0.08400200  0.57001900  1
  O  O16  1  0.18975700  0.02023100  0.62452100  1
