# generated using pymatgen
data_Fe2H14C34N2O21
_symmetry_space_group_name_H-M   'P 1'
_cell_length_a   15.41643700
_cell_length_b   14.19736500
_cell_length_c   13.41544600
_cell_angle_alpha   93.21004800
_cell_angle_beta   101.97391700
_cell_angle_gamma   112.39600300
_symmetry_Int_Tables_number   1
_chemical_formula_structural   Fe2H14C34N2O21
_chemical_formula_sum   'Fe2 H14 C34 N2 O21'
_cell_volume   2625.96335132
_cell_formula_units_Z   1
loop_
 _symmetry_equiv_pos_site_id
 _symmetry_equiv_pos_as_xyz
  1  'x, y, z'
loop_
 _atom_site_type_symbol
 _atom_site_label
 _atom_site_symmetry_multiplicity
 _atom_site_fract_x
 _atom_site_fract_y
 _atom_site_fract_z
 _atom_site_occupancy
  Fe  Fe1  1  0.50205400  0.01064200  0.77472500  1
  Fe  Fe2  1  0.51703300  0.00842600  0.23051200  1
  H  H1  1  0.79595800  0.01059700  0.24445600  1
  H  H2  1  0.06208000  0.06720200  0.09618600  1
  H  H3  1  0.94396600  0.90646500  0.90469400  1
  H  H4  1  0.05099100  0.93630500  0.78474400  1
  H  H5  1  0.20756700  0.95994100  0.75476000  1
  H  H6  1  0.17173000  0.99406700  0.10825300  1
  H  H7  1  0.52013800  0.64436600  0.32375600  1
  H  H8  1  0.45754900  0.87602700  0.46569900  1
  H  H9  1  0.53355100  0.13261300  0.53069300  1
  H  H10  1  0.41263600  0.58568300  0.64873400  1
  H  H11  1  0.52142100  0.41257500  0.73546800  1
  H  H12  1  0.57255900  0.42007500  0.34791300  1
  H  H13  1  0.95072300  0.95095700  0.24561200  1
  H  H14  1  0.87454900  0.08480900  0.87294900  1
  C  C1  1  0.80431100  0.00793000  0.16646000  1
  C  C2  1  0.89085000  0.01318000  0.15024800  1
  C  C3  1  0.90301000  0.00689100  0.05176300  1
  C  C4  1  0.82833500  0.99963700  0.96905900  1
  C  C5  1  0.73915200  0.99214100  0.98440800  1
  C  C6  1  0.72758900  0.99521100  0.08508400  1
  C  C7  1  0.99822600  0.01523600  0.03897200  1
  C  C8  1  0.00757800  0.95881500  0.96195700  1
  C  C9  1  0.11230600  0.95424400  0.84974900  1
  C  C10  1  0.20075800  0.96701500  0.83311500  1
  C  C11  1  0.28097200  0.99288000  0.91457200  1
  C  C12  1  0.27076700  0.00006900  0.01556600  1
  C  C13  1  0.18134600  0.98961200  0.03098100  1
  C  C14  1  0.10280900  0.96911700  0.94831000  1
  C  C15  1  0.48639400  0.17954900  0.69285100  1
  C  C16  1  0.37343500  0.01332700  0.88826600  1
  C  C17  1  0.66209800  0.98823700  0.89500600  1
  C  C18  1  0.46790100  0.82228500  0.65039400  1
  C  C19  1  0.52690100  0.18984500  0.34613900  1
  C  C20  1  0.34810900  0.00912300  0.10666300  1
  C  C21  1  0.63734600  0.98576900  0.11161200  1
  C  C22  1  0.50426900  0.82545400  0.30279800  1
  C  C23  1  0.48563200  0.76339200  0.38519700  1
  C  C24  1  0.50191800  0.67487100  0.38833000  1
  C  C25  1  0.49340000  0.62325800  0.47248700  1
  C  C26  1  0.47734300  0.66721500  0.55952100  1
  C  C27  1  0.46650600  0.76011000  0.55779400  1
  C  C28  1  0.46559700  0.80385900  0.46845600  1
  C  C29  1  0.48203500  0.32867600  0.60734700  1
  C  C30  1  0.50132600  0.24183200  0.61012600  1
  C  C31  1  0.52349400  0.20367500  0.52724100  1
  C  C32  1  0.52164300  0.24768500  0.43803100  1
  C  C33  1  0.50652600  0.33822300  0.43609900  1
  C  C34  1  0.48898100  0.38048100  0.52312600  1
  N  N1  1  0.50864500  0.53084100  0.46805500  1
  N  N2  1  0.47314200  0.47261000  0.52810400  1
  O  O1  1  0.55453700  0.14860400  0.73268900  1
  O  O2  1  0.44851800  0.09996200  0.92824800  1
  O  O3  1  0.39735800  0.12791600  0.69930500  1
  O  O4  1  0.37537300  0.95473100  0.81020700  1
  O  O5  1  0.59191000  0.01468800  0.90822000  1
  O  O6  1  0.66552500  0.96275100  0.80087500  1
  O  O7  1  0.48993500  0.92089600  0.64721600  1
  O  O8  1  0.45583300  0.78425700  0.73587100  1
  O  O9  1  0.54143300  0.10533700  0.35789900  1
  O  O10  1  0.50474300  0.21280300  0.25350900  1
  O  O11  1  0.43296000  0.01476400  0.09722600  1
  O  O12  1  0.32930200  0.00271300  0.19766800  1
  O  O13  1  0.59012700  0.85636400  0.28391200  1
  O  O14  1  0.64270600  0.04399700  0.19426300  1
  O  O15  1  0.44829000  0.87433800  0.27348000  1
  O  O16  1  0.55502300  0.90945900  0.06481000  1
  O  O17  1  0.48125500  0.62579600  0.64917300  1
  O  O18  1  0.45843700  0.36564800  0.68940900  1
  O  O19  1  0.50369300  0.38099400  0.34720300  1
  O  O20  1  0.96423700  0.02252200  0.23253400  1
  O  O21  1  0.84593100  0.00951000  0.87359400  1
