# generated using pymatgen
data_V4H27C52BrO20
_symmetry_space_group_name_H-M   'P 1'
_cell_length_a   6.32409200
_cell_length_b   12.77492200
_cell_length_c   17.14132700
_cell_angle_alpha   111.23484800
_cell_angle_beta   95.22535800
_cell_angle_gamma   90.01659900
_symmetry_Int_Tables_number   1
_chemical_formula_structural   V4H27C52BrO20
_chemical_formula_sum   'V4 H27 C52 Br1 O20'
_cell_volume   1284.62761891
_cell_formula_units_Z   1
loop_
 _symmetry_equiv_pos_site_id
 _symmetry_equiv_pos_as_xyz
  1  'x, y, z'
loop_
 _atom_site_type_symbol
 _atom_site_label
 _atom_site_symmetry_multiplicity
 _atom_site_fract_x
 _atom_site_fract_y
 _atom_site_fract_z
 _atom_site_occupancy
  V  V1  1  0.05342400  0.51416100  0.50207900  1
  V  V2  1  0.55360600  0.48917700  0.50257400  1
  V  V3  1  0.86322300  0.73760800  0.00017400  1
  V  V4  1  0.36300300  0.76320200  0.99990900  1
  H  H1  1  0.95678100  0.89968500  0.55654100  1
  H  H2  1  0.94468200  0.25515300  0.60656100  1
  H  H3  1  0.84197300  0.57512000  0.78552300  1
  H  H4  1  0.95690100  0.74841700  0.60302800  1
  H  H5  1  0.97762000  0.67513300  0.71768500  1
  H  H6  1  0.08134700  0.00411200  0.89707500  1
  H  H7  1  0.95298000  0.09684200  0.58305400  1
  H  H8  1  0.05096200  0.16142500  0.92046500  1
  H  H9  1  0.91998900  0.50422600  0.90025000  1
  H  H10  1  0.10744800  0.23766200  0.28936000  1
  H  H11  1  0.79642200  0.03591800  0.17633000  1
  H  H12  1  0.65319700  0.17516100  0.30750300  1
  H  H13  1  0.27760900  0.06467900  0.21862100  1
  H  H14  1  0.50136900  0.08333300  0.94460600  1
  H  H15  1  0.57649000  0.39066800  0.89807300  1
  H  H16  1  0.47842300  0.54780100  0.71976500  1
  H  H17  1  0.45346200  0.16754000  0.55683800  1
  H  H18  1  0.42254500  0.89033200  0.89688500  1
  H  H19  1  0.34530100  0.70853500  0.78173200  1
  H  H20  1  0.43895400  0.85762200  0.60346200  1
  H  H21  1  0.54810000  0.25434400  0.91975000  1
  H  H22  1  0.44900700  0.99472400  0.58172600  1
  H  H23  1  0.45595700  0.36382700  0.60457700  1
  H  H24  1  0.29833600  0.63025800  0.16928200  1
  H  H25  1  0.60448200  0.54716400  0.28867300  1
  H  H26  1  0.77561200  0.65665500  0.22258800  1
  H  H27  1  0.14641500  0.62231100  0.29987200  1
  C  C1  1  0.34541400  0.66574100  0.61792200  1
  C  C2  1  0.31520700  0.54453600  0.38335100  1
  C  C3  1  0.81969900  0.33716900  0.38664500  1
  C  C4  1  0.84771000  0.45792400  0.62109200  1
  C  C5  1  0.03330800  0.83754300  0.81359800  1
  C  C6  1  0.89138400  0.41722100  0.68979000  1
  C  C7  1  0.98317000  0.80558700  0.66766200  1
  C  C8  1  0.99447200  0.76448400  0.73170800  1
  C  C9  1  0.05302800  0.95152500  0.83183400  1
  C  C10  1  0.02651300  0.99443600  0.76800900  1
  C  C11  1  0.99757600  0.91982600  0.68576300  1
  C  C12  1  0.01950800  0.10974100  0.78482400  1
  C  C13  1  0.99111500  0.14877000  0.71869900  1
  C  C14  1  0.97550000  0.07201300  0.63666700  1
  C  C15  1  0.97715100  0.95868300  0.62072500  1
  C  C16  1  0.02969300  0.18628600  0.86684600  1
  C  C17  1  0.00138100  0.29843900  0.88276100  1
  C  C18  1  0.96604000  0.33660400  0.81768000  1
  C  C19  1  0.96809900  0.26336000  0.73550200  1
  C  C20  1  0.92371900  0.44835700  0.83566400  1
  C  C21  1  0.87975600  0.48808100  0.77157400  1
  C  C22  1  0.93888100  0.30618700  0.67170500  1
  C  C23  1  0.12870600  0.02545000  0.18377200  1
  C  C24  1  0.94855400  0.07695900  0.20581900  1
  C  C25  1  0.79683000  0.22687400  0.31848600  1
  C  C26  1  0.95970300  0.18817700  0.27331600  1
  C  C27  1  0.39071100  0.77422500  0.68616700  1
  C  C28  1  0.53180600  0.47797500  0.81533800  1
  C  C29  1  0.42479000  0.88418900  0.83240200  1
  C  C30  1  0.38135700  0.78240900  0.76799700  1
  C  C31  1  0.43554300  0.86873600  0.66853400  1
  C  C32  1  0.46509800  0.97355900  0.73301200  1
  C  C33  1  0.46484400  0.97914800  0.81502700  1
  C  C34  1  0.48709700  0.07292900  0.71731500  1
  C  C35  1  0.51550200  0.17594400  0.78414200  1
  C  C36  1  0.52658500  0.17774600  0.86576200  1
  C  C37  1  0.49979900  0.08018200  0.88067300  1
  C  C38  1  0.47129500  0.07132700  0.63569600  1
  C  C39  1  0.47341700  0.16994000  0.62078000  1
  C  C40  1  0.49439100  0.27156800  0.68642800  1
  C  C41  1  0.52267800  0.27593900  0.76845400  1
  C  C42  1  0.48152000  0.36876300  0.66905800  1
  C  C43  1  0.49389300  0.47180600  0.73348500  1
  C  C44  1  0.54941600  0.38084900  0.83296700  1
  C  C45  1  0.29053800  0.58317200  0.31296500  1
  C  C46  1  0.45623700  0.57782800  0.26969100  1
  C  C47  1  0.62914600  0.65772000  0.18478300  1
  C  C48  1  0.44855000  0.62221000  0.20216500  1
  C  C49  1  0.63218600  0.70213300  0.11772400  1
  C  C50  1  0.54258000  0.58762500  0.88366500  1
  C  C51  1  0.04371600  0.79552500  0.88218100  1
  C  C52  1  0.13122100  0.91464900  0.11678700  1
  Br  Br1  1  0.00214600  0.40092700  0.99588500  1
  O  O1  1  0.48623000  0.48703200  0.38767400  1
  O  O2  1  0.16901400  0.61194700  0.61641300  1
  O  O3  1  0.94347200  0.41211100  0.55320600  1
  O  O4  1  0.21844000  0.59998100  0.45109700  1
  O  O5  1  0.98764200  0.39997800  0.38883400  1
  O  O6  1  0.44362700  0.64158800  0.55002900  1
  O  O7  1  0.32774700  0.42088200  0.50226500  1
  O  O8  1  0.71844200  0.35277300  0.45451600  1
  O  O9  1  0.67040600  0.50868200  0.61803800  1
  O  O10  1  0.82731200  0.58090800  0.49930900  1
  O  O11  1  0.37401900  0.64979800  0.88637200  1
  O  O12  1  0.80489900  0.75519700  0.11533700  1
  O  O13  1  0.99616900  0.89006800  0.04967600  1
  O  O14  1  0.67359800  0.60153800  0.95208300  1
  O  O15  1  0.87398700  0.73755000  0.88577600  1
  O  O16  1  0.49750100  0.66008200  0.05087400  1
  O  O17  1  0.58834800  0.82988800  0.99806300  1
  O  O18  1  0.17211200  0.85065900  0.95066000  1
  O  O19  1  0.30460800  0.85947500  0.11463300  1
  O  O20  1  0.08867400  0.66916700  0.99915300  1
