# Generated by REPEAT Assigner based on pymatgen
data_DB0-m3_o14_o21_f0_pcu.sym.58_sqe
_audit_creation_date              2022-05-24
_audit_creation_method            REPEAT_Assigner
_cell_length_a                    9.833912
_cell_length_b                    10.999862
_cell_length_c                    14.084050
_cell_angle_alpha                 89.991698
_cell_angle_beta                  85.293768
_cell_angle_gamma                 90.000209
_cell_volume                      1518.358692
_symmetry_space_group_name_H-M    P1
_symmetry_Int_Tables_number       1
loop_
    _symmetry_equiv_pos_site_id
    _symmetry_equiv_pos_as_xyz
    1  x,y,z
loop_
    _atom_site_type_symbol
    _atom_site_label
    _atom_site_fract_x
    _atom_site_fract_y
    _atom_site_fract_z
    _atom_type_partial_charge
    O   O1   0.385117  0.676975  0.488574  -0.573798
    O   O2   0.616698  0.680276  0.486419  -0.638065
    C   C1   0.499315  0.737019  0.484060  0.677605
    O   O3   0.368243  0.501851  0.637359  -0.726074
    O   O4   0.600956  0.506830  0.637105  -0.679726
    C   C2   0.479458  0.506606  0.681746  0.936095
    Zn  Zn1  0.346853  0.496395  0.495509  0.894036
    Zn  Zn2  0.656236  0.499574  0.495435  0.999252
    O   O5   0.385216  0.315931  0.500492  -0.366846
    O   O6   0.620444  0.317827  0.502175  -0.506913
    O   O7   0.400728  0.488474  0.353666  -0.561718
    O   O8   0.636751  0.488695  0.353551  -0.600427
    C   C3   0.502229  0.259499  0.505678  0.447925
    C   C4   0.523828  0.486223  0.309533  0.730149
    C   C5   0.535204  0.481428  0.207327  -0.186053
    C   C6   0.552738  0.474431  0.019093  0.100455
    C   C7   0.450213  0.515883  0.972267  0.023844
    C   C8   0.459601  0.512786  0.869819  0.009409
    C   C9   0.543540  0.478030  0.121512  -0.056647
    C   C10  0.468071  0.510103  0.783980  -0.279085
    H   H1   0.712954  0.888030  0.467885  0.113648
    C   C11  0.244659  0.890449  0.482382  -0.063900
    H   H2   0.231529  0.809681  0.441178  0.090653
    C   C12  0.126946  0.949767  0.514940  -0.168423
    H   H3   0.028640  0.910055  0.504767  0.121945
    C   C13  0.134781  0.056702  0.563700  0.013726
    C   C14  0.259165  0.112061  0.567972  -0.148849
    H   H4   0.261113  0.195008  0.608615  0.068941
    C   C15  0.377483  0.059774  0.524693  0.107429
    C   C16  0.372578  0.939015  0.496410  0.111699
    C   C17  0.494736  0.872388  0.482691  -0.161038
    C   C18  0.616873  0.935468  0.479824  -0.119729
    H   H5   0.715558  0.107309  0.477205  0.065393
    C   C19  0.618862  0.060569  0.487657  -0.069080
    C   C20  0.499792  0.124640  0.510262  -0.022723
    H   H6   0.884172  0.363996  0.396075  0.018259
    C   C21  0.851648  0.662300  0.613459  -0.212580
    H   H7   0.743899  0.670404  0.615627  0.190765
    C   C22  0.914236  0.738853  0.672921  -0.031207
    H   H8   0.854395  0.801286  0.718530  0.056068
    C   C23  0.052500  0.736325  0.673600  -0.002046
    H   H9   0.103172  0.796937  0.719746  0.069678
    C   C24  0.127420  0.657724  0.614644  -0.202137
    H   H10  0.234051  0.663888  0.618762  0.185884
    C   C25  0.066598  0.577254  0.554491  0.132601
    C   C26  0.925060  0.580060  0.554371  0.190836
    N   N1   0.859965  0.503880  0.497523  -0.116484
    C   C27  0.934604  0.425714  0.441492  0.108953
    C   C28  0.075358  0.422343  0.441020  -0.067453
    N   N2   0.142379  0.498010  0.497258  -0.017183
    I   I1   0.274192  0.586583  0.048130  0.015649
    I   I2   0.176326  0.293773  0.349197  0.085197
    I   I3   0.728864  0.403885  0.943241  0.003133
    I   I4   0.956433  0.141077  0.624624  0.008958
