# Generated by REPEAT Assigner based on pymatgen
data_DB0-m2_o10_o21_f0_pcu.sym.15
_audit_creation_date              2022-05-24
_audit_creation_method            REPEAT_Assigner
_cell_length_a                    14.031793
_cell_length_b                    8.785976
_cell_length_c                    7.335166
_cell_angle_alpha                 104.149490
_cell_angle_beta                  91.650183
_cell_angle_gamma                 90.598618
_cell_volume                      876.359524
_symmetry_space_group_name_H-M    P1
_symmetry_Int_Tables_number       1
loop_
    _symmetry_equiv_pos_site_id
    _symmetry_equiv_pos_as_xyz
    1  x,y,z
loop_
    _atom_site_type_symbol
    _atom_site_label
    _atom_site_fract_x
    _atom_site_fract_y
    _atom_site_fract_z
    _atom_type_partial_charge
    O   O1   0.510798  0.289621  0.624955  -0.471515
    O   O2   0.493586  0.710919  0.375308  -0.502304
    O   O3   0.487376  0.257727  0.305571  -0.510468
    O   O4   0.513134  0.742509  0.694119  -0.523952
    C   C1   0.497931  0.201539  0.454398  0.610763
    C   C2   0.502822  0.799794  0.546341  0.568298
    O   O5   0.370506  0.511097  0.673446  -0.626291
    O   O6   0.630688  0.476842  0.323780  -0.606909
    O   O7   0.354611  0.484539  0.355804  -0.638707
    O   O8   0.646816  0.510648  0.644856  -0.635040
    C   C3   0.318206  0.505652  0.521753  0.897922
    C   C4   0.683175  0.498922  0.479017  0.887274
    Cu  Cu1  0.509437  0.518303  0.685970  0.828659
    Cu  Cu2  0.491587  0.481972  0.313948  0.815814
    C   C5   0.785183  0.494812  0.460091  -0.300130
    C   C6   0.216763  0.507484  0.538894  -0.297520
    C   C7   0.973119  0.487613  0.423882  -0.073772
    C   C8   0.029613  0.510036  0.575954  -0.063475
    C   C9   0.131589  0.508304  0.555913  0.054243
    C   C10  0.870692  0.491067  0.443036  0.059528
    H   H1   0.997774  0.529657  0.712321  0.155545
    H   H2   0.007009  0.470261  0.288109  0.158810
    C   C11  0.497215  0.031193  0.427844  0.059970
    C   C12  0.504393  0.969160  0.574675  0.126824
    N   N1   0.478488  0.454385  0.035851  0.169370
    N   N2   0.523185  0.546486  0.964214  0.149281
    F   F1   0.487583  0.937590  0.251115  -0.125096
    F   F2   0.512896  0.063884  0.750423  -0.144218
    F   F3   0.435938  0.329874  0.916042  -0.014132
    F   F4   0.555782  0.674681  0.087445  -0.008772
