# generated using pymatgen
data_CuH17C38N(ClO)4
_symmetry_space_group_name_H-M   'P 1'
_cell_length_a   14.02813900
_cell_length_b   14.66695800
_cell_length_c   16.04543400
_cell_angle_alpha   90.00912400
_cell_angle_beta   89.98284800
_cell_angle_gamma   85.29459000
_symmetry_Int_Tables_number   1
_chemical_formula_structural   CuH17C38N(ClO)4
_chemical_formula_sum   'Cu2 H34 C76 N2 Cl8 O8'
_cell_volume   3290.22313646
_cell_formula_units_Z   2
loop_
 _symmetry_equiv_pos_site_id
 _symmetry_equiv_pos_as_xyz
  1  'x, y, z'
loop_
 _atom_site_type_symbol
 _atom_site_label
 _atom_site_symmetry_multiplicity
 _atom_site_fract_x
 _atom_site_fract_y
 _atom_site_fract_z
 _atom_site_occupancy
  Cu  Cu1  1  0.49672200  0.40947900  0.49805900  1
  Cu  Cu2  1  0.49744500  0.59206300  0.50007200  1
  H  H1  1  0.36543300  0.09494900  0.43073000  1
  H  H2  1  0.62789700  0.90781200  0.56591100  1
  H  H3  1  0.93914100  0.33258600  0.39945900  1
  H  H4  1  0.01126900  0.17497700  0.39271900  1
  H  H5  1  0.18262800  0.22325100  0.60463500  1
  H  H6  1  0.10959600  0.38042400  0.61316200  1
  H  H7  1  0.03355100  0.67480100  0.41105500  1
  H  H8  1  0.96410200  0.83269000  0.42948500  1
  H  H9  1  0.83585200  0.75687300  0.65703200  1
  H  H10  1  0.90649600  0.59938200  0.63962100  1
  H  H11  1  0.57862300  0.30832300  0.85103500  1
  H  H12  1  0.52200300  0.17849900  0.77374500  1
  H  H13  1  0.25087100  0.22081700  0.89331100  1
  H  H14  1  0.30671200  0.35095000  0.97006700  1
  H  H15  1  0.68855200  0.59218300  0.10418700  1
  H  H16  1  0.74766300  0.72501800  0.17442600  1
  H  H17  1  0.47655100  0.87338800  0.14019600  1
  H  H18  1  0.41688800  0.74020300  0.06989100  1
  H  H19  1  0.35178000  0.37087200  0.15391500  1
  H  H20  1  0.36745700  0.23707300  0.24668200  1
  H  H21  1  0.63462100  0.15017400  0.13417400  1
  H  H22  1  0.61973700  0.28404100  0.04199200  1
  H  H23  1  0.35765500  0.67571300  0.88913900  1
  H  H24  1  0.36003900  0.81441300  0.80382500  1
  H  H25  1  0.66333800  0.80281100  0.82665200  1
  H  H26  1  0.66124600  0.66356600  0.91204000  1
  H  H27  1  0.30100200  0.83995800  0.52365200  1
  H  H28  1  0.17637700  0.76792900  0.44721000  1
  H  H29  1  0.24022300  0.91633000  0.22897500  1
  H  H30  1  0.36662300  0.98650200  0.30389500  1
  H  H31  1  0.69296200  0.14383700  0.45030400  1
  H  H32  1  0.82672100  0.22041800  0.50858000  1
  H  H33  1  0.76934900  0.11405400  0.74861200  1
  H  H34  1  0.63450100  0.03909500  0.69116600  1
  C  C1  1  0.49005700  0.49882600  0.65894800  1
  C  C2  1  0.50404500  0.50263100  0.33918500  1
  C  C3  1  0.68065400  0.48518700  0.50439800  1
  C  C4  1  0.31349400  0.51614600  0.49437700  1
  C  C5  1  0.21077200  0.52365600  0.49826300  1
  C  C6  1  0.78345300  0.47685100  0.50695200  1
  C  C7  1  0.02217100  0.53504300  0.51460000  1
  C  C8  1  0.97294900  0.46045800  0.51190400  1
  C  C9  1  0.86975100  0.46980700  0.50912000  1
  C  C10  1  0.12475800  0.52846200  0.50444900  1
  C  C11  1  0.48362200  0.42041400  0.04422900  1
  C  C12  1  0.50593100  0.57746700  0.95420000  1
  C  C13  1  0.50373500  0.49976400  0.08484500  1
  C  C14  1  0.48721300  0.49807800  0.91336300  1
  C  C15  1  0.51643600  0.57796300  0.03988900  1
  C  C16  1  0.47598600  0.41918300  0.95821000  1
  C  C17  1  0.50756200  0.50193500  0.17448300  1
  C  C18  1  0.48474300  0.49758700  0.82364900  1
  C  C19  1  0.48616300  0.49796300  0.74844600  1
  C  C20  1  0.50713300  0.50298400  0.24968000  1
  C  C21  1  0.42302900  0.05337300  0.46023300  1
  C  C22  1  0.56963000  0.94900100  0.53699200  1
  C  C23  1  0.49748300  0.09554100  0.49575600  1
  C  C24  1  0.49504200  0.90647900  0.50146900  1
  C  C25  1  0.57205000  0.04313400  0.53301800  1
  C  C26  1  0.42150800  0.95908800  0.46205500  1
  C  C27  1  0.49591100  0.19404800  0.49571800  1
  C  C28  1  0.49756600  0.80768600  0.50180100  1
  C  C29  1  0.02154700  0.36812700  0.50517400  1
  C  C30  1  0.99314900  0.30938200  0.44441900  1
  C  C31  1  0.03375900  0.22067300  0.44038400  1
  C  C32  1  0.10200900  0.18983400  0.49771500  1
  C  C33  1  0.13000500  0.24781300  0.55896200  1
  C  C34  1  0.08950600  0.33657600  0.56308900  1
  C  C35  1  0.97290300  0.62657600  0.52299200  1
  C  C36  1  0.98962100  0.69254000  0.46484200  1
  C  C37  1  0.95049500  0.78105400  0.47504200  1
  C  C38  1  0.89534900  0.80411500  0.54404600  1
  C  C39  1  0.87840900  0.73849700  0.60247800  1
  C  C40  1  0.91747200  0.64985200  0.59223500  1
  C  C41  1  0.44620500  0.33793000  0.91555700  1
  C  C42  1  0.50675000  0.28895300  0.86077400  1
  C  C43  1  0.47502800  0.21604700  0.81740100  1
  C  C44  1  0.38292500  0.19193200  0.82877900  1
  C  C45  1  0.32308100  0.23965700  0.88447900  1
  C  C46  1  0.35465800  0.31244600  0.92780200  1
  C  C47  1  0.54903700  0.65774500  0.08274100  1
  C  C48  1  0.64163300  0.65374900  0.11243700  1
  C  C49  1  0.67495100  0.72827900  0.15165800  1
  C  C50  1  0.61578800  0.80715200  0.16146900  1
  C  C51  1  0.52298100  0.81143400  0.13231200  1
  C  C52  1  0.48953600  0.73675500  0.09282400  1
  C  C53  1  0.48465200  0.33549500  0.09186200  1
  C  C54  1  0.41310000  0.32155900  0.14846800  1
  C  C55  1  0.42198800  0.24671200  0.20063500  1
  C  C56  1  0.50210600  0.18588100  0.19597200  1
  C  C57  1  0.57179700  0.19790900  0.13752500  1
  C  C58  1  0.56308100  0.27267500  0.08551200  1
  C  C59  1  0.50920700  0.66133700  0.90591400  1
  C  C60  1  0.42485400  0.70377000  0.87563400  1
  C  C61  1  0.42609800  0.78143500  0.82788200  1
  C  C62  1  0.51172300  0.81669400  0.81025400  1
  C  C63  1  0.59622500  0.77490600  0.84079400  1
  C  C64  1  0.59505000  0.69704700  0.88876400  1
  C  C65  1  0.34441800  0.91655400  0.41840100  1
  C  C66  1  0.28926300  0.85602600  0.45853500  1
  C  C67  1  0.21825500  0.81604500  0.41576700  1
  C  C68  1  0.20092000  0.83731900  0.33315400  1
  C  C69  1  0.25395000  0.89926700  0.29363500  1
  C  C70  1  0.32505000  0.93898400  0.33615800  1
  C  C71  1  0.65385800  0.08703000  0.56716100  1
  C  C72  1  0.70895700  0.13753700  0.51605500  1
  C  C73  1  0.78457600  0.18027300  0.54862600  1
  C  C74  1  0.80618400  0.17205200  0.63218800  1
  C  C75  1  0.75246200  0.12061700  0.68305400  1
  C  C76  1  0.67676800  0.07799400  0.65055300  1
  N  N1  1  0.49828100  0.72847700  0.50174100  1
  N  N2  1  0.49584900  0.27311600  0.49626500  1
  Cl  Cl1  1  0.15121300  0.07636900  0.49403900  1
  Cl  Cl2  1  0.84919700  0.91734000  0.55839000  1
  Cl  Cl3  1  0.34092800  0.10192500  0.77149600  1
  Cl  Cl4  1  0.65942200  0.90169200  0.21060100  1
  Cl  Cl5  1  0.51780000  0.09548000  0.26658000  1
  Cl  Cl6  1  0.51248500  0.91415900  0.74822800  1
  Cl  Cl7  1  0.11176000  0.78624400  0.27796000  1
  Cl  Cl8  1  0.90167500  0.22683500  0.67383000  1
  O  O1  1  0.49529400  0.42045000  0.61937400  1
  O  O2  1  0.49881100  0.58103700  0.37874300  1
  O  O3  1  0.48925500  0.57793200  0.62085100  1
  O  O4  1  0.50495200  0.42363700  0.37731200  1
  O  O5  1  0.63564100  0.41035600  0.50524600  1
  O  O6  1  0.35847200  0.59110400  0.49308000  1
  O  O7  1  0.63639500  0.56731400  0.50108500  1
  O  O8  1  0.35781800  0.43415700  0.49714800  1
