# Generated by REPEAT Assigner based on pymatgen
data_DB0-m2_o9_o22_f0_nbo
_audit_creation_date              2022-05-24
_audit_creation_method            REPEAT_Assigner
_cell_length_a                    18.775008
_cell_length_b                    18.730824
_cell_length_c                    18.780354
_cell_angle_alpha                 109.283732
_cell_angle_beta                  109.817212
_cell_angle_gamma                 109.236181
_cell_volume                      5088.831953
_symmetry_space_group_name_H-M    P1
_symmetry_Int_Tables_number       1
loop_
    _symmetry_equiv_pos_site_id
    _symmetry_equiv_pos_as_xyz
    1  x,y,z
loop_
    _atom_site_type_symbol
    _atom_site_label
    _atom_site_fract_x
    _atom_site_fract_y
    _atom_site_fract_z
    _atom_type_partial_charge
    C   C1    0.385928  0.378757  0.492312  0.652858
    C   C2    0.807812  0.496906  0.807329  0.212593
    C   C3    0.988112  0.819460  0.306655  -0.050920
    C   C4    0.985234  0.820926  0.232366  0.002381
    C   C5    0.984385  0.753843  0.171785  -0.157602
    C   C6    0.981340  0.683084  0.181311  -0.072030
    C   C7    0.977297  0.678773  0.252566  0.098856
    C   C8    0.920371  0.874482  0.139620  -0.162258
    C   C9    0.920245  0.940894  0.123101  -0.107759
    C   C10   0.985840  0.025666  0.183153  -0.093334
    C   C11   0.051880  0.043758  0.259257  -0.118327
    C   C12   0.052422  0.977451  0.275750  -0.166434
    C   C13   0.849566  0.549430  0.771703  -0.041889
    C   C14   0.985716  0.892607  0.216585  0.196760
    C   C15   0.761777  0.537381  0.844254  -0.125703
    C   C16   0.439592  0.152384  0.404815  -0.114057
    C   C17   0.385044  0.185314  0.411401  -0.118860
    C   C18   0.384045  0.217345  0.488494  0.130475
    C   C19   0.435063  0.212630  0.557552  -0.109993
    C   C20   0.488278  0.178209  0.550409  -0.188429
    C   C21   0.491028  0.148481  0.474259  -0.010315
    C   C22   0.253700  0.184763  0.499064  -0.086440
    C   C23   0.624554  0.498503  0.618768  0.574026
    C   C24   0.182600  0.194224  0.493041  0.050088
    C   C25   0.174819  0.260377  0.478888  -0.055654
    C   C26   0.242887  0.320153  0.480240  -0.155389
    C   C27   0.314216  0.310546  0.486781  0.031900
    C   C28   0.316855  0.239063  0.491233  -0.082727
    C   C29   0.051071  0.261783  0.379286  -0.180186
    C   C30   0.977873  0.270706  0.359126  -0.092565
    C   C31   0.949695  0.286941  0.418506  -0.103008
    C   C32   0.995084  0.294718  0.498238  -0.092384
    C   C33   0.068321  0.285851  0.518398  -0.147708
    C   C34   0.626616  0.623244  0.500632  0.731959
    C   C35   0.095975  0.268104  0.458551  0.178833
    C   C36   0.224981  0.208953  0.118599  -0.061277
    C   C37   0.235441  0.290956  0.139892  -0.230191
    C   C38   0.238170  0.339757  0.215241  0.206928
    C   C39   0.227764  0.305159  0.267785  -0.205629
    C   C40   0.217366  0.223232  0.246451  0.003793
    C   C41   0.216198  0.175164  0.172055  -0.175426
    C   C42   0.183258  0.431297  0.179226  -0.188773
    C   C43   0.188705  0.510532  0.193956  -0.001015
    C   C44   0.260986  0.586607  0.267334  -0.036214
    C   C45   0.386831  0.500842  0.378186  0.753076
    C   C46   0.323395  0.580815  0.326677  -0.075859
    C   C47   0.317746  0.501442  0.312112  -0.083619
    C   C48   0.247798  0.426038  0.236399  0.035618
    C   C49   0.351558  0.737382  0.304877  -0.094126
    C   C50   0.365374  0.820306  0.325233  -0.148968
    C   C51   0.301653  0.840406  0.327679  -0.060974
    C   C52   0.224119  0.777519  0.309852  -0.191094
    C   C53   0.210120  0.694478  0.289133  -0.009077
    C   C54   0.273457  0.673730  0.285839  0.072522
    C   C55   0.562520  0.510121  0.196347  -0.126323
    C   C56   0.666691  0.404559  0.668614  -0.049789
    C   C57   0.630637  0.572623  0.279634  -0.109952
    C   C58   0.615849  0.621983  0.339971  0.162557
    C   C59   0.532876  0.610145  0.315748  -0.128184
    C   C60   0.465014  0.548314  0.232060  -0.122731
    C   C61   0.479680  0.497924  0.172578  -0.126804
    C   C62   0.754326  0.758296  0.432587  -0.132695
    C   C63   0.824362  0.826592  0.512351  -0.061889
    C   C64   0.829687  0.827800  0.588289  0.009099
    C   C65   0.763846  0.761070  0.582609  -0.159482
    C   C66   0.693856  0.692671  0.502650  -0.077674
    C   C67   0.741424  0.404392  0.733373  -0.075500
    C   C68   0.689445  0.690977  0.426856  0.025834
    C   C69   0.950373  0.882023  0.733273  -0.168213
    C   C70   0.015829  0.948520  0.816232  -0.092314
    C   C71   0.031423  0.032615  0.841889  -0.129229
    C   C72   0.981373  0.050153  0.784662  -0.096998
    C   C73   0.916352  0.983840  0.701381  -0.157418
    C   C74   0.901186  0.899575  0.675118  0.191336
    C   C75   0.006529  0.386684  0.891076  0.645970
    C   C76   0.876405  0.497442  0.877681  0.553918
    C   C77   0.987621  0.617947  0.117818  0.661486
    C   C78   0.778958  0.539572  0.693396  -0.096207
    C   C79   0.119677  0.510629  0.127639  0.705872
    C   C80   0.019506  0.135107  0.631835  0.678203
    C   C81   0.116951  0.129544  0.497222  0.669563
    C   C82   0.993837  0.889756  0.376510  0.742027
    C   C83   0.890604  0.895149  0.512557  0.749733
    C   C84   0.737687  0.152217  0.770462  -0.070951
    C   C85   0.822513  0.183189  0.787642  -0.184282
    C   C86   0.849266  0.221471  0.743169  0.274069
    C   C87   0.790072  0.224553  0.678438  -0.295593
    C   C88   0.705207  0.192911  0.660729  -0.003167
    C   C89   0.701211  0.548018  0.776295  -0.006419
    C   C90   0.678976  0.157297  0.707061  -0.179162
    C   C91   0.942477  0.191320  0.691107  -0.165908
    C   C92   0.022046  0.201754  0.702059  0.057456
    C   C93   0.097841  0.270014  0.779468  -0.053355
    C   C94   0.091372  0.331054  0.839239  -0.092227
    C   C95   0.010987  0.319955  0.827431  -0.101887
    C   C96   0.936263  0.246012  0.755177  0.036356
    C   C97   0.234164  0.286643  0.880865  -0.160384
    C   C98   0.316212  0.296415  0.904386  -0.089781
    C   C99   0.349792  0.299875  0.850021  -0.149998
    C   C100  0.692123  0.497552  0.688551  0.214612
    C   C101  0.301293  0.293744  0.772178  -0.058184
    C   C102  0.219241  0.283914  0.748639  -0.142036
    C   C103  0.184705  0.279358  0.802335  0.150618
    C   C104  0.879110  0.458381  0.230395  -0.088452
    C   C105  0.889539  0.526781  0.214328  -0.113591
    C   C106  0.968087  0.604135  0.265847  0.103346
    C   C107  0.033912  0.614444  0.337093  -0.019042
    C   C108  0.023555  0.546025  0.353115  -0.158285
    C   C109  0.946374  0.467755  0.299398  -0.149642
    C   C110  0.984522  0.748672  0.315961  -0.188059
    Cu  Cu1   0.509123  0.442111  0.437793  0.943786
    Cu  Cu2   0.505998  0.560203  0.558245  1.005632
    Cu  Cu3   0.937725  0.441405  0.002335  0.946333
    Cu  Cu4   0.056763  0.565640  0.004201  0.954449
    Cu  Cu5   0.067199  0.009006  0.560584  0.956903
    Cu  Cu6   0.941593  0.012715  0.447152  0.956317
    H   H1    0.652006  0.363870  0.601729  0.031354
    H   H2    0.810434  0.602070  0.903390  0.040506
    H   H3    0.794484  0.604662  0.699876  0.032315
    H   H4    0.891169  0.619347  0.822510  0.022411
    H   H5    0.532098  0.120547  0.468208  0.071042
    H   H6    0.440215  0.127416  0.344402  0.098765
    H   H7    0.341416  0.183814  0.355180  0.100208
    H   H8    0.431820  0.233953  0.616771  0.108680
    H   H9    0.526550  0.173406  0.604379  0.117499
    H   H10   0.257394  0.130104  0.504036  0.097847
    H   H11   0.238917  0.374017  0.473428  0.124212
    H   H12   0.608135  0.376688  0.674200  0.008961
    H   H13   0.072709  0.248898  0.332300  0.115231
    H   H14   0.942615  0.265022  0.296718  0.104121
    H   H15   0.892375  0.294068  0.402760  0.097792
    H   H16   0.973522  0.308196  0.545219  0.097548
    H   H17   0.104063  0.293548  0.581338  0.078338
    H   H18   0.208123  0.110926  0.155537  0.105443
    H   H19   0.223858  0.171255  0.060101  0.110583
    H   H20   0.242634  0.317376  0.097955  0.129003
    H   H21   0.227588  0.342206  0.325579  0.087532
    H   H22   0.210394  0.196823  0.288265  0.085372
    H   H23   0.715285  0.362498  0.758545  0.055241
    H   H24   0.128271  0.372266  0.120975  0.110430
    H   H25   0.378388  0.639724  0.385009  0.100439
    H   H26   0.401948  0.722287  0.302965  0.084335
    H   H27   0.426357  0.869668  0.339502  0.110575
    H   H28   0.312643  0.905522  0.343953  0.077732
    H   H29   0.174445  0.793479  0.312552  0.139174
    H   H30   0.149638  0.645831  0.276060  0.051753
    H   H31   0.426364  0.449468  0.107090  0.102726
    H   H32   0.574209  0.471127  0.149478  0.113956
    H   H33   0.695648  0.582448  0.297738  0.076172
    H   H34   0.773132  0.378118  0.700189  0.037066
    H   H35   0.521211  0.650320  0.361761  0.093377
    H   H36   0.400317  0.539705  0.212677  0.114451
    H   H37   0.750100  0.757288  0.373385  0.098621
    H   H38   0.767233  0.762413  0.641686  0.123361
    H   H39   0.938263  0.816137  0.713678  0.104308
    H   H40   0.054647  0.934615  0.861321  0.105266
    H   H41   0.082367  0.084689  0.907084  0.095948
    H   H42   0.992793  0.115900  0.805481  0.106892
    H   H43   0.876443  0.997861  0.657318  0.079706
    H   H44   0.612248  0.132267  0.693062  0.106931
    H   H45   0.775788  0.498102  0.633167  0.021405
    H   H46   0.716967  0.122962  0.805839  0.107086
    H   H47   0.868071  0.177039  0.835664  0.092229
    H   H48   0.810027  0.251329  0.641148  0.127814
    H   H49   0.659726  0.196333  0.610317  0.081850
    H   H50   0.883152  0.135136  0.634227  0.116724
    H   H51   0.149940  0.386745  0.897461  0.098690
    H   H52   0.208239  0.283287  0.923757  0.109837
    H   H53   0.354143  0.301140  0.965460  0.106378
    H   H54   0.414112  0.307527  0.868476  0.120212
    H   H55   0.327574  0.296706  0.729489  0.078673
    H   H56   0.889813  0.525539  0.750941  0.018230
    H   H57   0.182386  0.279760  0.688003  0.081582
    H   H58   0.938122  0.414243  0.312190  0.125240
    H   H59   0.817909  0.397609  0.189265  0.099699
    H   H60   0.835937  0.519776  0.161312  0.083373
    H   H61   0.094086  0.676112  0.380265  0.049436
    H   H62   0.075782  0.553982  0.408212  0.107373
    H   H63   0.983491  0.746093  0.372277  0.107180
    H   H64   0.986225  0.756963  0.115944  0.110527
    H   H65   0.868307  0.808192  0.092457  0.103977
    H   H66   0.868556  0.926467  0.063132  0.107178
    H   H67   0.728705  0.618205  0.796322  0.013172
    H   H68   0.985779  0.077892  0.170448  0.089686
    H   H69   0.103379  0.110048  0.306038  0.111134
    H   H70   0.105398  0.992235  0.334973  0.083610
    H   H71   0.636759  0.522825  0.772252  0.008857
    H   H72   0.723361  0.494593  0.861930  0.026448
    O   O1    0.421766  0.358392  0.445548  -0.525631
    O   O2    0.059945  0.469759  0.923521  -0.584821
    O   O3    0.854326  0.448525  0.911548  -0.620714
    O   O4    0.958826  0.549221  0.906953  -0.602304
    O   O5    0.942407  0.535185  0.091566  -0.536104
    O   O6    0.037256  0.643208  0.085800  -0.555728
    O   O7    0.037963  0.451073  0.091924  -0.613619
    O   O8    0.140187  0.566538  0.100697  -0.576203
    O   O9    0.072339  0.104067  0.649255  -0.529074
    O   O10   0.958152  0.101838  0.551251  -0.625379
    O   O11   0.142439  0.094529  0.543853  -0.622913
    O   O12   0.410900  0.460637  0.541613  -0.621314
    O   O13   0.033994  0.103235  0.451416  -0.512514
    O   O14   0.046557  0.914714  0.457644  -0.611813
    O   O15   0.944772  0.924694  0.358497  -0.595345
    O   O16   0.973966  0.925773  0.563477  -0.598513
    O   O17   0.864985  0.921722  0.457176  -0.611959
    O   O18   0.600850  0.452050  0.536633  -0.621492
    O   O19   0.590291  0.546983  0.640330  -0.613613
    O   O20   0.594599  0.541395  0.444200  -0.593010
    O   O21   0.600095  0.643771  0.556810  -0.612764
    O   O22   0.415141  0.446396  0.355556  -0.554428
    O   O23   0.420784  0.556729  0.460652  -0.644188
    O   O24   0.948920  0.362999  0.914975  -0.507501
