data_DB0-m29_o96_o100_f0_pts.sym.101_repeat
_audit_creation_date              2024-02-23
_audit_creation_method            'Materials Studio'
_symmetry_space_group_name_H-M    'P1'
_symmetry_Int_Tables_number       1
_symmetry_cell_setting            triclinic
loop_
_symmetry_equiv_pos_as_xyz
  x,y,z
_cell_length_a                    17.3455
_cell_length_b                    14.0585
_cell_length_c                    16.8070
_cell_angle_alpha                 91.6180
_cell_angle_beta                  91.0452
_cell_angle_gamma                 100.0409
loop_
_atom_site_label
_atom_site_type_symbol
_atom_site_fract_x
_atom_site_fract_y
_atom_site_fract_z
_atom_site_U_iso_or_equiv
_atom_site_adp_type
_atom_site_occupancy
C1     C     0.22121   0.04367   0.12824   0.00000  Uiso   1.00
C2     C     0.18126   0.10348   0.16957   0.00000  Uiso   1.00
C3     C     0.10822   0.09552   0.13413   0.00000  Uiso   1.00
N1     N     0.10271   0.03577   0.06928   0.00000  Uiso   1.00
C4     C     0.17182   0.00368   0.06465   0.00000  Uiso   1.00
C5     C     0.04951   0.13422   0.16414   0.00000  Uiso   1.00
C6     C     0.96755   0.10727   0.13682   0.00000  Uiso   1.00
C7     C     0.90468   0.09849   0.18667   0.00000  Uiso   1.00
C8     C     0.83880   0.07305   0.14083   0.00000  Uiso   1.00
C9     C     0.86228   0.06654   0.06308   0.00000  Uiso   1.00
N2     N     0.94146   0.08791   0.06093   0.00000  Uiso   1.00
C10    C     0.80887   0.03898   0.99419   0.00000  Uiso   1.00
C11    C     0.82757   0.98672   0.93245   0.00000  Uiso   1.00
C12    C     0.77733   0.94734   0.87072   0.00000  Uiso   1.00
C13    C     0.81692   0.89109   0.82574   0.00000  Uiso   1.00
C14    C     0.89128   0.90034   0.85879   0.00000  Uiso   1.00
N3     N     0.89772   0.95846   0.92468   0.00000  Uiso   1.00
C15    C     0.95017   0.86394   0.82719   0.00000  Uiso   1.00
C16    C     0.03162   0.89116   0.85624   0.00000  Uiso   1.00
C17    C     0.09521   0.90478   0.80747   0.00000  Uiso   1.00
C18    C     0.16040   0.92835   0.85470   0.00000  Uiso   1.00
C19    C     0.13555   0.92823   0.93271   0.00000  Uiso   1.00
N4     N     0.05640   0.90538   0.93308   0.00000  Uiso   1.00
C20    C     0.18738   0.94591   0.00408   0.00000  Uiso   1.00
H1     H     0.05973   0.17671   0.21907   0.00000  Uiso   1.00
H2     H     0.74946   0.05230   0.99838   0.00000  Uiso   1.00
H3     H     0.94009   0.82315   0.77134   0.00000  Uiso   1.00
H4     H     0.97596   0.09309   0.01059   0.00000  Uiso   1.00
H5     H     0.02149   0.89535   0.98303   0.00000  Uiso   1.00
C21    C     0.09871   0.90078   0.72595   0.00000  Uiso   1.00
C22    C     0.17158   0.92113   0.69227   0.00000  Uiso   1.00
C23    C     0.23914   0.94573   0.73989   0.00000  Uiso   1.00
C24    C     0.23375   0.95030   0.82231   0.00000  Uiso   1.00
C25    C     0.29663   0.03555   0.15269   0.00000  Uiso   1.00
C26    C     0.33021   0.09180   0.21758   0.00000  Uiso   1.00
C27    C     0.28919   0.15423   0.25720   0.00000  Uiso   1.00
C28    C     0.21350   0.15926   0.23436   0.00000  Uiso   1.00
C29    C     0.90206   0.10718   0.26805   0.00000  Uiso   1.00
C30    C     0.82948   0.08897   0.30264   0.00000  Uiso   1.00
C31    C     0.76127   0.06263   0.25612   0.00000  Uiso   1.00
C32    C     0.76567   0.05470   0.17369   0.00000  Uiso   1.00
C33    C     0.70182   0.95791   0.85083   0.00000  Uiso   1.00
C34    C     0.66634   0.90576   0.78471   0.00000  Uiso   1.00
C35    C     0.70622   0.84506   0.74098   0.00000  Uiso   1.00
C36    C     0.78277   0.83858   0.76026   0.00000  Uiso   1.00
H6     H     0.04654   0.88291   0.68860   0.00000  Uiso   1.00
H7     H     0.28557   0.97193   0.85943   0.00000  Uiso   1.00
H8     H     0.33098   0.98931   0.12308   0.00000  Uiso   1.00
H9     H     0.31552   0.19761   0.30799   0.00000  Uiso   1.00
H10    H     0.18222   0.20752   0.26650   0.00000  Uiso   1.00
H11    H     0.95462   0.12615   0.30469   0.00000  Uiso   1.00
H12    H     0.71367   0.03330   0.13661   0.00000  Uiso   1.00
H13    H     0.67077   0.00458   0.88516   0.00000  Uiso   1.00
H14    H     0.67836   0.80496   0.68928   0.00000  Uiso   1.00
H15    H     0.81360   0.79290   0.72465   0.00000  Uiso   1.00
H16    H     0.17504   0.91746   0.62817   0.00000  Uiso   1.00
H17    H     0.82680   0.09545   0.36669   0.00000  Uiso   1.00
O1     O     0.61954   0.02828   0.25300   0.00000  Uiso   1.00
C37    C     0.68536   0.04431   0.29515   0.00000  Uiso   1.00
O2     O     0.58038   0.83746   0.32260   0.00000  Uiso   1.00
O3     O     0.68306   0.04602   0.37314   0.00000  Uiso   1.00
O4     O     0.50087   0.91357   0.39798   0.00000  Uiso   1.00
C38    C     0.53625   0.83941   0.38497   0.00000  Uiso   1.00
Fe1    Fe    0.52888   0.02044   0.32381   0.00000  Uiso   1.00
O5     O     0.43225   0.00309   0.25365   0.00000  Uiso   1.00
O6     O     0.45266   0.16544   0.27699   0.00000  Uiso   1.00
C39    C     0.40927   0.08685   0.24641   0.00000  Uiso   1.00
O7     O     0.55943   0.14210   0.39079   0.00000  Uiso   1.00
O8     O     0.44577   0.08071   0.45004   0.00000  Uiso   1.00
C40    C     0.50728   0.14932   0.44539   0.00000  Uiso   1.00
C41    C     0.46999   0.55052   0.79691   0.00000  Uiso   1.00
C42    C     0.48217   0.25068   0.56380   0.00000  Uiso   1.00
C43    C     0.39052   0.53762   0.80920   0.00000  Uiso   1.00
C44    C     0.33843   0.51614   0.74560   0.00000  Uiso   1.00
C45    C     0.49741   0.54191   0.72103   0.00000  Uiso   1.00
C46    C     0.44532   0.52041   0.65731   0.00000  Uiso   1.00
C47    C     0.36578   0.50755   0.66969   0.00000  Uiso   1.00
C48    C     0.47187   0.34027   0.59339   0.00000  Uiso   1.00
C49    C     0.48699   0.42204   0.54732   0.00000  Uiso   1.00
C50    C     0.47446   0.51143   0.57666   0.00000  Uiso   1.00
C51    C     0.48938   0.59233   0.52965   0.00000  Uiso   1.00
C52    C     0.47807   0.68204   0.55876   0.00000  Uiso   1.00
C53    C     0.49601   0.76357   0.51433   0.00000  Uiso   1.00
C54    C     0.50775   0.24273   0.48651   0.00000  Uiso   1.00
C55    C     0.52573   0.32428   0.44208   0.00000  Uiso   1.00
C56    C     0.51478   0.41409   0.47132   0.00000  Uiso   1.00
C57    C     0.52982   0.49502   0.42435   0.00000  Uiso   1.00
C58    C     0.51732   0.58442   0.45371   0.00000  Uiso   1.00
C59    C     0.53257   0.66624   0.40768   0.00000  Uiso   1.00
C60    C     0.50705   0.46571   0.27985   0.00000  Uiso   1.00
C61    C     0.55905   0.48609   0.34374   0.00000  Uiso   1.00
C62    C     0.63859   0.49790   0.33156   0.00000  Uiso   1.00
C63    C     0.53455   0.45718   0.20399   0.00000  Uiso   1.00
C64    C     0.61402   0.46902   0.19190   0.00000  Uiso   1.00
C65    C     0.52206   0.75577   0.43723   0.00000  Uiso   1.00
C66    C     0.66602   0.48938   0.25567   0.00000  Uiso   1.00
H18    H     0.51081   0.56740   0.84677   0.00000  Uiso   1.00
H19    H     0.36904   0.54438   0.86870   0.00000  Uiso   1.00
H20    H     0.27613   0.50606   0.75526   0.00000  Uiso   1.00
H21    H     0.55972   0.55209   0.71139   0.00000  Uiso   1.00
H22    H     0.32494   0.49076   0.61984   0.00000  Uiso   1.00
H23    H     0.45219   0.34450   0.65364   0.00000  Uiso   1.00
H24    H     0.45914   0.69197   0.61866   0.00000  Uiso   1.00
H25    H     0.54429   0.31439   0.38203   0.00000  Uiso   1.00
H26    H     0.55250   0.66206   0.34753   0.00000  Uiso   1.00
H27    H     0.44475   0.45637   0.28933   0.00000  Uiso   1.00
H28    H     0.67935   0.51383   0.38154   0.00000  Uiso   1.00
H29    H     0.49381   0.44119   0.15400   0.00000  Uiso   1.00
H30    H     0.63556   0.46233   0.13242   0.00000  Uiso   1.00
H31    H     0.72832   0.49864   0.24616   0.00000  Uiso   1.00
O9     O     0.56806   0.99965   0.74840   0.00000  Uiso   1.00
O10    O     0.54152   0.83691   0.72810   0.00000  Uiso   1.00
C67    C     0.58735   0.91416   0.75788   0.00000  Uiso   1.00
O11    O     0.44213   0.86478   0.60788   0.00000  Uiso   1.00
O12    O     0.55841   0.92463   0.55289   0.00000  Uiso   1.00
C68    C     0.49607   0.85688   0.55538   0.00000  Uiso   1.00
O13    O     0.42223   0.16860   0.67745   0.00000  Uiso   1.00
O14    O     0.38083   0.97766   0.74558   0.00000  Uiso   1.00
C69    C     0.31574   0.96462   0.70224   0.00000  Uiso   1.00
O15    O     0.50344   0.09309   0.60377   0.00000  Uiso   1.00
C70    C     0.46764   0.16706   0.61603   0.00000  Uiso   1.00
O16    O     0.31943   0.96472   0.62435   0.00000  Uiso   1.00
Fe2    Fe    0.47277   0.98522   0.67643   0.00000  Uiso   1.00
C71    C     0.25688   0.90298   0.00352   0.00000  Uiso   1.00
N5     N     0.31224   0.86742   0.00214   0.00000  Uiso   1.00
