# generated using pymatgen
data_ZnH9C25(NO3)2
_symmetry_space_group_name_H-M   'P 1'
_cell_length_a   8.52783800
_cell_length_b   13.03524600
_cell_length_c   17.46382000
_cell_angle_alpha   90.61139100
_cell_angle_beta   93.32086900
_cell_angle_gamma   86.46131300
_symmetry_Int_Tables_number   1
_chemical_formula_structural   ZnH9C25(NO3)2
_chemical_formula_sum   'Zn2 H18 C50 N4 O12'
_cell_volume   1934.31715644
_cell_formula_units_Z   2
loop_
 _symmetry_equiv_pos_site_id
 _symmetry_equiv_pos_as_xyz
  1  'x, y, z'
loop_
 _atom_site_type_symbol
 _atom_site_label
 _atom_site_symmetry_multiplicity
 _atom_site_fract_x
 _atom_site_fract_y
 _atom_site_fract_z
 _atom_site_occupancy
  Zn  Zn1  1  0.55562200  0.49596900  0.91252300  1
  Zn  Zn2  1  0.56979800  0.50933700  0.08323600  1
  H  H1  1  0.64019200  0.81469900  0.00749200  1
  H  H2  1  0.60904500  0.00004200  0.01177600  1
  H  H3  1  0.05871800  0.43114400  0.02271200  1
  H  H4  1  0.35060200  0.16355800  0.98515900  1
  H  H5  1  0.24628800  0.00562900  0.98599600  1
  H  H6  1  0.71310600  0.16316700  0.00823900  1
  H  H7  1  0.28144400  0.85135600  0.00708200  1
  H  H8  1  0.06143200  0.57517500  0.96986700  1
  H  H9  1  0.53319500  0.65148700  0.81091500  1
  H  H10  1  0.57118500  0.24178500  0.68018700  1
  H  H11  1  0.54129100  0.85000100  0.57380300  1
  H  H12  1  0.54493500  0.85256000  0.43571300  1
  H  H13  1  0.57558100  0.15456400  0.56044600  1
  H  H14  1  0.55390700  0.76486700  0.31517300  1
  H  H15  1  0.59734700  0.25720100  0.30063500  1
  H  H16  1  0.58851900  0.35277400  0.18682200  1
  H  H17  1  0.56352100  0.33010100  0.80131300  1
  H  H18  1  0.56358700  0.67550100  0.19381600  1
  C  C1  1  0.02398100  0.86657600  0.99954600  1
  C  C2  1  0.89160200  0.80944000  0.00043200  1
  C  C3  1  0.74395200  0.85798200  0.00605300  1
  C  C4  1  0.72557500  0.96331400  0.00819100  1
  C  C5  1  0.85378700  0.02164600  0.00391800  1
  C  C6  1  0.00352900  0.97422500  0.99971600  1
  C  C7  1  0.83033300  0.12787300  0.00394700  1
  C  C8  1  0.95661800  0.18853000  0.00141600  1
  C  C9  1  0.10556500  0.14152800  0.99565400  1
  C  C10  1  0.12831400  0.03615200  0.99327300  1
  C  C11  1  0.93890400  0.29515700  0.00678000  1
  C  C12  1  0.07114700  0.35000600  0.01249600  1
  C  C13  1  0.21702900  0.30391600  0.00172500  1
  C  C14  1  0.23463900  0.19960000  0.99209100  1
  C  C15  1  0.17272900  0.81401200  0.99950300  1
  C  C16  1  0.18514900  0.70870100  0.98934300  1
  C  C17  1  0.05153100  0.65611100  0.98126600  1
  C  C18  1  0.90730800  0.70361800  0.99322600  1
  C  C19  1  0.35018400  0.36773900  0.99957100  1
  C  C20  1  0.33590800  0.64768000  0.99210100  1
  C  C21  1  0.77476500  0.63840800  0.99599000  1
  C  C22  1  0.78803300  0.35632100  0.00383000  1
  C  C23  1  0.54156300  0.58259400  0.77636800  1
  C  C24  1  0.55697700  0.40274100  0.77165400  1
  C  C25  1  0.53979300  0.68183400  0.66047400  1
  C  C26  1  0.54561600  0.58786200  0.69742600  1
  C  C27  1  0.55315400  0.49797900  0.65533100  1
  C  C28  1  0.55867000  0.40505100  0.69264400  1
  C  C29  1  0.56680200  0.31470600  0.65099600  1
  C  C30  1  0.54191000  0.77764000  0.54327500  1
  C  C31  1  0.54232300  0.68476700  0.58118100  1
  C  C32  1  0.54994300  0.59405700  0.53941000  1
  C  C33  1  0.54553200  0.77962600  0.46461200  1
  C  C34  1  0.55162900  0.68926600  0.42311200  1
  C  C35  1  0.55509000  0.50081800  0.57645200  1
  C  C36  1  0.56269600  0.41024100  0.53471800  1
  C  C37  1  0.56876000  0.31738400  0.57210700  1
  C  C38  1  0.57471100  0.22689400  0.53069900  1
  C  C39  1  0.55445200  0.59640100  0.46052700  1
  C  C40  1  0.56259500  0.50588800  0.41890700  1
  C  C41  1  0.56535500  0.41247400  0.45577900  1
  C  C42  1  0.57175700  0.32163900  0.41381400  1
  C  C43  1  0.57259400  0.22822300  0.45164400  1
  C  C44  1  0.55629600  0.69197700  0.34429400  1
  C  C45  1  0.56480200  0.60154800  0.30277600  1
  C  C46  1  0.56811900  0.50897700  0.34027600  1
  C  C47  1  0.57816500  0.41931600  0.29859600  1
  C  C48  1  0.58191800  0.32579300  0.33497800  1
  C  C49  1  0.56901900  0.60310400  0.22376200  1
  C  C50  1  0.58321600  0.42325700  0.21996600  1
  N  N1  1  0.54854700  0.49118600  0.81201100  1
  N  N2  1  0.57714600  0.51424200  0.18374000  1
  N  N3  1  0.53189500  0.77514600  0.70384200  1
  N  N4  1  0.56666700  0.13308700  0.41064500  1
  O  O1  1  0.40341400  0.40744000  0.06441200  1
  O  O2  1  0.39825900  0.39168700  0.93239900  1
  O  O3  1  0.38186800  0.60498600  0.92799800  1
  O  O4  1  0.39904000  0.62038500  0.05987700  1
  O  O5  1  0.72159600  0.59815000  0.93142400  1
  O  O6  1  0.72730100  0.61360800  0.06320100  1
  O  O7  1  0.74293900  0.39990200  0.06774300  1
  O  O8  1  0.72628800  0.38482100  0.93596600  1
  O  O9  1  0.41107800  0.84045300  0.69372200  1
  O  O10  1  0.64698500  0.79618200  0.75247000  1
  O  O11  1  0.46525200  0.12490100  0.35269700  1
  O  O12  1  0.62874400  0.04975500  0.44317900  1
