# generated using pymatgen
data_Zn2H44C55(NO3)6
_symmetry_space_group_name_H-M   'P 1'
_cell_length_a   13.64377400
_cell_length_b   15.92723300
_cell_length_c   17.10779200
_cell_angle_alpha   90.89066200
_cell_angle_beta   88.99203800
_cell_angle_gamma   103.26228300
_symmetry_Int_Tables_number   1
_chemical_formula_structural   Zn2H44C55(NO3)6
_chemical_formula_sum   'Zn2 H44 C55 N6 O18'
_cell_volume   3617.69031729
_cell_formula_units_Z   1
loop_
 _symmetry_equiv_pos_site_id
 _symmetry_equiv_pos_as_xyz
  1  'x, y, z'
loop_
 _atom_site_type_symbol
 _atom_site_label
 _atom_site_symmetry_multiplicity
 _atom_site_fract_x
 _atom_site_fract_y
 _atom_site_fract_z
 _atom_site_occupancy
  Zn  Zn1  1  0.51508200  0.40707900  0.49282300  1
  Zn  Zn2  1  0.51000800  0.59657800  0.48608100  1
  H  H1  1  0.82269900  0.69594000  0.54913700  1
  H  H2  1  0.15160100  0.68084300  0.59118700  1
  H  H3  1  0.00089400  0.72629800  0.57872100  1
  H  H4  1  0.83422800  0.44755800  0.46440300  1
  H  H5  1  0.20896700  0.31123700  0.42767100  1
  H  H6  1  0.92312300  0.36451500  0.43243500  1
  H  H7  1  0.03003800  0.27019600  0.40324000  1
  H  H8  1  0.25196800  0.57886900  0.57022400  1
  H  H9  1  0.44740500  0.39213700  0.89080100  1
  H  H10  1  0.54890000  0.36250900  0.24717700  1
  H  H11  1  0.55836700  0.64964900  0.72915500  1
  H  H12  1  0.49988500  0.60867600  0.09523600  1
  H  H13  1  0.56809300  0.66319000  0.87054300  1
  H  H14  1  0.50482500  0.61862600  0.23477800  1
  H  H15  1  0.45276900  0.25352300  0.38811400  1
  H  H16  1  0.35858400  0.68862900  0.43634200  1
  H  H17  1  0.59648000  0.30206900  0.60300000  1
  H  H18  1  0.63856200  0.91613800  0.52776300  1
  H  H19  1  0.64875300  0.76747300  0.52793200  1
  H  H20  1  0.65724000  0.21618900  0.04826000  1
  H  H21  1  0.53817500  0.15699100  0.08916600  1
  H  H22  1  0.74273500  0.20127600  0.17075300  1
  H  H23  1  0.67806700  0.09636800  0.13380300  1
  H  H24  1  0.62463100  0.14601500  0.21500500  1
  H  H25  1  0.34430700  0.99413400  0.26464200  1
  H  H26  1  0.43310200  0.07456600  0.20922000  1
  H  H27  1  0.21759000  0.08306100  0.25687500  1
  H  H28  1  0.25941300  0.05622700  0.16055700  1
  H  H29  1  0.30636700  0.16316700  0.20149800  1
  H  H30  1  0.16872700  0.84484800  0.32635200  1
  H  H31  1  0.11003900  0.80574000  0.41900300  1
  H  H32  1  0.14138400  0.69532000  0.27602400  1
  H  H33  1  0.02372200  0.71965600  0.30831000  1
  H  H34  1  0.08493400  0.65499400  0.36859700  1
  H  H35  1  0.64143600  0.05363000  0.75495000  1
  H  H36  1  0.76471700  0.08518200  0.70835800  1
  H  H37  1  0.61645000  0.90967800  0.68841100  1
  H  H38  1  0.72414100  0.93218600  0.75211500  1
  H  H39  1  0.74280900  0.94166400  0.64742800  1
  H  H40  1  0.39620600  0.19435000  0.69095400  1
  H  H41  1  0.29363700  0.19688300  0.75936300  1
  H  H42  1  0.48892700  0.14123500  0.79572100  1
  H  H43  1  0.36638100  0.07018900  0.78080100  1
  H  H44  1  0.38654400  0.14370200  0.86387600  1
  C  C1  1  0.52394700  0.49577300  0.33650900  1
  C  C2  1  0.31516300  0.45764100  0.48464300  1
  C  C3  1  0.50036800  0.50769600  0.64256100  1
  C  C4  1  0.70929800  0.54598600  0.49594100  1
  C  C5  1  0.96575600  0.66494500  0.55227700  1
  C  C6  1  0.81882600  0.56855200  0.50516400  1
  C  C7  1  0.16243300  0.35473100  0.44579400  1
  C  C8  1  0.06147700  0.33164200  0.43106300  1
  C  C9  1  0.00047300  0.38715200  0.44850500  1
  C  C10  1  0.03880300  0.46673600  0.48460800  1
  C  C11  1  0.14121400  0.48854500  0.50257700  1
  C  C12  1  0.97784900  0.52520100  0.50293300  1
  C  C13  1  0.02110500  0.60383000  0.53754500  1
  C  C14  1  0.11961200  0.62149900  0.56019100  1
  C  C15  1  0.17801000  0.56357700  0.54542400  1
  C  C16  1  0.87467000  0.50789500  0.48842800  1
  C  C17  1  0.86522500  0.64806500  0.53514000  1
  C  C18  1  0.20418400  0.43365700  0.47961000  1
  C  C19  1  0.52694500  0.49100800  0.25076000  1
  C  C20  1  0.51465100  0.55972800  0.20687500  1
  C  C21  1  0.51201600  0.55353800  0.12645300  1
  C  C22  1  0.52175600  0.47801800  0.08858400  1
  C  C23  1  0.53606000  0.40925200  0.13264500  1
  C  C24  1  0.53899100  0.41650800  0.21327900  1
  C  C25  1  0.47491900  0.44893700  0.85598700  1
  C  C26  1  0.46444500  0.44067600  0.77577100  1
  C  C27  1  0.51275500  0.52888300  0.89046600  1
  C  C28  1  0.49699700  0.51286100  0.72866100  1
  C  C29  1  0.53271900  0.59255100  0.76395300  1
  C  C30  1  0.53942500  0.60049700  0.84405300  1
  C  C31  1  0.58103400  0.78347000  0.50720000  1
  C  C32  1  0.57409900  0.86847700  0.50756800  1
  C  C33  1  0.48624200  0.88975700  0.48368600  1
  C  C34  1  0.40763900  0.82414500  0.45750400  1
  C  C35  1  0.41913700  0.74006000  0.45644800  1
  C  C36  1  0.49971100  0.14582500  0.43512400  1
  C  C37  1  0.48626500  0.22921500  0.43712400  1
  C  C38  1  0.54517200  0.11581000  0.49828100  1
  C  C39  1  0.56792700  0.25636100  0.55693700  1
  C  C40  1  0.58066400  0.17268400  0.55955100  1
  C  C41  1  0.55017800  0.32840600  0.09575400  1
  C  C42  1  0.61148300  0.20127900  0.10266500  1
  C  C43  1  0.66796400  0.15830500  0.15933500  1
  C  C44  1  0.47230000  0.09553400  0.36242900  1
  C  C45  1  0.36877000  0.06381900  0.25124300  1
  C  C46  1  0.28223100  0.09355200  0.21512400  1
  C  C47  1  0.31190700  0.84096100  0.43005800  1
  C  C48  1  0.15506200  0.79075200  0.36822600  1
  C  C49  1  0.09739300  0.70976800  0.32758900  1
  C  C50  1  0.63070900  0.14735300  0.62854500  1
  C  C51  1  0.68738600  0.04444700  0.70272500  1
  C  C52  1  0.69299100  0.95071200  0.69722100  1
  C  C53  1  0.41258200  0.35564200  0.74480500  1
  C  C54  1  0.37610500  0.20337800  0.75314100  1
  C  C55  1  0.40651700  0.13504900  0.80162500  1
  N  N1  1  0.51661700  0.46981300  0.00612900  1
  N  N2  1  0.52135900  0.53936400  0.97254500  1
  N  N3  1  0.50406300  0.72075600  0.48196400  1
  N  N4  1  0.47669400  0.97649200  0.48359100  1
  N  N5  1  0.55564900  0.02948000  0.50109900  1
  N  N6  1  0.52071700  0.28280600  0.49698600  1
  O  O1  1  0.52264200  0.42543800  0.37576500  1
  O  O2  1  0.52004500  0.56938600  0.37051700  1
  O  O3  1  0.36425800  0.39579800  0.48797700  1
  O  O4  1  0.36153200  0.53921200  0.48143000  1
  O  O5  1  0.50666300  0.43475600  0.60837500  1
  O  O6  1  0.50180500  0.57808600  0.60316000  1
  O  O7  1  0.66376100  0.46402900  0.49659300  1
  O  O8  1  0.66076200  0.60810700  0.49203500  1
  O  O9  1  0.52136800  0.30814800  0.02956100  1
  O  O10  1  0.59551500  0.27604100  0.13582700  1
  O  O11  1  0.52109800  0.04458200  0.33919800  1
  O  O12  1  0.39658700  0.10995000  0.31880500  1
  O  O13  1  0.29156000  0.91092600  0.44086300  1
  O  O14  1  0.24521800  0.77764500  0.39337200  1
  O  O15  1  0.66019400  0.20070800  0.67986800  1
  O  O16  1  0.64372400  0.06655100  0.63675400  1
  O  O17  1  0.35155000  0.35010900  0.69261600  1
  O  O18  1  0.42602800  0.28346700  0.77897000  1
