# Generated by REPEAT Assigner based on pymatgen
data_DB0-m3_o10_o12_f0_pcu.sym.3_sqe
_audit_creation_date              2022-05-24
_audit_creation_method            REPEAT_Assigner
_cell_length_a                    7.806920
_cell_length_b                    8.903106
_cell_length_c                    11.215306
_cell_angle_alpha                 88.437786
_cell_angle_beta                  95.835630
_cell_angle_gamma                 91.456007
_cell_volume                      775.000260
_symmetry_space_group_name_H-M    P1
_symmetry_Int_Tables_number       1
loop_
    _symmetry_equiv_pos_site_id
    _symmetry_equiv_pos_as_xyz
    1  x,y,z
loop_
    _atom_site_type_symbol
    _atom_site_label
    _atom_site_fract_x
    _atom_site_fract_y
    _atom_site_fract_z
    _atom_type_partial_charge
    O   O1   0.385632  0.735960  0.507346  -0.671185
    O   O2   0.614369  0.264040  0.492654  -0.671207
    O   O3   0.675498  0.709794  0.488356  -0.689002
    O   O4   0.324503  0.290207  0.511644  -0.688990
    C   C1   0.540782  0.792246  0.497150  0.818068
    C   C2   0.459219  0.207755  0.502850  0.818183
    O   O5   0.403714  0.507936  0.687956  -0.604181
    O   O6   0.596288  0.492065  0.312044  -0.604250
    O   O7   0.693113  0.482230  0.667844  -0.630800
    O   O8   0.306888  0.517771  0.332156  -0.630834
    C   C3   0.564413  0.493493  0.733281  0.743240
    C   C4   0.435588  0.506508  0.266719  0.743421
    Zn  Zn1  0.308919  0.516923  0.512910  1.012419
    Zn  Zn2  0.691082  0.483078  0.487090  1.012435
    H   H1   0.653374  0.486007  0.103209  0.119090
    H   H2   0.346627  0.513994  0.896791  0.119101
    C   C5   0.603536  0.489947  0.863557  -0.363190
    C   C6   0.396465  0.510054  0.136443  -0.363326
    C   C7   0.478962  0.501740  0.934847  -0.009279
    C   C8   0.521039  0.498261  0.065153  -0.009234
    H   H3   0.264403  0.522160  0.097745  0.174644
    H   H4   0.735598  0.477841  0.902254  0.174614
    C   C9   0.565974  0.955532  0.495555  -0.233339
    C   C10  0.434027  0.044469  0.504445  -0.233577
    H   H5   0.693101  0.003943  0.487121  0.140740
    H   H6   0.306900  0.996058  0.512878  0.140799
    N   N1   0.942375  0.461851  0.471004  0.047453
    N   N2   0.057626  0.538149  0.528996  0.047445
    C   C11  0.985122  0.413631  0.356753  -0.198936
    H   H7   0.873136  0.350737  0.312120  0.092783
    H   H8   0.011005  0.513217  0.299338  0.113116
    H   H9   0.095402  0.337472  0.368554  0.138412
    C   C12  0.014879  0.586369  0.643247  -0.199017
    H   H10  0.126865  0.649264  0.687880  0.092798
    H   H11  0.904599  0.662529  0.631446  0.138455
    H   H12  0.988996  0.486784  0.700662  0.113131
