# generated using pymatgen
data_ZnH14C25NO4
_symmetry_space_group_name_H-M   'P 1'
_cell_length_a   8.51851300
_cell_length_b   13.07741100
_cell_length_c   17.51315100
_cell_angle_alpha   90.60481900
_cell_angle_beta   93.28423600
_cell_angle_gamma   86.47659900
_symmetry_Int_Tables_number   1
_chemical_formula_structural   ZnH14C25NO4
_chemical_formula_sum   'Zn2 H28 C50 N2 O8'
_cell_volume   1944.03231298
_cell_formula_units_Z   2
loop_
 _symmetry_equiv_pos_site_id
 _symmetry_equiv_pos_as_xyz
  1  'x, y, z'
loop_
 _atom_site_type_symbol
 _atom_site_label
 _atom_site_symmetry_multiplicity
 _atom_site_fract_x
 _atom_site_fract_y
 _atom_site_fract_z
 _atom_site_occupancy
  Zn  Zn1  1  0.54315900  0.51780600  0.91598300  1
  Zn  Zn2  1  0.57094900  0.49366000  0.08585000  1
  H  H1  1  0.64300200  0.80492000  0.96756800  1
  H  H2  1  0.60779400  0.97769100  0.94026900  1
  H  H3  1  0.04208200  0.43389100  0.96974500  1
  H  H4  1  0.33700900  0.16818700  0.01238200  1
  H  H5  1  0.23845600  0.01012500  0.01436800  1
  H  H6  1  0.27715300  0.85338100  0.99809100  1
  H  H7  1  0.06817800  0.57727700  0.04138400  1
  H  H8  1  0.48122300  0.27551100  0.69548300  1
  H  H9  1  0.61278200  0.23650700  0.32889200  1
  H  H10  1  0.60207900  0.24824100  0.45977900  1
  H  H11  1  0.49485700  0.26216700  0.56104000  1
  H  H12  1  0.58682900  0.77195600  0.68752300  1
  H  H13  1  0.56728400  0.76061600  0.43597200  1
  H  H14  1  0.58061300  0.74336000  0.30148500  1
  H  H15  1  0.60331900  0.76667400  0.55240800  1
  H  H16  1  0.56276600  0.68697500  0.80787800  1
  H  H17  1  0.50137400  0.37085900  0.80923500  1
  H  H18  1  0.58708700  0.64207900  0.18964900  1
  H  H19  1  0.38686700  0.23448600  0.25798900  1
  H  H20  1  0.31605000  0.31208500  0.17797200  1
  H  H21  1  0.39483900  0.18258800  0.16264600  1
  H  H22  1  0.58838400  0.29542700  0.12900600  1
  H  H23  1  0.66389600  0.23528300  0.21191100  1
  H  H24  1  0.67127900  0.23411200  0.86597300  1
  H  H25  1  0.58732900  0.11199900  0.85978300  1
  H  H26  1  0.46905400  0.22203600  0.89096200  1
  H  H27  1  0.57315200  0.10973300  0.00189300  1
  H  H28  1  0.62043900  0.22952600  0.01249900  1
  C  C1  1  0.02111900  0.86634300  0.99928300  1
  C  C2  1  0.89118300  0.80684600  0.99697100  1
  C  C3  1  0.74479400  0.84988900  0.97548500  1
  C  C4  1  0.72385000  0.95238500  0.96239200  1
  C  C5  1  0.84525600  0.01711400  0.97831600  1
  C  C6  1  0.99676900  0.97361700  0.99257300  1
  C  C7  1  0.81497600  0.12388300  0.97960400  1
  C  C8  1  0.94084600  0.18886800  0.98519800  1
  C  C9  1  0.09252800  0.14375100  0.99482600  1
  C  C10  1  0.11899100  0.03873000  0.00174100  1
  C  C11  1  0.92502100  0.29673200  0.98049200  1
  C  C12  1  0.05681700  0.35195600  0.97627500  1
  C  C13  1  0.20525700  0.30693000  0.98735200  1
  C  C14  1  0.22174500  0.20334100  0.00014600  1
  C  C15  1  0.17072100  0.81566100  0.00623800  1
  C  C16  1  0.18597100  0.71141400  0.02029000  1
  C  C17  1  0.05487300  0.65826700  0.02994900  1
  C  C18  1  0.90771800  0.70380600  0.01436000  1
  C  C19  1  0.34033800  0.37194500  0.99184400  1
  C  C20  1  0.33470100  0.65064600  0.01412100  1
  C  C21  1  0.77371800  0.63868100  0.00995100  1
  C  C22  1  0.78053300  0.36163200  0.98736100  1
  C  C23  1  0.51216900  0.44044800  0.77816900  1
  C  C24  1  0.54710700  0.61590000  0.77710800  1
  C  C25  1  0.53951100  0.52149100  0.65910000  1
  C  C26  1  0.51791700  0.43527700  0.70010200  1
  C  C27  1  0.50290200  0.34305200  0.66358700  1
  C  C28  1  0.55222300  0.61277200  0.69797800  1
  C  C29  1  0.56814600  0.41388500  0.46590900  1
  C  C30  1  0.57329600  0.59722800  0.45914800  1
  C  C31  1  0.57520300  0.50176100  0.42329900  1
  C  C32  1  0.58752300  0.31963800  0.42966100  1
  C  C33  1  0.59665400  0.31267300  0.35201300  1
  C  C34  1  0.58738600  0.39985800  0.30770200  1
  C  C35  1  0.58318400  0.49385400  0.34423300  1
  C  C36  1  0.58503700  0.58012400  0.30079700  1
  C  C37  1  0.58845800  0.57250000  0.22231100  1
  C  C38  1  0.58401600  0.39398100  0.22786600  1
  C  C39  1  0.54584300  0.42123400  0.54389700  1
  C  C40  1  0.55105000  0.51564400  0.58042900  1
  C  C41  1  0.56891900  0.60368600  0.53907700  1
  C  C42  1  0.51540700  0.33582800  0.58610400  1
  C  C43  1  0.57445200  0.69980800  0.65775900  1
  C  C44  1  0.57505400  0.68380600  0.41367700  1
  C  C45  1  0.58084700  0.67485800  0.33551300  1
  C  C46  1  0.58202000  0.69581800  0.57926900  1
  C  C47  1  0.57025500  0.29144300  0.18971000  1
  C  C48  1  0.40720300  0.25279500  0.19799200  1
  C  C49  1  0.64611300  0.16414700  0.97525700  1
  C  C50  1  0.58948900  0.18462400  0.89280500  1
  N  N1  1  0.52731100  0.52960400  0.81603500  1
  N  N2  1  0.58650500  0.48100600  0.18591400  1
  O  O1  1  0.40097100  0.39632800  0.05958200  1
  O  O2  1  0.38401300  0.41214600  0.92868500  1
  O  O3  1  0.37458800  0.62370800  0.94497000  1
  O  O4  1  0.40097800  0.60786200  0.07651100  1
  O  O5  1  0.71328000  0.61505800  0.94175600  1
  O  O6  1  0.72920600  0.59993200  0.07361300  1
  O  O7  1  0.74130700  0.38906600  0.05654200  1
  O  O8  1  0.71287500  0.40360100  0.92534500  1
