# generated using pymatgen
data_ZnH13C28Br2N3O4
_symmetry_space_group_name_H-M   'P 1'
_cell_length_a   14.35598000
_cell_length_b   16.55021100
_cell_length_c   16.66213900
_cell_angle_alpha   90.00000000
_cell_angle_beta   98.80677600
_cell_angle_gamma   90.00000000
_symmetry_Int_Tables_number   1
_chemical_formula_structural   ZnH13C28Br2N3O4
_chemical_formula_sum   'Zn2 H26 C56 Br4 N6 O8'
_cell_volume   3912.15903334
_cell_formula_units_Z   2
loop_
 _symmetry_equiv_pos_site_id
 _symmetry_equiv_pos_as_xyz
  1  'x, y, z'
loop_
 _atom_site_type_symbol
 _atom_site_label
 _atom_site_symmetry_multiplicity
 _atom_site_fract_x
 _atom_site_fract_y
 _atom_site_fract_z
 _atom_site_occupancy
  Zn  Zn1  1  0.10490800  0.50000000  0.51076400  1
  Zn  Zn2  1  0.89509200  0.50000000  0.48923700  1
  H  H1  1  0.07386800  0.92054500  0.72240300  1
  H  H2  1  0.92613300  0.07945500  0.27759700  1
  H  H3  1  0.92613300  0.92054500  0.27759700  1
  H  H4  1  0.07386800  0.07945500  0.72240300  1
  H  H5  1  0.00150900  0.30977200  0.92160900  1
  H  H6  1  0.99849200  0.69022800  0.07839200  1
  H  H7  1  0.99849200  0.30977200  0.07839200  1
  H  H8  1  0.00150900  0.69022800  0.92160900  1
  H  H9  1  0.04130100  0.00000000  0.07096700  1
  H  H10  1  0.95869900  0.00000000  0.92903400  1
  H  H11  1  0.85763500  0.78705300  0.76451700  1
  H  H12  1  0.14236600  0.21294700  0.23548300  1
  H  H13  1  0.14236600  0.78705300  0.23548300  1
  H  H14  1  0.85763500  0.21294700  0.76451700  1
  H  H15  1  0.15840600  0.67470100  0.70864000  1
  H  H16  1  0.84159500  0.32529900  0.29136100  1
  H  H17  1  0.84159500  0.67470100  0.29136100  1
  H  H18  1  0.15840600  0.32529900  0.70864000  1
  H  H19  1  0.15716600  0.77637300  0.81487500  1
  H  H20  1  0.84283500  0.22362700  0.18512600  1
  H  H21  1  0.84283500  0.77637300  0.18512600  1
  H  H22  1  0.15716600  0.22362700  0.81487500  1
  H  H23  1  0.85686600  0.31466600  0.65896100  1
  H  H24  1  0.14313500  0.68533400  0.34103900  1
  H  H25  1  0.14313500  0.31466600  0.34103900  1
  H  H26  1  0.85686600  0.68533400  0.65896100  1
  C  C1  1  0.00045500  0.25636800  0.95882400  1
  C  C2  1  0.99954500  0.74363200  0.04117600  1
  C  C3  1  0.99954500  0.25636800  0.04117600  1
  C  C4  1  0.00045500  0.74363200  0.95882400  1
  C  C5  1  0.99868100  0.17628700  0.06452900  1
  C  C6  1  0.00131900  0.82371300  0.93547100  1
  C  C7  1  0.00131900  0.17628700  0.93547100  1
  C  C8  1  0.99868100  0.82371300  0.06452900  1
  C  C9  1  0.99416800  0.15116500  0.14021500  1
  C  C10  1  0.00583200  0.84883500  0.85978500  1
  C  C11  1  0.00583200  0.15116500  0.85978500  1
  C  C12  1  0.99416800  0.84883500  0.14021500  1
  C  C13  1  0.98438900  0.06554700  0.16280500  1
  C  C14  1  0.01561200  0.93445300  0.83719500  1
  C  C15  1  0.01561200  0.06554700  0.83719500  1
  C  C16  1  0.98438900  0.93445300  0.16280500  1
  C  C17  1  0.94997000  0.04153700  0.23200400  1
  C  C18  1  0.05003000  0.95846300  0.76799600  1
  C  C19  1  0.05003000  0.04153700  0.76799600  1
  C  C20  1  0.94997000  0.95846300  0.23200400  1
  C  C21  1  0.92357600  0.76221700  0.75207000  1
  C  C22  1  0.07642400  0.23778300  0.24793000  1
  C  C23  1  0.07642400  0.76221700  0.24793000  1
  C  C24  1  0.92357600  0.23778300  0.75207000  1
  C  C25  1  0.92360000  0.70454800  0.69250100  1
  C  C26  1  0.07640100  0.29545200  0.30750000  1
  C  C27  1  0.07640100  0.70454800  0.30750000  1
  C  C28  1  0.92360000  0.29545200  0.69250100  1
  C  C29  1  0.00773500  0.67257500  0.67606500  1
  C  C30  1  0.99226500  0.32742500  0.32393600  1
  C  C31  1  0.99226500  0.67257500  0.32393600  1
  C  C32  1  0.00773500  0.32742500  0.67606500  1
  C  C33  1  0.09180300  0.69892700  0.72011400  1
  C  C34  1  0.90819800  0.30107300  0.27988600  1
  C  C35  1  0.90819800  0.69892700  0.27988600  1
  C  C36  1  0.09180300  0.30107300  0.72011400  1
  C  C37  1  0.09140900  0.75622400  0.78025900  1
  C  C38  1  0.90859100  0.24377600  0.21974200  1
  C  C39  1  0.90859100  0.75622400  0.21974200  1
  C  C40  1  0.09140900  0.24377600  0.78025900  1
  C  C41  1  0.00725500  0.78800700  0.79616400  1
  C  C42  1  0.99274500  0.21199400  0.20383700  1
  C  C43  1  0.99274500  0.78800700  0.20383700  1
  C  C44  1  0.00725500  0.21199400  0.79616400  1
  C  C45  1  0.00683300  0.61080900  0.61281900  1
  C  C46  1  0.99316800  0.38919100  0.38718200  1
  C  C47  1  0.99316800  0.61080900  0.38718200  1
  C  C48  1  0.00683300  0.38919100  0.61281900  1
  C  C49  1  0.54668100  0.42784200  0.49465400  1
  C  C50  1  0.45332000  0.57215800  0.50534600  1
  C  C51  1  0.45332000  0.42784200  0.50534600  1
  C  C52  1  0.54668100  0.57215800  0.49465400  1
  C  C53  1  0.59330700  0.50000000  0.48903200  1
  C  C54  1  0.40669400  0.50000000  0.51096800  1
  C  C55  1  0.69160400  0.50000000  0.48168700  1
  C  C56  1  0.30839600  0.50000000  0.51831400  1
  Br  Br1  1  0.38864300  0.32800800  0.51174200  1
  Br  Br2  1  0.61135700  0.67199200  0.48825800  1
  Br  Br3  1  0.61135700  0.32800800  0.48825900  1
  Br  Br4  1  0.38864300  0.67199200  0.51174200  1
  N  N1  1  0.00000000  0.12750900  0.00000000  1
  N  N2  1  0.00000000  0.87249100  0.00000000  1
  N  N3  1  0.00695900  0.00000000  0.12150200  1
  N  N4  1  0.99304200  0.00000000  0.87849900  1
  N  N5  1  0.22851000  0.50000000  0.52174200  1
  N  N6  1  0.77149000  0.50000000  0.47825900  1
  O  O1  1  0.92498600  0.58242200  0.57883200  1
  O  O2  1  0.07501400  0.41757800  0.42116800  1
  O  O3  1  0.07501400  0.58242200  0.42116800  1
  O  O4  1  0.92498600  0.41757800  0.57883200  1
  O  O5  1  0.08710500  0.58617000  0.59272700  1
  O  O6  1  0.91289500  0.41383000  0.40727300  1
  O  O7  1  0.91289500  0.58617000  0.40727300  1
  O  O8  1  0.08710500  0.41383000  0.59272700  1
