# Generated by REPEAT Assigner based on pymatgen
data_DB0-m29_o90_o85_f0_pts.sym.21
_audit_creation_date              2022-05-24
_audit_creation_method            REPEAT_Assigner
_cell_length_a                    13.517662
_cell_length_b                    17.073146
_cell_length_c                    11.344023
_cell_angle_alpha                 108.395121
_cell_angle_beta                  85.816548
_cell_angle_gamma                 109.117105
_cell_volume                      2345.944002
_symmetry_space_group_name_H-M    P1
_symmetry_Int_Tables_number       1
loop_
    _symmetry_equiv_pos_site_id
    _symmetry_equiv_pos_as_xyz
    1  x,y,z
loop_
    _atom_site_type_symbol
    _atom_site_label
    _atom_site_fract_x
    _atom_site_fract_y
    _atom_site_fract_z
    _atom_type_partial_charge
    C   C1   0.180739  0.021421  0.176804  0.173858
    C   C2   0.086221  0.025806  0.147816  0.248243
    C   C3   0.058417  0.009997  0.025196  -0.113366
    C   C4   0.130737  0.995257  0.934249  -0.153497
    H   H1   0.110175  0.981758  0.838130  0.153609
    C   C5   0.229575  0.997547  0.964353  -0.050551
    C   C6   0.252684  0.007751  0.086960  -0.101454
    C   C7   0.945191  0.040889  0.894193  -0.356409
    H   H2   0.012425  0.066430  0.843751  0.193247
    C   C8   0.848384  0.037095  0.857569  0.357948
    C   C9   0.760279  0.007806  0.921495  -0.133711
    C   C10  0.770759  0.986381  0.027313  0.020465
    C   C11  0.866585  0.982994  0.056640  -0.295157
    H   H3   0.871504  0.958254  0.131651  0.183472
    C   C12  0.955079  0.011020  0.991420  0.308472
    O   O1   0.609203  0.007059  0.113829  -0.505728
    C   C13  0.685309  0.975215  0.115450  0.609027
    O   O2   0.479276  0.819787  0.149400  -0.426750
    O   O3   0.693780  0.946514  0.207482  -0.481268
    O   O4   0.496793  0.914524  0.343152  -0.460693
    C   C14  0.485163  0.835165  0.269966  0.568821
    Fe  Fe1  0.509805  0.997367  0.249509  1.361808
    O   O5   0.365139  0.954298  0.172931  -0.550091
    O   O6   0.434132  0.085803  0.140293  -0.438730
    C   C15  0.355100  0.014081  0.129313  0.693027
    O   O7   0.563344  0.117696  0.370693  -0.548639
    O   O8   0.401195  0.064388  0.440095  -0.465314
    C   C16  0.489858  0.128262  0.450604  0.624032
    O   O9   0.440746  0.875574  0.630298  -0.572324
    O   O10  0.597001  0.926481  0.546198  -0.483526
    C   C17  0.508338  0.863775  0.542652  0.622483
    O   O11  0.641467  0.045447  0.816900  -0.523134
    O   O12  0.580755  0.919753  0.866214  -0.472876
    C   C18  0.656905  0.991799  0.869108  0.624180
    O   O13  0.286403  0.995054  0.756623  -0.500332
    O   O14  0.498476  0.077034  0.650156  -0.490289
    C   C19  0.495949  0.153448  0.722396  0.572864
    O   O15  0.400114  0.989147  0.887833  -0.516436
    C   C20  0.307418  0.991894  0.865836  0.615788
    O   O16  0.492127  0.167792  0.843030  -0.507894
    Fe  Fe2  0.493987  0.997687  0.746863  1.413865
    C   C21  0.501607  0.212702  0.543627  -0.142118
    C   C22  0.505277  0.280736  0.500557  0.468556
    C   C23  0.504592  0.360438  0.582483  -0.520417
    C   C24  0.504827  0.371822  0.708633  0.120719
    H   H4   0.504922  0.433042  0.775512  0.065820
    C   C25  0.502853  0.304451  0.752052  -0.211883
    H   H5   0.502432  0.315901  0.851296  0.162169
    C   C26  0.499535  0.223742  0.670700  0.067519
    N   N1   0.501112  0.508654  0.618791  -0.235298
    N   N2   0.494185  0.571596  0.578704  -0.225027
    C   C27  0.484790  0.558609  0.456122  0.752128
    N   N3   0.483002  0.481284  0.374844  -0.257103
    N   N4   0.490033  0.418503  0.414965  -0.177171
    C   C28  0.499432  0.431232  0.537404  0.765272
    C   C29  0.469508  0.614783  0.284860  -0.074287
    H   H6   0.462098  0.551667  0.218432  0.101084
    C   C30  0.470060  0.681368  0.240650  0.296996
    C   C31  0.482089  0.764577  0.321512  -0.096027
    C   C32  0.490403  0.778214  0.449256  0.026938
    C   C33  0.487287  0.710204  0.492208  -0.025862
    H   H7   0.495929  0.723132  0.591101  0.090236
    C   C34  0.479278  0.628783  0.410625  -0.323875
    F   F1   0.206510  0.037414  0.297275  -0.139335
    F   F2   0.460284  0.663265  0.116025  -0.158761
    F   F3   0.025285  0.051260  0.242721  -0.153220
    F   F4   0.840222  0.059607  0.755199  -0.163715
    F   F5   0.504181  0.265818  0.375942  -0.210379
