# generated using pymatgen
data_Zn3H11C21(IO6)2
_symmetry_space_group_name_H-M   'P 1'
_cell_length_a   18.93681000
_cell_length_b   19.23404700
_cell_length_c   19.22021300
_cell_angle_alpha   70.29493900
_cell_angle_beta   70.40668600
_cell_angle_gamma   108.83013300
_symmetry_Int_Tables_number   1
_chemical_formula_structural   Zn3H11C21(IO6)2
_chemical_formula_sum   'Zn6 H22 C42 I4 O24'
_cell_volume   5407.67179568
_cell_formula_units_Z   2
loop_
 _symmetry_equiv_pos_site_id
 _symmetry_equiv_pos_as_xyz
  1  'x, y, z'
loop_
 _atom_site_type_symbol
 _atom_site_label
 _atom_site_symmetry_multiplicity
 _atom_site_fract_x
 _atom_site_fract_y
 _atom_site_fract_z
 _atom_site_occupancy
  Zn  Zn1  1  0.99274700  0.90642100  0.59174800  1
  Zn  Zn2  1  0.99336800  0.04036500  0.45175400  1
  Zn  Zn3  1  0.57527900  0.06451400  0.99979900  1
  Zn  Zn4  1  0.43094000  0.92235200  0.01438300  1
  Zn  Zn5  1  0.42836500  0.49119900  0.56898100  1
  Zn  Zn6  1  0.56725000  0.48273400  0.44180200  1
  H  H1  1  0.85806500  0.96154300  0.78231600  1
  H  H2  1  0.76066200  0.96607800  0.58185900  1
  H  H3  1  0.65054600  0.99029800  0.56198200  1
  H  H4  1  0.55702000  0.01826400  0.65956100  1
  H  H5  1  0.57130500  0.01787300  0.77919900  1
  H  H6  1  0.74220000  0.66655500  0.49251900  1
  H  H7  1  0.76600900  0.87096600  0.46678700  1
  H  H8  1  0.78706500  0.72394400  0.56589500  1
  H  H9  1  0.22595300  0.95472700  0.16458300  1
  H  H10  1  0.34723100  0.03660700  0.22032700  1
  H  H11  1  0.13491000  0.99719900  0.25501100  1
  H  H12  1  0.21592100  0.93987600  0.36057000  1
  H  H13  1  0.24720700  0.26835000  0.56353600  1
  H  H14  1  0.18669800  0.14189700  0.57368200  1
  H  H15  1  0.62190500  0.34423700  0.62948300  1
  H  H16  1  0.43586900  0.27421800  0.76322300  1
  H  H17  1  0.62412600  0.25899800  0.76138600  1
  H  H18  1  0.43819300  0.14538800  0.81396500  1
  H  H19  1  0.37951100  0.64023600  0.38300400  1
  H  H20  1  0.56211400  0.70199100  0.24768100  1
  H  H21  1  0.37978600  0.72985200  0.25155400  1
  H  H22  1  0.56710700  0.83750800  0.20003700  1
  C  C1  1  0.87175000  0.85600500  0.52487400  1
  C  C2  1  0.87368400  0.97825300  0.63565800  1
  C  C3  1  0.11535100  0.09098700  0.51784000  1
  C  C4  1  0.11021700  0.96656200  0.40810500  1
  C  C5  1  0.72315500  0.98035800  0.62528500  1
  C  C6  1  0.65902200  0.99223200  0.61431100  1
  C  C7  1  0.60630600  0.00722400  0.66923400  1
  C  C8  1  0.61456000  0.00588100  0.73797100  1
  C  C9  1  0.67686900  0.99054300  0.75196500  1
  C  C10  1  0.73566000  0.98353200  0.69174000  1
  C  C11  1  0.80377600  0.97682900  0.70082300  1
  C  C12  1  0.80690800  0.96883800  0.77353600  1
  C  C13  1  0.74618600  0.97106400  0.83540000  1
  C  C14  1  0.68159600  0.98320800  0.82472700  1
  C  C15  1  0.68299000  0.74087600  0.50124300  1
  C  C16  1  0.68503400  0.67188000  0.50113800  1
  C  C17  1  0.75507700  0.80669800  0.49558900  1
  C  C18  1  0.80222000  0.78884700  0.52981800  1
  C  C19  1  0.24467100  0.97700200  0.20375200  1
  C  C20  1  0.32570800  0.00562700  0.18787000  1
  C  C21  1  0.18173400  0.98319400  0.26777600  1
  C  C22  1  0.17574400  0.96337200  0.34381800  1
  C  C23  1  0.32089600  0.29153300  0.44047900  1
  C  C24  1  0.31043900  0.30339000  0.50756700  1
  C  C25  1  0.24952800  0.22827400  0.44242500  1
  C  C26  1  0.18492900  0.15676400  0.51493200  1
  C  C27  1  0.49903000  0.10530100  0.88698300  1
  C  C28  1  0.61827300  0.98634900  0.89142700  1
  C  C29  1  0.50704700  0.88140100  0.12717800  1
  C  C30  1  0.38821600  0.00077300  0.12247400  1
  C  C31  1  0.50204200  0.60260900  0.38097300  1
  C  C32  1  0.61780600  0.60657300  0.50152800  1
  C  C33  1  0.49410600  0.37184900  0.62983200  1
  C  C34  1  0.37794800  0.36901700  0.50708300  1
  C  C35  1  0.56247300  0.30172600  0.68997600  1
  C  C36  1  0.49258100  0.30946700  0.70061400  1
  C  C37  1  0.56387900  0.24243200  0.76107200  1
  C  C38  1  0.49554900  0.16607300  0.81940100  1
  C  C39  1  0.43888900  0.68096600  0.32231800  1
  C  C40  1  0.50588000  0.66777100  0.31050700  1
  C  C41  1  0.43975600  0.74371300  0.25204200  1
  C  C42  1  0.50956100  0.81940900  0.19464400  1
  I  I1  1  0.43367400  0.37278800  0.31905600  1
  I  I2  1  0.26647900  0.24994800  0.32086100  1
  I  I3  1  0.75305400  0.95105300  0.94733800  1
  I  I4  1  0.58763600  0.77075100  0.49017400  1
  O  O1  1  0.90284900  0.83341900  0.57492200  1
  O  O2  1  0.89887000  0.93532200  0.47206200  1
  O  O3  1  0.90442100  0.92862000  0.66114700  1
  O  O4  1  0.90293700  0.02896000  0.55493700  1
  O  O5  1  0.08576000  0.01171900  0.57274300  1
  O  O6  1  0.08425100  0.11318200  0.46773400  1
  O  O7  1  0.08467300  0.91910800  0.48860400  1
  O  O8  1  0.08037800  0.01697200  0.38240500  1
  O  O9  1  0.55671500  0.13333100  0.90842800  1
  O  O10  1  0.44374200  0.02478700  0.92288700  1
  O  O11  1  0.64643100  0.04415300  0.91158100  1
  O  O12  1  0.53612300  0.93286600  0.92656500  1
  O  O13  1  0.56309100  0.96193800  0.09065700  1
  O  O14  1  0.44883000  0.85363500  0.10640100  1
  O  O15  1  0.47026400  0.05329500  0.08844400  1
  O  O16  1  0.35970900  0.94343900  0.10184100  1
  O  O17  1  0.44579000  0.57654800  0.45923200  1
  O  O18  1  0.55571900  0.57373700  0.36247600  1
  O  O19  1  0.53645100  0.58148200  0.54980900  1
  O  O20  1  0.64278500  0.57280800  0.45594700  1
  O  O21  1  0.44033500  0.40056300  0.64819500  1
  O  O22  1  0.54980500  0.39736200  0.55157900  1
  O  O23  1  0.35296800  0.40047300  0.55534500  1
  O  O24  1  0.45916400  0.39229500  0.46116700  1
