# Generated by REPEAT Assigner based on pymatgen
data_DB0-m3_o156_o470_f0_fsc.sym.25_sqe
_audit_creation_date              2022-05-24
_audit_creation_method            REPEAT_Assigner
_cell_length_a                    8.529775
_cell_length_b                    11.145802
_cell_length_c                    17.460509
_cell_angle_alpha                 90.857153
_cell_angle_beta                  90.087270
_cell_angle_gamma                 102.488039
_cell_volume                      1620.517067
_symmetry_space_group_name_H-M    P1
_symmetry_Int_Tables_number       1
loop_
    _symmetry_equiv_pos_site_id
    _symmetry_equiv_pos_as_xyz
    1  x,y,z
loop_
    _atom_site_type_symbol
    _atom_site_label
    _atom_site_fract_x
    _atom_site_fract_y
    _atom_site_fract_z
    _atom_type_partial_charge
    C   C1   0.071851  0.255214  0.988947  -0.314171
    C   C2   0.928139  0.744793  0.011067  -0.313818
    C   C3   0.948622  0.315400  0.980798  -0.068873
    C   C4   0.051368  0.684607  0.019216  -0.069107
    C   C5   0.791773  0.255748  0.988609  -0.070816
    C   C6   0.208217  0.744259  0.011406  -0.070319
    C   C7   0.756102  0.129823  0.995724  -0.280027
    C   C8   0.243888  0.870184  0.004291  -0.280600
    C   C9   0.878711  0.065104  0.996294  0.275760
    C   C10  0.121279  0.934904  0.003721  0.276274
    C   C11  0.037974  0.127772  0.995330  0.291366
    C   C12  0.962016  0.872235  0.004685  0.290951
    C   C13  0.841160  0.938030  0.000424  -0.543439
    C   C14  0.158830  0.061977  0.999591  -0.543785
    H   H1   0.976351  0.412675  0.972142  0.098877
    H   H2   0.023639  0.587332  0.027872  0.098803
    H   H3   0.632160  0.083115  0.000166  0.154475
    H   H4   0.367830  0.916892  0.999850  0.154652
    O   O1   0.703787  0.616617  0.070144  -0.772963
    O   O2   0.296202  0.383391  0.929870  -0.773009
    O   O3   0.702822  0.636847  0.938802  -0.763324
    O   O4   0.297168  0.363160  0.061213  -0.763373
    C   C15  0.767143  0.666426  0.006746  1.051225
    C   C16  0.232847  0.333581  0.993268  1.051501
    O   O5   0.634583  0.381680  0.929654  -0.743817
    O   O6   0.365407  0.618327  0.070361  -0.743748
    O   O7   0.624128  0.361625  0.060921  -0.722572
    O   O8   0.375862  0.638383  0.939094  -0.722672
    C   C17  0.670070  0.330820  0.992853  0.961708
    C   C18  0.329920  0.669187  0.007161  0.961603
    Zn  Zn1  0.501976  0.509022  0.914945  1.010311
    Zn  Zn2  0.498015  0.490986  0.085070  1.009939
    C   C19  0.471574  0.406617  0.777127  -0.382829
    C   C20  0.528416  0.593390  0.222887  -0.382533
    N   N1   0.503436  0.515739  0.814678  0.292079
    N   N2   0.496554  0.484268  0.185337  0.292050
    C   C21  0.534514  0.621829  0.775892  -0.400970
    C   C22  0.465476  0.378179  0.224122  -0.400771
    C   C23  0.437591  0.289190  0.660188  -0.381506
    C   C24  0.562399  0.710818  0.339826  -0.381454
    C   C25  0.470203  0.401264  0.698303  0.319265
    C   C26  0.529787  0.598744  0.301712  0.319058
    C   C27  0.501680  0.508395  0.657777  -0.118429
    C   C28  0.498310  0.491613  0.342237  -0.118298
    C   C29  0.534043  0.619525  0.696638  0.310233
    C   C30  0.465947  0.380482  0.303376  0.310012
    C   C31  0.565796  0.727477  0.656163  -0.361836
    C   C32  0.434194  0.272531  0.343851  -0.361748
    C   C33  0.404133  0.172946  0.542724  -0.227195
    C   C34  0.595857  0.827062  0.457291  -0.227299
    C   C35  0.436640  0.284739  0.581172  0.239496
    C   C36  0.563351  0.715268  0.418842  0.239521
    C   C37  0.468302  0.392348  0.540534  -0.027607
    C   C38  0.531688  0.607660  0.459480  -0.027611
    C   C39  0.403293  0.168788  0.463743  -0.208182
    C   C40  0.596697  0.831220  0.536271  -0.208083
    C   C41  0.434981  0.276433  0.423005  0.212277
    C   C42  0.565009  0.723575  0.577010  0.212245
    C   C43  0.500821  0.504212  0.578892  0.017612
    C   C44  0.499169  0.495796  0.421122  0.017599
    C   C45  0.532518  0.611868  0.538452  -0.008141
    C   C46  0.467473  0.388140  0.461562  -0.008153
    H   H5   0.447003  0.322451  0.809147  0.262135
    H   H6   0.552988  0.677556  0.190867  0.262006
    H   H7   0.412848  0.204955  0.692189  0.158333
    H   H8   0.587142  0.795053  0.307825  0.158338
    H   H9   0.591279  0.814945  0.686377  0.152494
    H   H10  0.408712  0.185063  0.313637  0.152455
    H   H11  0.379215  0.088250  0.574256  0.144175
    H   H12  0.620775  0.911757  0.425758  0.144209
    H   H13  0.377722  0.080888  0.434032  0.140639
    H   H14  0.622268  0.919120  0.565983  0.140615
    H   H15  0.559920  0.708561  0.806903  0.270552
    H   H16  0.440070  0.291446  0.193111  0.270511
    N   N3   0.322857  0.124175  0.001069  0.850407
    O   O9   0.400157  0.141572  0.065909  -0.405840
    O   O10  0.394927  0.164108  0.937905  -0.410680
    N   N4   0.677133  0.875833  0.998947  0.850258
    O   O11  0.605064  0.835897  0.062110  -0.410594
    O   O12  0.599833  0.858434  0.934106  -0.405826
