# generated using pymatgen
data_Cu3H37(C8O3)4
_symmetry_space_group_name_H-M   'P 1'
_cell_length_a   18.42242800
_cell_length_b   18.46544000
_cell_length_c   18.43345600
_cell_angle_alpha   109.51933900
_cell_angle_beta   109.60440600
_cell_angle_gamma   109.30440200
_symmetry_Int_Tables_number   1
_chemical_formula_structural   Cu3H37(C8O3)4
_chemical_formula_sum   'Cu6 H74 C64 O24'
_cell_volume   4826.26731242
_cell_formula_units_Z   2
loop_
 _symmetry_equiv_pos_site_id
 _symmetry_equiv_pos_as_xyz
  1  'x, y, z'
loop_
 _atom_site_type_symbol
 _atom_site_label
 _atom_site_symmetry_multiplicity
 _atom_site_fract_x
 _atom_site_fract_y
 _atom_site_fract_z
 _atom_site_occupancy
  Cu  Cu1  1  0.50046500  0.43739300  0.43728600  1
  Cu  Cu2  1  0.50220500  0.56170800  0.56493000  1
  Cu  Cu3  1  0.93945400  0.43997600  0.00389700  1
  Cu  Cu4  1  0.06117900  0.55892100  0.00018500  1
  Cu  Cu5  1  0.06463700  0.00074500  0.56560400  1
  Cu  Cu6  1  0.93912200  0.00041400  0.44004700  1
  H  H1  1  0.19974000  0.59775300  0.32060700  1
  H  H2  1  0.37629700  0.65257200  0.35572300  1
  H  H3  1  0.30980100  0.55741100  0.17103300  1
  H  H4  1  0.30109300  0.40805400  0.18515700  1
  H  H5  1  0.12536500  0.35341600  0.15105500  1
  H  H6  1  0.19254700  0.44861800  0.33621900  1
  H  H7  1  0.74160800  0.60234800  0.45461400  1
  H  H8  1  0.80233700  0.67544500  0.57362300  1
  H  H9  1  0.90127600  0.76324200  0.55250000  1
  H  H10  1  0.82884400  0.70128800  0.43329400  1
  H  H11  1  0.63284600  0.62966700  0.35992900  1
  H  H12  1  0.72400200  0.74579200  0.35967100  1
  H  H13  1  0.67894000  0.79956500  0.57404600  1
  H  H14  1  0.75514900  0.77844300  0.64440200  1
  H  H15  1  0.87103100  0.87059300  0.64457500  1
  H  H16  1  0.79941900  0.90712000  0.59345900  1
  H  H17  1  0.59381400  0.69953900  0.40870400  1
  H  H18  1  0.70057700  0.82055800  0.42822600  1
  H  H19  1  0.69996000  0.39514600  0.59423200  1
  H  H20  1  0.74210900  0.35205000  0.73054900  1
  H  H21  1  0.81580300  0.41043100  0.70069800  1
  H  H22  1  0.79454500  0.55356100  0.66498500  1
  H  H23  1  0.90502000  0.57555700  0.78505600  1
  H  H24  1  0.68881000  0.57908800  0.80204500  1
  H  H25  1  0.60667500  0.46433000  0.74804200  1
  H  H26  1  0.70473600  0.43798400  0.83455600  1
  H  H27  1  0.77346200  0.55696000  0.90241600  1
  H  H28  1  0.77968800  0.63117200  0.74055600  1
  H  H29  1  0.87606300  0.63683600  0.85913700  1
  H  H30  1  0.33079600  0.20459500  0.42910300  1
  H  H31  1  0.24538400  0.21723400  0.35956600  1
  H  H32  1  0.14196300  0.11435700  0.36137400  1
  H  H33  1  0.40401900  0.29275100  0.59246100  1
  H  H34  1  0.30286900  0.19854400  0.60642500  1
  H  H35  1  0.25855400  0.39167400  0.54929100  1
  H  H36  1  0.20621000  0.32938100  0.42962500  1
  H  H37  1  0.10113700  0.22010500  0.42442600  1
  H  H38  1  0.14963400  0.28472700  0.54328700  1
  H  H39  1  0.37952800  0.37618100  0.64435600  1
  H  H40  1  0.26920000  0.27771500  0.64442800  1
  H  H41  1  0.93206100  0.60821400  0.22795800  1
  H  H42  1  0.85957900  0.61282600  0.13685000  1
  H  H43  1  0.86071400  0.72974700  0.22801400  1
  H  H44  1  0.90989000  0.70808700  0.31527700  1
  H  H45  1  0.09406000  0.68606200  0.29108100  1
  H  H46  1  0.07464800  0.77186700  0.39381500  1
  H  H47  1  0.92136300  0.73011100  0.10948100  1
  H  H48  1  0.95840900  0.85856800  0.21943400  1
  H  H49  1  0.07573600  0.89588400  0.27294200  1
  H  H50  1  0.14552100  0.77480800  0.27363000  1
  H  H51  1  0.14481800  0.86467000  0.39027100  1
  H  H52  1  0.96936200  0.21551300  0.86332600  1
  H  H53  1  0.99707400  0.12734100  0.77403400  1
  H  H54  1  0.88998300  0.08733300  0.68322100  1
  H  H55  1  0.89152400  0.30129900  0.70653500  1
  H  H56  1  0.87832200  0.17774000  0.60559600  1
  H  H57  1  0.13255500  0.39516500  0.85796600  1
  H  H58  1  0.11762200  0.31916400  0.89972600  1
  H  H59  1  0.13467800  0.23628900  0.79288200  1
  H  H60  1  0.12492900  0.29951300  0.73721500  1
  H  H61  1  0.00275600  0.36818500  0.73270900  1
  H  H62  1  0.97803200  0.25383000  0.61597400  1
  H  H63  1  0.59356300  0.32517800  0.67712200  1
  H  H64  1  0.54431700  0.32164600  0.57245600  1
  H  H65  1  0.60442000  0.26384700  0.58652600  1
  H  H66  1  0.29798300  0.10690900  0.48385600  1
  H  H67  1  0.18185100  0.02485100  0.42754400  1
  H  H68  1  0.23350500  0.04560900  0.36454900  1
  H  H69  1  0.12088000  0.81941200  0.17167000  1
  H  H70  1  0.02686600  0.74342900  0.05928500  1
  H  H71  1  0.04523700  0.85184500  0.12081200  1
  H  H72  1  0.80849100  0.16107000  0.69047100  1
  H  H73  1  0.81282700  0.12072700  0.76691000  1
  H  H74  1  0.82948900  0.23032300  0.79878300  1
  C  C1  1  0.62284000  0.62001600  0.50222000  1
  C  C2  1  0.38127100  0.50250600  0.38269000  1
  C  C3  1  0.37969700  0.37911100  0.49984800  1
  C  C4  1  0.62023100  0.49520100  0.61965400  1
  C  C5  1  0.31842600  0.58473000  0.30837400  1
  C  C6  1  0.22385000  0.55476900  0.29110300  1
  C  C7  1  0.19025800  0.50272300  0.19301800  1
  C  C8  1  0.28359400  0.53271200  0.20911400  1
  C  C9  1  0.27760800  0.45122200  0.21561000  1
  C  C10  1  0.18318500  0.42128100  0.19842700  1
  C  C11  1  0.21798500  0.47329000  0.29769700  1
  C  C12  1  0.31129800  0.50324000  0.31372400  1
  C  C13  1  0.76785800  0.67007900  0.50825500  1
  C  C14  1  0.83328300  0.73572000  0.49809000  1
  C  C15  1  0.65308800  0.69225700  0.41744600  1
  C  C16  1  0.73091200  0.78032300  0.58160800  1
  C  C17  1  0.69319700  0.69013000  0.50263200  1
  C  C18  1  0.81154700  0.80892800  0.50183600  1
  C  C19  1  0.72120200  0.76974200  0.42192200  1
  C  C20  1  0.80816800  0.84896900  0.58618000  1
  C  C21  1  0.68926100  0.40531600  0.65173600  1
  C  C22  1  0.76639400  0.41057300  0.72224600  1
  C  C23  1  0.77962500  0.56743100  0.72000500  1
  C  C24  1  0.67577600  0.51019400  0.76872300  1
  C  C25  1  0.68952400  0.49319900  0.68897200  1
  C  C26  1  0.81007700  0.49543500  0.80951800  1
  C  C27  1  0.85022400  0.57440100  0.79816200  1
  C  C28  1  0.74072900  0.49958100  0.83481600  1
  C  C29  1  0.27562600  0.21852100  0.42346100  1
  C  C30  1  0.20548300  0.14729400  0.42418500  1
  C  C31  1  0.35072000  0.30960200  0.58730300  1
  C  C32  1  0.23441400  0.32718800  0.49178400  1
  C  C33  1  0.31050000  0.30895500  0.50045200  1
  C  C34  1  0.19261400  0.19019700  0.50207400  1
  C  C35  1  0.27947000  0.24219800  0.59038800  1
  C  C36  1  0.16272400  0.25472500  0.48949300  1
  C  C37  1  0.00072200  0.62176200  0.11821600  1
  C  C38  1  0.12002700  0.50171800  0.12257900  1
  C  C39  1  0.99678400  0.37701500  0.88283700  1
  C  C40  1  0.88063300  0.49701200  0.88090400  1
  C  C41  1  0.00255500  0.88095500  0.38163300  1
  C  C42  1  0.88134200  0.87914500  0.50182600  1
  C  C43  1  0.00130200  0.12038500  0.62386000  1
  C  C44  1  0.12242300  0.12147400  0.50338300  1
  C  C45  1  0.92329000  0.65193700  0.20079100  1
  C  C46  1  0.91845700  0.72457100  0.26503500  1
  C  C47  1  0.08646400  0.73749100  0.27634400  1
  C  C48  1  0.99117600  0.76150200  0.16247500  1
  C  C49  1  0.00140900  0.69321400  0.18828400  1
  C  C50  1  0.00316000  0.81200700  0.31074700  1
  C  C51  1  0.08208800  0.80015800  0.35058700  1
  C  C52  1  0.00867700  0.83903600  0.24252900  1
  C  C53  1  0.94229300  0.21348600  0.79866100  1
  C  C54  1  0.95496900  0.14739100  0.73595000  1
  C  C55  1  0.95725900  0.30566900  0.72518700  1
  C  C56  1  0.09062400  0.32626600  0.84052700  1
  C  C57  1  0.99523600  0.30545300  0.81206600  1
  C  C58  1  0.99990700  0.18942300  0.69379900  1
  C  C59  1  0.94938000  0.22873600  0.65246700  1
  C  C60  1  0.09381900  0.26322100  0.76551900  1
  C  C61  1  0.60254100  0.32480300  0.62054200  1
  C  C62  1  0.23147000  0.07733600  0.42608100  1
  C  C63  1  0.05031600  0.79569000  0.12681000  1
  C  C64  1  0.84268000  0.18022300  0.76149900  1
  O  O1  1  0.59473100  0.53679000  0.44884000  1
  O  O2  1  0.59652900  0.64417600  0.55954200  1
  O  O3  1  0.41223700  0.45070100  0.35631000  1
  O  O4  1  0.40874900  0.55325400  0.46655300  1
  O  O5  1  0.41117600  0.35479000  0.44762700  1
  O  O6  1  0.41236800  0.46221400  0.55778900  1
  O  O7  1  0.59405900  0.44604000  0.53567000  1
  O  O8  1  0.59000800  0.54806000  0.64602900  1
  O  O9  1  0.93208400  0.54059000  0.07382100  1
  O  O10  1  0.07048100  0.64154400  0.10681000  1
  O  O11  1  0.03933600  0.46899600  0.11195600  1
  O  O12  1  0.14169300  0.53310500  0.07371400  1
  O  O13  1  0.96566500  0.35797700  0.93304600  1
  O  O14  1  0.03242300  0.45763000  0.89391600  1
  O  O15  1  0.85859200  0.42952200  0.89527500  1
  O  O16  1  0.96169500  0.56613200  0.92715500  1
  O  O17  1  0.05970300  0.91346200  0.46541800  1
  O  O18  1  0.94925700  0.91119700  0.35677400  1
  O  O19  1  0.96492400  0.91080600  0.55818300  1
  O  O20  1  0.85648200  0.90712000  0.44629700  1
  O  O21  1  0.05732500  0.09285600  0.64891700  1
  O  O22  1  0.95070000  0.09433600  0.54022300  1
  O  O23  1  0.14724600  0.09576100  0.56118300  1
  O  O24  1  0.03876000  0.08845100  0.44551900  1
