# generated using pymatgen
data_Zn2H26C41N2O9
_symmetry_space_group_name_H-M   'P 1'
_cell_length_a   15.09824400
_cell_length_b   10.99504900
_cell_length_c   9.81542500
_cell_angle_alpha   90.00017700
_cell_angle_beta   90.00017500
_cell_angle_gamma   90.00992200
_symmetry_Int_Tables_number   1
_chemical_formula_structural   Zn2H26C41N2O9
_chemical_formula_sum   'Zn2 H26 C41 N2 O9'
_cell_volume   1629.41875648
_cell_formula_units_Z   1
loop_
 _symmetry_equiv_pos_site_id
 _symmetry_equiv_pos_as_xyz
  1  'x, y, z'
loop_
 _atom_site_type_symbol
 _atom_site_label
 _atom_site_symmetry_multiplicity
 _atom_site_fract_x
 _atom_site_fract_y
 _atom_site_fract_z
 _atom_site_occupancy
  Zn  Zn1  1  0.49405800  0.49770900  0.58477100  1
  Zn  Zn2  1  0.49480400  0.49542800  0.27540500  1
  H  H1  1  0.77560800  0.46450000  0.22089200  1
  H  H2  1  0.91107500  0.43715800  0.10100400  1
  H  H3  1  0.07282400  0.42911300  0.09950900  1
  H  H4  1  0.21112500  0.44776400  0.21655500  1
  H  H5  1  0.21395800  0.52858400  0.64243600  1
  H  H6  1  0.07895100  0.55983300  0.76112800  1
  H  H7  1  0.91890700  0.57285600  0.76289000  1
  H  H8  1  0.51598600  0.10594200  0.21971400  1
  H  H9  1  0.55360200  0.18595100  0.70206500  1
  H  H10  1  0.49861600  0.08745100  0.90224300  1
  H  H11  1  0.41298100  0.89823800  0.88350500  1
  H  H12  1  0.39420200  0.80208300  0.66520000  1
  H  H13  1  0.50635600  0.88667900  0.21743400  1
  H  H14  1  0.58591800  0.63424100  0.05525400  1
  H  H15  1  0.38417800  0.32269700  0.17539400  1
  H  H16  1  0.29156000  0.18779900  0.05409900  1
  H  H17  1  0.28932800  0.19104200  0.80467300  1
  H  H18  1  0.37997600  0.32866400  0.68392300  1
  H  H19  1  0.58454100  0.63633300  0.80561600  1
  H  H20  1  0.69114900  0.72781600  0.61007000  1
  H  H21  1  0.80700100  0.74301600  0.56818400  1
  H  H22  1  0.73239500  0.73471000  0.85924500  1
  H  H23  1  0.84578600  0.76338100  0.80975400  1
  H  H24  1  0.79733900  0.94806100  0.68283700  1
  H  H25  1  0.76859600  0.95538100  0.86148400  1
  H  H26  1  0.68429000  0.92056000  0.73670400  1
  C  C1  1  0.50612200  0.25750100  0.43246200  1
  C  C2  1  0.32091800  0.48710600  0.42920100  1
  C  C3  1  0.48440700  0.73517800  0.42962600  1
  C  C4  1  0.66782900  0.51066000  0.43119500  1
  C  C5  1  0.81291400  0.54352600  0.54859200  1
  C  C6  1  0.76543100  0.51466000  0.43145300  1
  C  C7  1  0.81104800  0.48597900  0.31343500  1
  C  C8  1  0.90241900  0.48224200  0.31277700  1
  C  C9  1  0.94909200  0.50408500  0.43090800  1
  C  C10  1  0.90447600  0.53334100  0.54919700  1
  C  C11  1  0.94717600  0.45466800  0.19407100  1
  C  C12  1  0.03841600  0.44997200  0.19322000  1
  C  C13  1  0.08527600  0.47134100  0.31150900  1
  C  C14  1  0.04050400  0.49752300  0.43044200  1
  C  C15  1  0.08725700  0.51767800  0.54883400  1
  C  C16  1  0.04279100  0.54455100  0.66762300  1
  C  C17  1  0.95183000  0.55282700  0.66791300  1
  C  C18  1  0.17677300  0.46724900  0.31063300  1
  C  C19  1  0.22376800  0.48749200  0.42945000  1
  C  C20  1  0.17846600  0.51160100  0.54876800  1
  C  C21  1  0.51449500  0.10525500  0.68730200  1
  C  C22  1  0.48662700  0.04706900  0.80353900  1
  C  C23  1  0.44027600  0.94057200  0.79340300  1
  C  C24  1  0.43287000  0.88443700  0.66901400  1
  C  C25  1  0.47058700  0.93559100  0.55284700  1
  C  C26  1  0.49773300  0.05611000  0.55881600  1
  C  C27  1  0.50767600  0.12219900  0.43717100  1
  C  C28  1  0.50720600  0.05879700  0.31534200  1
  C  C29  1  0.49930700  0.93371700  0.31346900  1
  C  C30  1  0.48075400  0.87014500  0.43154700  1
  C  C31  1  0.38679900  0.33018100  0.06786900  1
  C  C32  1  0.33280400  0.25124500  0.99882900  1
  C  C33  1  0.33156100  0.25305700  0.86021300  1
  C  C34  1  0.38451600  0.33353500  0.79147000  1
  C  C35  1  0.43973500  0.41504800  0.85907100  1
  C  C36  1  0.44075900  0.41345000  0.00059700  1
  C  C37  1  0.54412600  0.57085000  0.00091400  1
  C  C38  1  0.54328400  0.57220700  0.85963400  1
  C  C39  1  0.75949200  0.70872800  0.64529600  1
  C  C40  1  0.77556700  0.77405000  0.77922200  1
  C  C41  1  0.75504200  0.90829200  0.76376500  1
  N  N1  1  0.49334400  0.49174000  0.07097000  1
  N  N2  1  0.49153300  0.49469400  0.78910400  1
  O  O1  1  0.50125700  0.31733200  0.54615800  1
  O  O2  1  0.50398900  0.31455900  0.31505700  1
  O  O3  1  0.36240100  0.49195900  0.54550300  1
  O  O4  1  0.36296800  0.48684900  0.31313500  1
  O  O5  1  0.48929500  0.67850200  0.54738200  1
  O  O6  1  0.48777400  0.67705800  0.31138200  1
  O  O7  1  0.62602200  0.50712300  0.54890000  1
  O  O8  1  0.62658100  0.50720500  0.31279900  1
  O  O9  1  0.77025100  0.58330200  0.66345400  1
