# generated using pymatgen
data_Zn2H28C45(NO5)2
_symmetry_space_group_name_H-M   'P 1'
_cell_length_a   15.35675100
_cell_length_b   11.67051500
_cell_length_c   9.30214500
_cell_angle_alpha   90.16781500
_cell_angle_beta   90.00109000
_cell_angle_gamma   90.00000000
_symmetry_Int_Tables_number   1
_chemical_formula_structural   Zn2H28C45(NO5)2
_chemical_formula_sum   'Zn2 H28 C45 N2 O10'
_cell_volume   1667.13437223
_cell_formula_units_Z   1
loop_
 _symmetry_equiv_pos_site_id
 _symmetry_equiv_pos_as_xyz
  1  'x, y, z'
loop_
 _atom_site_type_symbol
 _atom_site_label
 _atom_site_symmetry_multiplicity
 _atom_site_fract_x
 _atom_site_fract_y
 _atom_site_fract_z
 _atom_site_occupancy
  Zn  Zn1  1  0.50373500  0.50119800  0.84360700  1
  Zn  Zn2  1  0.50432400  0.49450100  0.16497700  1
  H  H1  1  0.13622700  0.79661200  0.22152500  1
  H  H2  1  0.33463600  0.80953000  0.80663900  1
  H  H3  1  0.26525300  0.67550500  0.21841100  1
  H  H4  1  0.20656900  0.93363900  0.81326000  1
  H  H5  1  0.13572900  0.20067900  0.78607900  1
  H  H6  1  0.33301500  0.18797300  0.20227600  1
  H  H7  1  0.26403400  0.32252000  0.79071400  1
  H  H8  1  0.20561700  0.06250100  0.19410900  1
  H  H9  1  0.86245800  0.81723500  0.22575000  1
  H  H10  1  0.68066300  0.79018400  0.79235300  1
  H  H11  1  0.73286800  0.69754300  0.22739700  1
  H  H12  1  0.87272500  0.20060100  0.78393700  1
  H  H13  1  0.67526500  0.18736000  0.19989000  1
  H  H14  1  0.74468700  0.32346400  0.78943600  1
  H  H15  1  0.80203700  0.06087900  0.19054400  1
  H  H16  1  0.00404200  0.78998900  0.04339000  1
  H  H17  1  0.00397300  0.20513100  0.95988800  1
  H  H18  1  0.50338800  0.67706900  0.63066500  1
  H  H19  1  0.50403800  0.27844100  0.76663400  1
  H  H20  1  0.50463800  0.10739300  0.64441100  1
  H  H21  1  0.50519200  0.10269900  0.38220000  1
  H  H22  1  0.50514000  0.27013000  0.25191100  1
  H  H23  1  0.50394000  0.67156600  0.36833700  1
  H  H24  1  0.89642000  0.06630400  0.56793900  1
  H  H25  1  0.90270100  0.92071100  0.49999200  1
  H  H26  1  0.04731200  0.04883900  0.66154100  1
  H  H27  1  0.04270000  0.02383900  0.46948900  1
  H  H28  1  0.05327700  0.90412600  0.59172200  1
  C  C1  1  0.30927700  0.73443800  0.01241100  1
  C  C2  1  0.08233100  0.93959800  0.01622900  1
  C  C3  1  0.18061700  0.80119900  0.13153000  1
  C  C4  1  0.29226900  0.80763200  0.89938500  1
  C  C5  1  0.25397000  0.73323100  0.12972300  1
  C  C6  1  0.16369800  0.87441000  0.01898000  1
  C  C7  1  0.22044200  0.87878400  0.90384200  1
  C  C8  1  0.30765100  0.26326100  0.99667500  1
  C  C9  1  0.08218500  0.05603200  0.98951800  1
  C  C10  1  0.17985100  0.19587400  0.87632900  1
  C  C11  1  0.29080500  0.18968800  0.10932700  1
  C  C12  1  0.25272500  0.26446100  0.87905300  1
  C  C13  1  0.16314900  0.12192100  0.98818500  1
  C  C14  1  0.21945500  0.11778400  0.10392500  1
  C  C15  1  0.69740100  0.73673000  0.00970000  1
  C  C16  1  0.92617600  0.93893100  0.01181200  1
  C  C17  1  0.82203500  0.81271300  0.13076500  1
  C  C18  1  0.71951900  0.79848800  0.88862300  1
  C  C19  1  0.74819600  0.74580800  0.13173500  1
  C  C20  1  0.84520200  0.87304100  0.00944800  1
  C  C21  1  0.79347700  0.86628300  0.88699600  1
  C  C22  1  0.00420600  0.88182100  0.02852500  1
  C  C23  1  0.70090700  0.26362300  0.99498900  1
  C  C24  1  0.92602700  0.05561800  0.98752900  1
  C  C25  1  0.82834300  0.19549600  0.87384000  1
  C  C26  1  0.71739900  0.18915200  0.10685600  1
  C  C27  1  0.75575500  0.26476600  0.87719600  1
  C  C28  1  0.84468400  0.12073500  0.98502300  1
  C  C29  1  0.78833100  0.11653800  0.10068800  1
  C  C30  1  0.00406100  0.11327200  0.97441800  1
  C  C31  1  0.62472300  0.65525000  0.00570200  1
  C  C32  1  0.62799500  0.34433400  0.00153300  1
  C  C33  1  0.38079800  0.34345100  0.00229200  1
  C  C34  1  0.38245300  0.65396100  0.00648900  1
  C  C35  1  0.50421600  0.28939800  0.65401500  1
  C  C36  1  0.50459200  0.18637600  0.58399400  1
  C  C37  1  0.50490500  0.18374000  0.43877300  1
  C  C38  1  0.50487700  0.28422300  0.36409700  1
  C  C39  1  0.50451200  0.39184800  0.43166000  1
  C  C40  1  0.50412400  0.39491800  0.58171500  1
  C  C41  1  0.50366400  0.59506200  0.57640900  1
  C  C42  1  0.50404900  0.59180500  0.42703800  1
  C  C43  1  0.81809100  0.92175800  0.75088100  1
  C  C44  1  0.92566000  0.98049700  0.58482900  1
  C  C45  1  0.02381500  0.98996500  0.57630500  1
  N  N1  1  0.50367300  0.49762100  0.65392000  1
  N  N2  1  0.50449200  0.49130800  0.35462700  1
  O  O1  1  0.59726400  0.61303200  0.12938100  1
  O  O2  1  0.59408800  0.62344000  0.87867800  1
  O  O3  1  0.59893600  0.38644800  0.88155100  1
  O  O4  1  0.59675300  0.37566000  0.12591800  1
  O  O5  1  0.40907300  0.38579200  0.88193800  1
  O  O6  1  0.41252100  0.37475900  0.12633100  1
  O  O7  1  0.41059500  0.61196900  0.12979400  1
  O  O8  1  0.41291300  0.62286700  0.87898400  1
  O  O9  1  0.76196700  0.94315400  0.66216400  1
  O  O10  1  0.90243900  0.93950700  0.71746900  1
