# generated using pymatgen
data_ZnH20C22N5O8
_symmetry_space_group_name_H-M   'P 1'
_cell_length_a   15.30086200
_cell_length_b   14.12174900
_cell_length_c   9.32771100
_cell_angle_alpha   90.00000000
_cell_angle_beta   89.99647700
_cell_angle_gamma   90.00000000
_symmetry_Int_Tables_number   1
_chemical_formula_structural   ZnH20C22N5O8
_chemical_formula_sum   'Zn2 H40 C44 N10 O16'
_cell_volume   2015.48452227
_cell_formula_units_Z   2
loop_
 _symmetry_equiv_pos_site_id
 _symmetry_equiv_pos_as_xyz
  1  'x, y, z'
loop_
 _atom_site_type_symbol
 _atom_site_label
 _atom_site_symmetry_multiplicity
 _atom_site_fract_x
 _atom_site_fract_y
 _atom_site_fract_z
 _atom_site_occupancy
  Zn  Zn1  1  0.50000800  0.61070000  0.49999100  1
  Zn  Zn2  1  0.50000900  0.39493100  0.49999100  1
  H  H1  1  0.05588700  0.63817900  0.41934100  1
  H  H2  1  0.94113400  0.36132900  0.40875000  1
  H  H3  1  0.94413100  0.63817400  0.58065200  1
  H  H4  1  0.05888000  0.36132600  0.59121500  1
  H  H5  1  0.47164300  0.06958200  0.27648500  1
  H  H6  1  0.59750900  0.93642400  0.66143900  1
  H  H7  1  0.52837400  0.06958200  0.72349600  1
  H  H8  1  0.40250600  0.93642200  0.33854200  1
  H  H9  1  0.48798900  0.22412700  0.15880800  1
  H  H10  1  0.38431300  0.29012700  0.01095200  1
  H  H11  1  0.29757900  0.35370400  0.10003700  1
  H  H12  1  0.28614300  0.22835200  0.06542200  1
  H  H13  1  0.62115400  0.68891900  0.68892700  1
  H  H14  1  0.66542000  0.66713100  0.91958200  1
  H  H15  1  0.57756700  0.70103900  0.03748500  1
  H  H16  1  0.67280400  0.77571800  0.02117800  1
  H  H17  1  0.51203200  0.22412700  0.84117200  1
  H  H18  1  0.61571200  0.29012900  0.98902300  1
  H  H19  1  0.70244400  0.35370600  0.89993400  1
  H  H20  1  0.71388100  0.22835500  0.93454900  1
  H  H21  1  0.37886200  0.68891800  0.31105700  1
  H  H22  1  0.33458900  0.66713300  0.08040200  1
  H  H23  1  0.42243900  0.70104200  0.96249600  1
  H  H24  1  0.32720200  0.77571900  0.97881000  1
  H  H25  1  0.22944200  0.71461700  0.49302100  1
  H  H26  1  0.24999700  0.83928100  0.28252800  1
  H  H27  1  0.13912700  0.83404900  0.34831400  1
  H  H28  1  0.16072100  0.81988900  0.15903700  1
  H  H29  1  0.73321600  0.35901300  0.29547500  1
  H  H30  1  0.72203700  0.20250300  0.23413800  1
  H  H31  1  0.72883700  0.12482700  0.38761600  1
  H  H32  1  0.82257100  0.14012700  0.27192800  1
  H  H33  1  0.77057800  0.71462200  0.50699500  1
  H  H34  1  0.75002200  0.83926500  0.71750300  1
  H  H35  1  0.86089600  0.83403400  0.65172000  1
  H  H36  1  0.83929800  0.81986100  0.84099600  1
  H  H37  1  0.26679700  0.35899900  0.70449700  1
  H  H38  1  0.27797000  0.20249600  0.76582300  1
  H  H39  1  0.27117200  0.12482100  0.61234000  1
  H  H40  1  0.17743500  0.14012100  0.72802400  1
  C  C1  1  0.32800600  0.50260800  0.50069600  1
  C  C2  1  0.67201100  0.50260900  0.49928600  1
  C  C3  1  0.48341800  0.10535100  0.37692400  1
  C  C4  1  0.55183900  0.89988200  0.59274300  1
  C  C5  1  0.51659900  0.10535100  0.62305700  1
  C  C6  1  0.44817700  0.89988200  0.40724000  1
  C  C7  1  0.50058300  0.50300700  0.21928800  1
  C  C8  1  0.49943400  0.50300700  0.78069300  1
  C  C9  1  0.50000800  0.05487000  0.49999100  1
  C  C10  1  0.50000800  0.95026100  0.49999100  1
  C  C11  1  0.50021300  0.50293300  0.06478000  1
  C  C12  1  0.49980400  0.50293300  0.93520100  1
  C  C13  1  0.09243000  0.57699000  0.45447000  1
  C  C14  1  0.90548700  0.42027500  0.45385900  1
  C  C15  1  0.90758700  0.57698800  0.54551700  1
  C  C16  1  0.09452900  0.42027300  0.54611100  1
  C  C17  1  0.18268000  0.57979600  0.45472100  1
  C  C18  1  0.81469400  0.42112300  0.45237600  1
  C  C19  1  0.81733700  0.57979400  0.54526800  1
  C  C20  1  0.18532200  0.42112100  0.54759600  1
  C  C21  1  0.23071000  0.50166700  0.50184900  1
  C  C22  1  0.76930600  0.50166700  0.49813200  1
  C  C23  1  0.04803300  0.49756800  0.49858600  1
  C  C24  1  0.95198300  0.49756800  0.50139200  1
  C  C25  1  0.48113700  0.20303000  0.37881000  1
  C  C26  1  0.54663600  0.80205400  0.59956700  1
  C  C27  1  0.51888100  0.20303100  0.62117100  1
  C  C28  1  0.45338000  0.80205500  0.40041400  1
  C  C29  1  0.37214900  0.26393900  0.23719400  1
  C  C30  1  0.33289800  0.28523000  0.09435900  1
  C  C31  1  0.58484900  0.78179800  0.84394200  1
  C  C32  1  0.62784000  0.72793700  0.96234000  1
  C  C33  1  0.62787100  0.26393900  0.76278000  1
  C  C34  1  0.66712600  0.28523200  0.90561400  1
  C  C35  1  0.41516200  0.78180000  0.15604100  1
  C  C36  1  0.37216800  0.72793900  0.03764500  1
  C  C37  1  0.19320700  0.70046200  0.28845000  1
  C  C38  1  0.18557800  0.80490600  0.26838900  1
  C  C39  1  0.79642800  0.25589900  0.41243500  1
  C  C40  1  0.76540900  0.17617000  0.32057300  1
  C  C41  1  0.80681000  0.70044600  0.71156000  1
  C  C42  1  0.81444200  0.80488800  0.73163900  1
  C  C43  1  0.20358500  0.25589500  0.58752600  1
  C  C44  1  0.23460000  0.17616300  0.67938600  1
  N  N1  1  0.50000900  0.25262700  0.49999000  1
  N  N2  1  0.50000800  0.75287200  0.49999100  1
  N  N3  1  0.45878400  0.24935600  0.25053400  1
  N  N4  1  0.59587200  0.75465200  0.70610100  1
  N  N5  1  0.54123600  0.24935600  0.74944600  1
  N  N6  1  0.40414300  0.75465100  0.29388200  1
  N  N7  1  0.22392200  0.66483400  0.41294600  1
  N  N8  1  0.76927000  0.34541000  0.38631600  1
  N  N9  1  0.77609500  0.66482900  0.58705600  1
  N  N10  1  0.23074500  0.34540500  0.61364900  1
  O  O1  1  0.36968900  0.58419500  0.50122200  1
  O  O2  1  0.63022400  0.42120100  0.50136100  1
  O  O3  1  0.63032800  0.58419600  0.49876000  1
  O  O4  1  0.36979300  0.42120100  0.49862000  1
  O  O5  1  0.49990200  0.58454800  0.28630500  1
  O  O6  1  0.49894900  0.42152300  0.71351000  1
  O  O7  1  0.50011500  0.58454800  0.71367700  1
  O  O8  1  0.50106800  0.42152400  0.28647200  1
  O  O9  1  0.32516900  0.25841800  0.34222200  1
  O  O10  1  0.53923000  0.84976000  0.87326300  1
  O  O11  1  0.67485000  0.25841800  0.65775100  1
  O  O12  1  0.46078000  0.84976200  0.12671800  1
  O  O13  1  0.16918600  0.64723600  0.19332200  1
  O  O14  1  0.84261200  0.23867600  0.51577300  1
  O  O15  1  0.83082700  0.64721200  0.80667800  1
  O  O16  1  0.15740300  0.23867500  0.48418400  1
