# Generated by REPEAT Assigner based on pymatgen
data_DB0-m29_o99_o540_f0_pts.sym.2
_audit_creation_date              2022-05-24
_audit_creation_method            REPEAT_Assigner
_cell_length_a                    15.925984
_cell_length_b                    23.981451
_cell_length_c                    13.855243
_cell_angle_alpha                 85.447299
_cell_angle_beta                  97.494180
_cell_angle_gamma                 94.980128
_cell_volume                      5214.279724
_symmetry_space_group_name_H-M    P1
_symmetry_Int_Tables_number       1
loop_
    _symmetry_equiv_pos_site_id
    _symmetry_equiv_pos_as_xyz
    1  x,y,z
loop_
    _atom_site_type_symbol
    _atom_site_label
    _atom_site_fract_x
    _atom_site_fract_y
    _atom_site_fract_z
    _atom_type_partial_charge
    C   C1   0.233109  0.987236  0.866979  -0.136720
    H   H1   0.243537  0.983333  0.792350  0.163297
    C   C2   0.151322  0.986806  0.889401  -0.178006
    H   H2   0.098156  0.981498  0.832992  0.149725
    C   C3   0.137476  0.995163  0.982926  0.329884
    C   C4   0.205303  0.001610  0.054932  -0.248213
    H   H3   0.192452  0.006523  0.128313  0.183452
    C   C5   0.287974  0.001754  0.033551  0.061250
    C   C6   0.301618  0.996227  0.937564  0.019220
    C   C7   0.052429  0.997707  0.005528  -0.214092
    C   C8   0.981372  0.000262  0.025338  0.009024
    C   C9   0.828964  0.996197  0.978244  -0.143626
    H   H4   0.841918  0.991133  0.904958  0.162592
    C   C10  0.746141  0.995820  0.999123  0.004360
    C   C11  0.732214  0.001433  0.094797  0.043112
    C   C12  0.800374  0.010927  0.165407  -0.302345
    H   H5   0.789228  0.015078  0.239716  0.193334
    C   C13  0.882656  0.011753  0.144245  0.296090
    C   C14  0.896942  0.003054  0.050170  0.018284
    O   O1   0.529718  0.080198  0.741146  -0.582084
    C   C15  0.467936  0.081697  0.668671  0.619424
    O   O2   0.430687  0.053671  0.921668  -0.480343
    O   O3   0.412171  0.038201  0.660266  -0.551036
    O   O4   0.413152  0.970435  0.851634  -0.489339
    C   C16  0.385987  0.005946  0.905668  0.574303
    Fe  Fe1  0.520111  0.003616  0.805234  1.409843
    O   O5   0.599058  0.004112  0.930501  -0.480718
    O   O6   0.692233  0.983313  0.830777  -0.506325
    C   C17  0.676033  0.992542  0.918309  0.515821
    O   O7   0.542972  0.957996  0.697561  -0.512339
    O   O8   0.499145  0.878117  0.784402  -0.486719
    C   C18  0.526260  0.903319  0.705447  0.595802
    O   O9   0.490919  0.038343  0.335700  -0.514951
    O   O10  0.524504  0.119102  0.244990  -0.485769
    C   C19  0.502117  0.093329  0.325893  0.601756
    O   O11  0.435160  0.993573  0.101681  -0.480139
    O   O12  0.341921  0.013192  0.202142  -0.515846
    C   C20  0.358132  0.004723  0.114273  0.510819
    O   O13  0.620723  0.957771  0.373092  -0.556232
    O   O14  0.621057  0.026652  0.181621  -0.507656
    C   C21  0.647856  0.991570  0.126544  0.608566
    O   O15  0.503719  0.916394  0.290108  -0.582891
    C   C22  0.564549  0.914549  0.363622  0.619855
    O   O16  0.602974  0.944005  0.109719  -0.487171
    Fe  Fe2  0.513882  0.993301  0.227231  1.414921
    C   C23  0.444976  0.699416  0.540837  0.503694
    O   O17  0.377998  0.727968  0.550285  -0.468086
    N   N1   0.520099  0.728955  0.534614  -0.154618
    C   C24  0.589720  0.703485  0.523921  0.437791
    C   C25  0.538460  0.820615  0.449211  -0.222416
    C   C26  0.551586  0.878026  0.450460  0.080420
    C   C27  0.533212  0.872449  0.619872  0.048932
    C   C28  0.521348  0.814580  0.619693  -0.190561
    C   C29  0.525741  0.788635  0.534523  0.229571
    C   C30  0.509696  0.614274  0.524371  0.138356
    C   C31  0.437694  0.640883  0.535529  -0.297155
    C   C32  0.360878  0.608158  0.538287  0.324329
    C   C33  0.585528  0.646164  0.518808  -0.101114
    C   C34  0.550363  0.903337  0.535514  -0.158939
    H   H6   0.510069  0.789451  0.685694  0.154747
    C   C35  0.481250  0.092974  0.496764  -0.158880
    C   C36  0.430799  0.465121  0.530542  0.084055
    C   C37  0.573220  0.473438  0.489770  0.063395
    C   C38  0.500153  0.440349  0.507470  -0.022454
    C   C39  0.362255  0.430492  0.558026  -0.301282
    C   C40  0.358450  0.372979  0.555049  0.313466
    C   C41  0.425925  0.348055  0.524808  -0.284924
    C   C42  0.496710  0.382286  0.502591  0.137676
    C   C43  0.564845  0.357996  0.475570  -0.113305
    C   C44  0.563178  0.300552  0.472027  0.451713
    N   N2   0.494674  0.267678  0.493873  -0.176403
    C   C45  0.426186  0.289987  0.518281  0.507153
    C   C46  0.487135  0.175860  0.581530  -0.213865
    C   C47  0.478918  0.118304  0.581451  0.073333
    C   C48  0.494129  0.124103  0.411268  0.049070
    C   C49  0.500134  0.182110  0.409954  -0.202511
    C   C50  0.494832  0.208051  0.495021  0.233856
    O   O18  0.358117  0.254964  0.533903  -0.481999
    C   C51  0.431953  0.523775  0.528354  0.102076
    C   C52  0.506693  0.556302  0.518505  -0.031190
    C   C53  0.578497  0.531055  0.502552  0.075318
    C   C54  0.359179  0.550786  0.533863  -0.313510
    H   H7   0.484631  0.195730  0.648354  0.163903
    H   H8   0.311210  0.447091  0.587321  0.159681
    H   H9   0.297798  0.528147  0.530299  0.161272
    O   O19  0.663799  0.734342  0.518831  -0.489551
    C   C55  0.657711  0.620765  0.508803  -0.041018
    H   H10  0.540317  0.800549  0.382436  0.164536
    H   H11  0.718250  0.644653  0.506852  0.132161
    C   C56  0.639394  0.448044  0.458912  -0.180773
    C   C57  0.635108  0.391172  0.452259  -0.039409
    O   O20  0.631066  0.277065  0.449435  -0.475357
    C   C58  0.654553  0.564079  0.500885  -0.191780
    H   H12  0.695246  0.470898  0.435826  0.135086
    H   H13  0.688288  0.373393  0.428365  0.128069
    H   H14  0.507268  0.207199  0.342768  0.163886
    H   H15  0.714520  0.547521  0.496961  0.139797
    H   H16  0.558984  0.948536  0.533202  0.163578
    H   H17  0.476331  0.047710  0.500177  0.161109
    C   C59  0.280965  0.340593  0.587660  -0.352262
    H   H18  0.237638  0.368695  0.612377  0.075442
    H   H19  0.244542  0.318637  0.526109  0.139891
    H   H20  0.299520  0.310590  0.650369  0.132999
    C   C60  0.952973  0.020413  0.225701  -0.386444
    H   H21  0.017053  0.021485  0.202651  0.118730
    H   H22  0.946966  0.060810  0.257042  0.122050
    H   H23  0.946856  0.985998  0.283333  0.121345
    C   C61  0.277749  0.631775  0.544921  -0.358741
    H   H24  0.225220  0.598327  0.544853  0.077610
    H   H25  0.280743  0.652476  0.614221  0.140034
    H   H26  0.261562  0.661450  0.480957  0.136241
