# Generated by REPEAT Assigner based on pymatgen
data_DB0-m2_o14_o19_f0_pcu.sym.5
_audit_creation_date              2022-05-24
_audit_creation_method            REPEAT_Assigner
_cell_length_a                    11.780140
_cell_length_b                    10.896466
_cell_length_c                    9.438169
_cell_angle_alpha                 89.986423
_cell_angle_beta                  89.996343
_cell_angle_gamma                 89.996469
_cell_volume                      1211.501160
_symmetry_space_group_name_H-M    P1
_symmetry_Int_Tables_number       1
loop_
    _symmetry_equiv_pos_site_id
    _symmetry_equiv_pos_as_xyz
    1  x,y,z
loop_
    _atom_site_type_symbol
    _atom_site_label
    _atom_site_fract_x
    _atom_site_fract_y
    _atom_site_fract_z
    _atom_type_partial_charge
    O   O1   0.469470  0.319121  0.614338  -0.408500
    O   O2   0.515885  0.323271  0.375302  -0.534755
    C   C1   0.496595  0.263163  0.494925  0.641661
    O   O3   0.329598  0.520571  0.622332  -0.585228
    O   O4   0.327612  0.471774  0.382211  -0.631539
    C   C2   0.275917  0.495909  0.502894  0.866620
    Cu  Cu1  0.493201  0.495105  0.639487  0.673592
    Cu  Cu2  0.490316  0.500054  0.359754  0.877908
    O   O5   0.515455  0.672060  0.620521  -0.468595
    O   O6   0.463385  0.675328  0.387781  -0.512177
    O   O7   0.655891  0.468557  0.613948  -0.608252
    O   O8   0.653573  0.526401  0.380173  -0.620136
    C   C3   0.481407  0.732807  0.508030  0.589819
    C   C4   0.707900  0.496438  0.495994  0.843280
    C   C5   0.154103  0.496411  0.503138  -0.253598
    C   C6   0.051826  0.496770  0.501032  0.063664
    C   C7   0.931992  0.497009  0.497614  0.066795
    C   C8   0.829713  0.496949  0.495578  -0.253241
    C   C9   0.585336  0.122611  0.729712  -0.226644
    H   H1   0.622739  0.212362  0.717760  0.137876
    C   C10  0.595951  0.067078  0.859505  -0.053187
    H   H2   0.635652  0.115334  0.946430  0.079022
    C   C11  0.549644  0.953373  0.880438  -0.057018
    H   H3   0.549110  0.913507  0.985160  0.097642
    C   C12  0.505535  0.889190  0.767767  -0.144055
    H   H4   0.464496  0.803824  0.792898  0.123938
    C   C13  0.505098  0.939080  0.631764  0.070532
    C   C14  0.530274  0.063457  0.618641  0.161734
    C   C15  0.500201  0.127179  0.496175  -0.196091
    C   C16  0.457543  0.061335  0.382835  0.130047
    C   C17  0.449214  0.935482  0.387452  0.046089
    C   C18  0.475863  0.870357  0.510860  -0.140753
    H   H5   0.361108  0.375466  0.131619  0.125655
    C   C19  0.627727  0.669935  0.139579  -0.084136
    H   H6   0.617114  0.695232  0.247292  0.148895
    C   C20  0.709147  0.735664  0.069736  0.021098
    C   C21  0.725060  0.716974  0.929050  -0.011559
    H   H7   0.789245  0.768272  0.872528  0.095093
    C   C22  0.656141  0.636860  0.857736  -0.268826
    H   H8   0.674421  0.632862  0.748327  0.192562
    C   C23  0.571408  0.568483  0.925486  0.141057
    C   C24  0.562613  0.580221  0.072349  0.164106
    N   N1   0.490223  0.507668  0.147199  -0.156547
    C   C25  0.421282  0.431756  0.075034  0.070683
    C   C26  0.421686  0.428378  0.928338  0.006564
    N   N2   0.498845  0.493268  0.852250  0.021047
    Cl  Cl1  0.407190  0.133161  0.229039  -0.103303
    Cl  Cl2  0.318863  0.336190  0.846651  -0.002914
    Cl  Cl3  0.392110  0.868361  0.233734  -0.060390
    Cl  Cl4  0.790751  0.844573  0.160437  -0.075533
