# Generated by REPEAT Assigner based on pymatgen
data_DB0-m29_o80_o46_f0_pts.sym.9
_audit_creation_date              2022-05-24
_audit_creation_method            REPEAT_Assigner
_cell_length_a                    13.973925
_cell_length_b                    9.972223
_cell_length_c                    15.494628
_cell_angle_alpha                 82.013682
_cell_angle_beta                  91.505525
_cell_angle_gamma                 114.330502
_cell_volume                      1947.193266
_symmetry_space_group_name_H-M    P1
_symmetry_Int_Tables_number       1
loop_
    _symmetry_equiv_pos_site_id
    _symmetry_equiv_pos_as_xyz
    1  x,y,z
loop_
    _atom_site_type_symbol
    _atom_site_label
    _atom_site_fract_x
    _atom_site_fract_y
    _atom_site_fract_z
    _atom_type_partial_charge
    H   H1   0.874839  0.960934  0.302473  0.191775
    C   C1   0.736306  0.038432  0.866779  -0.165358
    C   C2   0.810694  0.088929  0.799843  -0.185248
    C   C3   0.900724  0.085823  0.835511  0.388934
    N   N1   0.886512  0.040679  0.922086  -0.428364
    C   C4   0.785790  0.012629  0.941715  0.389828
    C   C5   0.985134  0.108899  0.787475  -0.338096
    C   C6   0.070927  0.069092  0.819767  0.294870
    C   C7   0.123979  0.017845  0.768861  -0.291426
    C   C8   0.200683  0.996210  0.819321  -0.111061
    C   C9   0.190974  0.034939  0.900461  0.150742
    N   N2   0.112140  0.080460  0.899152  0.060369
    C   C10  0.254503  0.027437  0.976733  -0.168958
    C   C11  0.211432  0.985567  0.057379  0.314296
    C   C12  0.260727  0.960530  0.132579  -0.110679
    C   C13  0.185474  0.906582  0.198867  -0.229159
    C   C14  0.094977  0.906805  0.162697  0.464202
    N   N3   0.109566  0.952722  0.076191  -0.440671
    C   C15  0.009911  0.880750  0.210716  -0.389222
    C   C16  0.922147  0.916916  0.179656  0.395391
    C   C17  0.863886  0.954964  0.233549  -0.296177
    C   C18  0.789798  0.983145  0.183196  -0.094373
    C   C19  0.805772  0.960205  0.099228  0.246613
    N   N4   0.886523  0.918558  0.098211  -0.279857
    C   C20  0.743901  0.974397  0.022752  -0.241241
    H   H2   0.798602  0.112775  0.731217  0.154009
    H   H3   0.981629  0.133880  0.717417  0.175825
    H   H4   0.109529  0.002036  0.701325  0.199789
    H   H5   0.334085  0.039619  0.966430  0.172262
    H   H6   0.197035  0.882048  0.267528  0.160040
    H   H7   0.013295  0.853756  0.280624  0.180819
    H   H8   0.665174  0.965445  0.033293  0.187453
    H   H9   0.912345  0.883206  0.046921  0.282030
    O   O1   0.633221  0.037997  0.180022  -0.585429
    C   C21  0.711063  0.020792  0.222420  0.632829
    O   O2   0.444454  0.720728  0.303440  -0.545173
    O   O3   0.713484  0.023658  0.306812  -0.534566
    O   O4   0.516958  0.905776  0.386541  -0.556853
    C   C22  0.477722  0.763892  0.378987  0.603380
    Fe  Fe1  0.535393  0.031386  0.272254  1.421364
    O   O5   0.389502  0.942557  0.227756  -0.534131
    O   O6   0.447238  0.102198  0.100945  -0.505269
    C   C23  0.371074  0.996830  0.150388  0.644249
    O   O7   0.597887  0.243054  0.295811  -0.600614
    O   O8   0.429420  0.216078  0.282956  -0.491544
    C   C24  0.523951  0.287583  0.310777  0.630176
    C   C25  0.469163  0.658878  0.457724  -0.017737
    C   C26  0.452980  0.703098  0.534497  -0.145465
    H   H10  0.438390  0.801722  0.532904  0.136342
    C   C27  0.464773  0.633136  0.613775  0.046814
    C   C28  0.490378  0.513373  0.617184  -0.227266
    H   H11  0.501699  0.466468  0.681077  0.165334
    C   C29  0.503445  0.461343  0.540913  0.089001
    C   C30  0.492950  0.534924  0.460006  0.151316
    H   H12  0.495880  0.530350  0.319770  0.178095
    C   C31  0.506531  0.483124  0.383770  -0.259218
    C   C32  0.531973  0.363168  0.387270  0.062912
    H   H13  0.557104  0.193588  0.468436  0.143507
    C   C33  0.542961  0.292604  0.466634  -0.176094
    C   C34  0.526789  0.337079  0.543295  0.041029
    O   O9   0.606270  0.054958  0.772409  -0.518849
    O   O10  0.550134  0.897813  0.900202  -0.506660
    C   C35  0.625725  0.002477  0.849898  0.648162
    O   O11  0.398469  0.752598  0.705212  -0.591012
    O   O12  0.567328  0.781282  0.717727  -0.487024
    C   C36  0.472790  0.708887  0.690178  0.617956
    O   O13  0.553345  0.275830  0.697097  -0.532560
    O   O14  0.362507  0.955163  0.822553  -0.589021
    C   C37  0.279094  0.956113  0.781657  0.652342
    O   O15  0.476017  0.089940  0.615121  -0.544408
    C   C38  0.517567  0.232126  0.622168  0.554315
    O   O16  0.273346  0.942321  0.698497  -0.542781
    Fe  Fe2  0.459809  0.964196  0.729077  1.408455
    O   O17  0.096936  0.160779  0.956684  -0.352349
    H   H14  0.146552  0.264492  0.936276  0.377093
