# generated using pymatgen
data_Zn2H27C52N7O8
_symmetry_space_group_name_H-M   'P 1'
_cell_length_a   13.15157300
_cell_length_b   13.38171800
_cell_length_c   16.52223700
_cell_angle_alpha   94.66961600
_cell_angle_beta   90.04484200
_cell_angle_gamma   90.60393100
_symmetry_Int_Tables_number   1
_chemical_formula_structural   Zn2H27C52N7O8
_chemical_formula_sum   'Zn2 H27 C52 N7 O8'
_cell_volume   2897.94243319
_cell_formula_units_Z   1
loop_
 _symmetry_equiv_pos_site_id
 _symmetry_equiv_pos_as_xyz
  1  'x, y, z'
loop_
 _atom_site_type_symbol
 _atom_site_label
 _atom_site_symmetry_multiplicity
 _atom_site_fract_x
 _atom_site_fract_y
 _atom_site_fract_z
 _atom_site_occupancy
  Zn  Zn1  1  0.51355600  0.89241600  0.49652500  1
  Zn  Zn2  1  0.48775900  0.11398400  0.50520700  1
  H  H1  1  0.00348100  0.95759000  0.72187300  1
  H  H2  1  0.33515900  0.95672900  0.99546100  1
  H  H3  1  0.99482100  0.02753000  0.27517200  1
  H  H4  1  0.93573900  0.94803600  0.95353400  1
  H  H5  1  0.05743400  0.02247400  0.04270800  1
  H  H6  1  0.39469100  0.89561000  0.11454800  1
  H  H7  1  0.16651600  0.03185600  0.33510300  1
  H  H8  1  0.83960200  0.00510800  0.33631800  1
  H  H9  1  0.53354700  0.05626400  0.26813800  1
  H  H10  1  0.58012100  0.06286500  0.12847900  1
  H  H11  1  0.62446700  0.13123700  0.88245600  1
  H  H12  1  0.83080000  0.95877800  0.66378400  1
  H  H13  1  0.16109700  0.98222600  0.66138700  1
  H  H14  1  0.46990200  0.97576200  0.73978900  1
  H  H15  1  0.41813400  0.96160000  0.87962900  1
  H  H16  1  0.44845000  0.89869000  0.25613100  1
  H  H17  1  0.56860800  0.12768700  0.74263600  1
  H  H18  1  0.32216100  0.25627300  0.49761600  1
  H  H19  1  0.67696000  0.74033300  0.50519100  1
  H  H20  1  0.75304600  0.58098300  0.51476600  1
  H  H21  1  0.73864000  0.40024800  0.52118800  1
  H  H22  1  0.32441300  0.43406800  0.49273600  1
  H  H23  1  0.33754000  0.58806500  0.48619600  1
  H  H24  1  0.64036900  0.25306700  0.51811000  1
  H  H25  1  0.35958300  0.76156600  0.48351400  1
  H  H26  1  0.59371500  0.05245200  0.98856100  1
  H  H27  1  0.62936600  0.93494200  0.95178200  1
  C  C1  1  0.81042600  0.02566900  0.20977700  1
  C  C2  1  0.73846600  0.03069900  0.15090600  1
  C  C3  1  0.78839100  0.02929100  0.07717400  1
  C  C4  1  0.90381200  0.02751100  0.17162600  1
  C  C5  1  0.74328200  0.02085400  0.00352900  1
  C  C6  1  0.79915800  0.02102100  0.92559300  1
  C  C7  1  0.75540500  0.04063800  0.85244000  1
  C  C8  1  0.81813300  0.00455500  0.79181700  1
  C  C9  1  0.90500500  0.97227000  0.82904600  1
  C  C10  1  0.00381900  0.95681000  0.78729700  1
  C  C11  1  0.09403500  0.95791800  0.82545300  1
  C  C12  1  0.18815400  0.96369700  0.78844300  1
  C  C13  1  0.25889900  0.96164600  0.84845800  1
  C  C14  1  0.20788900  0.95803400  0.92072400  1
  C  C15  1  0.25318700  0.95878600  0.99351000  1
  C  C16  1  0.20203200  0.96896100  0.07302900  1
  C  C17  1  0.24991400  0.96006700  0.14622100  1
  C  C18  1  0.18413500  0.99072200  0.20658800  1
  C  C19  1  0.09349400  0.01256600  0.16853300  1
  C  C20  1  0.99426000  0.02686000  0.20967200  1
  C  C21  1  0.34456500  0.92495000  0.16228700  1
  C  C22  1  0.37418400  0.92660000  0.24236900  1
  C  C23  1  0.31440900  0.97086800  0.30448200  1
  C  C24  1  0.21553900  0.00037200  0.28736300  1
  C  C25  1  0.78386800  0.01552500  0.28978300  1
  C  C26  1  0.68122300  0.01930100  0.30838300  1
  C  C27  1  0.61128100  0.04205900  0.25057700  1
  C  C28  1  0.63797300  0.04495900  0.17086600  1
  C  C29  1  0.66851600  0.09094800  0.83583400  1
  C  C30  1  0.63888800  0.09125000  0.75601600  1
  C  C31  1  0.69129500  0.03662200  0.69464900  1
  C  C32  1  0.78627700  0.99745000  0.71129600  1
  C  C33  1  0.21627900  0.97765600  0.70936900  1
  C  C34  1  0.31956900  0.98691200  0.69383800  1
  C  C35  1  0.39024400  0.97618500  0.75455400  1
  C  C36  1  0.36105500  0.96605800  0.83312400  1
  C  C37  1  0.36315300  0.98546300  0.38511400  1
  C  C38  1  0.63983500  0.01102600  0.38888000  1
  C  C39  1  0.63871600  0.02112000  0.61587600  1
  C  C40  1  0.36177400  0.99543800  0.61332500  1
  C  C41  1  0.57075000  0.29432900  0.51397700  1
  C  C42  1  0.39419100  0.29597200  0.50224800  1
  C  C43  1  0.39674200  0.39884600  0.49903400  1
  C  C44  1  0.48917300  0.45135500  0.50273500  1
  C  C45  1  0.57645000  0.39680200  0.51082700  1
  C  C46  1  0.41453300  0.61571700  0.48989800  1
  C  C47  1  0.49787400  0.55538700  0.49826600  1
  C  C48  1  0.59297800  0.60167900  0.50278100  1
  C  C49  1  0.67881000  0.54544500  0.51116600  1
  C  C50  1  0.67054500  0.44350200  0.51490200  1
  C  C51  1  0.42711600  0.71721900  0.48736200  1
  C  C52  1  0.60280200  0.70480300  0.49987000  1
  N  N1  1  0.88985500  0.02960000  0.09039400  1
  N  N2  1  0.89058000  0.97867000  0.91058300  1
  N  N3  1  0.10669800  0.95589900  0.90668300  1
  N  N4  1  0.10703200  0.00238000  0.08704300  1
  N  N5  1  0.48071100  0.24515200  0.50976700  1
  N  N6  1  0.51983700  0.76115700  0.49195200  1
  N  N7  1  0.63858500  0.99112300  0.99895600  1
  O  O1  1  0.38628400  0.07694900  0.41566300  1
  O  O2  1  0.40611900  0.90642700  0.41131000  1
  O  O3  1  0.61602200  0.92107700  0.41042700  1
  O  O4  1  0.59743600  0.09272800  0.42095100  1
  O  O5  1  0.61536200  0.92929300  0.58586200  1
  O  O6  1  0.59576200  0.10038600  0.58996500  1
  O  O7  1  0.38569400  0.08515000  0.59157700  1
  O  O8  1  0.40395700  0.91397700  0.58086000  1
