# generated using pymatgen
data_FeH10C23N3O10
_symmetry_space_group_name_H-M   'P 1'
_cell_length_a   13.47086200
_cell_length_b   20.41429600
_cell_length_c   11.11972400
_cell_angle_alpha   110.07631800
_cell_angle_beta   85.75439100
_cell_angle_gamma   74.15372300
_symmetry_Int_Tables_number   1
_chemical_formula_structural   FeH10C23N3O10
_chemical_formula_sum   'Fe2 H20 C46 N6 O20'
_cell_volume   2714.90387410
_cell_formula_units_Z   2
loop_
 _symmetry_equiv_pos_site_id
 _symmetry_equiv_pos_as_xyz
  1  'x, y, z'
loop_
 _atom_site_type_symbol
 _atom_site_label
 _atom_site_symmetry_multiplicity
 _atom_site_fract_x
 _atom_site_fract_y
 _atom_site_fract_z
 _atom_site_occupancy
  Fe  Fe1  1  0.50247700  0.99558100  0.26038800  1
  Fe  Fe2  1  0.48595600  0.00125500  0.74188000  1
  H  H1  1  0.17597100  0.00564500  0.27079500  1
  H  H2  1  0.00300800  0.01452400  0.22460000  1
  H  H3  1  0.10963600  0.99980300  0.84054800  1
  H  H4  1  0.94588000  0.06188400  0.85771400  1
  H  H5  1  0.78219200  0.05431100  0.79146400  1
  H  H6  1  0.89291900  0.96482700  0.13242700  1
  H  H7  1  0.90673000  0.34608300  0.42826700  1
  H  H8  1  0.26120900  0.23308700  0.43733300  1
  H  H9  1  0.28121600  0.27771400  0.89640300  1
  H  H10  1  0.18130600  0.37674900  0.83696800  1
  H  H11  1  0.73029900  0.76887300  0.56651300  1
  H  H12  1  0.80695400  0.61687100  0.17470100  1
  H  H13  1  0.80201100  0.41852200  0.24306400  1
  H  H14  1  0.76494400  0.38659900  0.35404400  1
  H  H15  1  0.62037400  0.70804700  0.06838300  1
  H  H16  1  0.74602900  0.65286200  0.02014800  1
  H  H17  1  0.08769800  0.69897300  0.69117900  1
  H  H18  1  0.16956400  0.66009400  0.54234300  1
  H  H19  1  0.18963100  0.61195600  0.75427100  1
  H  H20  1  0.27141000  0.57285300  0.60536200  1
  C  C1  1  0.16165000  0.00398800  0.17560100  1
  C  C2  1  0.06292300  0.00830500  0.14795800  1
  C  C3  1  0.04176100  0.00741700  0.02752700  1
  C  C4  1  0.12209300  0.00396900  0.93713700  1
  C  C5  1  0.22016600  0.00417300  0.96731800  1
  C  C6  1  0.23994600  0.00313800  0.08779800  1
  C  C7  1  0.90012300  0.03854400  0.90468900  1
  C  C8  1  0.80487500  0.03657000  0.86932100  1
  C  C9  1  0.74080400  0.00987400  0.92874700  1
  C  C10  1  0.76958000  0.98961600  0.03149200  1
  C  C11  1  0.86881100  0.98635900  0.05966200  1
  C  C12  1  0.93573900  0.01027300  0.99614700  1
  C  C13  1  0.69377500  0.97845700  0.11917100  1
  C  C14  1  0.60482900  0.85752200  0.25620500  1
  C  C15  1  0.33791600  0.00805200  0.13208500  1
  C  C16  1  0.37080100  0.11453100  0.46502900  1
  C  C17  1  0.61861400  0.88382500  0.53292500  1
  C  C18  1  0.64912100  0.99741200  0.87340900  1
  C  C19  1  0.38202800  0.13719700  0.74134200  1
  C  C20  1  0.30010100  0.00487700  0.86964000  1
  C  C21  1  0.81792900  0.56986200  0.39315600  1
  C  C22  1  0.92331200  0.64447400  0.46674100  1
  C  C23  1  0.98652100  0.59257400  0.50753400  1
  C  C24  1  0.96488900  0.52746400  0.48735100  1
  C  C25  1  0.88066600  0.51524600  0.42826900  1
  C  C26  1  0.07081600  0.60458200  0.56764100  1
  C  C27  1  0.13274200  0.55163600  0.60637100  1
  C  C28  1  0.11128500  0.48599400  0.58514000  1
  C  C29  1  0.02725600  0.47466100  0.52586000  1
  C  C30  1  0.00579700  0.40978000  0.50498700  1
  C  C31  1  0.92261300  0.39735000  0.44613700  1
  C  C32  1  0.86020600  0.44914400  0.40707800  1
  C  C33  1  0.17255500  0.43090900  0.62126600  1
  C  C34  1  0.06797600  0.35680800  0.54221300  1
  C  C35  1  0.26643600  0.24300200  0.53825100  1
  C  C36  1  0.32355600  0.18624600  0.57039300  1
  C  C37  1  0.32849900  0.19730900  0.70028100  1
  C  C38  1  0.27871000  0.26691000  0.79471000  1
  C  C39  1  0.22225400  0.32350000  0.76141100  1
  C  C40  1  0.21448300  0.31137800  0.63314200  1
  C  C41  1  0.72452300  0.75657700  0.46515500  1
  C  C42  1  0.66682400  0.81142300  0.42909300  1
  C  C43  1  0.65944100  0.79742800  0.29830900  1
  C  C44  1  0.70799100  0.72579500  0.20715600  1
  C  C45  1  0.76665400  0.67175800  0.24550800  1
  C  C46  1  0.77635500  0.68725700  0.37390900  1
  N  N1  1  0.84088800  0.63233500  0.41204000  1
  N  N2  1  0.14990900  0.36792800  0.59879100  1
  N  N3  1  0.77721000  0.43254900  0.34246400  1
  N  N4  1  0.69794700  0.70675800  0.07358000  1
  N  N5  1  0.09384300  0.67172200  0.59119600  1
  N  N6  1  0.21825600  0.56525800  0.66840300  1
  O  O1  1  0.59261000  0.00469000  0.12215500  1
  O  O2  1  0.61171400  0.84688300  0.13219700  1
  O  O3  1  0.72557400  0.95344800  0.20843400  1
  O  O4  1  0.55509900  0.92394200  0.34238800  1
  O  O5  1  0.38841800  0.96088400  0.18009100  1
  O  O6  1  0.36638800  0.06612500  0.14310200  1
  O  O7  1  0.46613200  0.09625800  0.40015500  1
  O  O8  1  0.31733100  0.06809300  0.43529600  1
  O  O9  1  0.52760600  0.89906700  0.60553800  1
  O  O10  1  0.66768000  0.93300300  0.55559500  1
  O  O11  1  0.59654200  0.04135400  0.82096500  1
  O  O12  1  0.62648800  0.93726200  0.86258900  1
  O  O13  1  0.27230600  0.01904800  0.76826300  1
  O  O14  1  0.42824100  0.06992400  0.65595400  1
  O  O15  1  0.39898900  0.99155600  0.88230900  1
  O  O16  1  0.38041100  0.15030200  0.86568200  1
  O  O17  1  0.73174000  0.56270300  0.34363600  1
  O  O18  1  0.94399700  0.70689700  0.47825900  1
  O  O19  1  0.25666200  0.43826500  0.67571100  1
  O  O20  1  0.04585200  0.29413800  0.52412100  1
