# Generated by REPEAT Assigner based on pymatgen
data_DB0-m3_o7_o23_f0_pcu.sym.117_sqe
_audit_creation_date              2022-05-24
_audit_creation_method            REPEAT_Assigner
_cell_length_a                    17.773133
_cell_length_b                    16.593025
_cell_length_c                    15.935530
_cell_angle_alpha                 90.000000
_cell_angle_beta                  89.999786
_cell_angle_gamma                 90.000000
_cell_volume                      4699.547971
_symmetry_space_group_name_H-M    P1
_symmetry_Int_Tables_number       1
loop_
    _symmetry_equiv_pos_site_id
    _symmetry_equiv_pos_as_xyz
    1  x,y,z
loop_
    _atom_site_type_symbol
    _atom_site_label
    _atom_site_fract_x
    _atom_site_fract_y
    _atom_site_fract_z
    _atom_type_partial_charge
    O   O1   0.394495  0.581194  0.503850  -0.659057
    O   O2   0.394545  0.442158  0.504132  -0.650877
    C   C1   0.359301  0.511665  0.503723  0.680335
    O   O3   0.507497  0.581478  0.379676  -0.690731
    O   O4   0.507518  0.442237  0.379985  -0.684756
    C   C2   0.507734  0.511730  0.340918  0.901419
    Zn  Zn1  0.506558  0.603517  0.504745  1.049000
    Zn  Zn2  0.506654  0.420076  0.504955  1.053411
    O   O5   0.618672  0.581474  0.505527  -0.675590
    O   O6   0.618724  0.442363  0.505809  -0.666023
    O   O7   0.505931  0.581329  0.629835  -0.661826
    O   O8   0.505972  0.442162  0.630009  -0.713870
    C   C3   0.653902  0.511933  0.505807  0.724819
    C   C4   0.505760  0.511754  0.668821  0.913780
    C   C5   0.497937  0.585463  0.054432  -0.286014
    C   C6   0.470053  0.438839  0.052466  -0.392687
    C   C7   0.468053  0.432791  0.957695  0.169965
    C   C8   0.472339  0.579004  0.963684  0.236355
    H   H1   0.412109  0.565371  0.970342  -0.005811
    H   H2   0.409465  0.442573  0.936802  0.012025
    H   H3   0.448292  0.602587  0.092592  0.045386
    H   H4   0.413098  0.454969  0.075422  0.042479
    H   H5   0.482573  0.378647  0.075541  0.108795
    H   H6   0.541296  0.631673  0.065943  0.011884
    C   C9   0.507151  0.511389  0.758678  -0.300603
    C   C10  0.526037  0.502927  0.084492  0.836373
    C   C11  0.512094  0.505487  0.925839  0.257542
    C   C12  0.594261  0.507414  0.954924  -0.196916
    C   C13  0.607897  0.487771  0.049390  0.127521
    C   C14  0.508944  0.509628  0.834191  -0.127356
    C   C15  0.519091  0.507239  0.175923  -0.300441
    C   C16  0.512589  0.510776  0.251170  -0.262960
    H   H7   0.608112  0.569829  0.943136  0.034616
    H   H8   0.629798  0.474387  0.910722  0.079901
    C   C17  0.853228  0.583746  0.502537  -0.248085
    C   C18  0.853220  0.440082  0.506506  -0.229104
    H   H9   0.883691  0.640098  0.500719  0.141234
    H   H10  0.883677  0.383713  0.507844  0.138524
    C   C19  0.775657  0.583933  0.503164  -0.026402
    C   C20  0.775654  0.439937  0.507085  -0.072560
    H   H11  0.746463  0.641031  0.501692  0.089360
    H   H12  0.746465  0.382844  0.508888  0.105433
    C   C21  0.736402  0.511945  0.505479  -0.080051
    C   C22  0.891996  0.511900  0.504239  0.305146
    C   C23  0.972703  0.511856  0.503759  -0.167402
    C   C24  0.040481  0.511797  0.503445  -0.179221
    C   C25  0.159990  0.583578  0.503258  -0.232724
    C   C26  0.159936  0.439864  0.503087  -0.230088
    H   H13  0.129551  0.639973  0.503357  0.136365
    H   H14  0.129451  0.383497  0.503047  0.137535
    C   C27  0.237559  0.583708  0.503309  -0.061901
    C   C28  0.237511  0.439662  0.503140  -0.065930
    H   H15  0.266766  0.640817  0.503441  0.103424
    H   H16  0.266688  0.382536  0.503116  0.101067
    C   C29  0.276794  0.511669  0.503318  -0.055413
    C   C30  0.121189  0.511741  0.503195  0.311110
    C   C31  0.464441  0.847325  0.447197  -0.239460
    C   C32  0.463412  0.176349  0.448354  -0.239344
    H   H17  0.431478  0.879526  0.401098  0.153574
    H   H18  0.429242  0.144210  0.403313  0.150264
    C   C33  0.465197  0.764236  0.447638  0.020745
    C   C34  0.464185  0.259435  0.448888  0.041214
    H   H19  0.432519  0.731349  0.401824  0.136116
    H   H20  0.430383  0.292391  0.404150  0.123849
    N   N1   0.506404  0.723989  0.504864  -0.082053
    N   N2   0.506735  0.299606  0.504938  -0.063991
    C   C35  0.547104  0.763965  0.562767  0.061511
    C   C36  0.549086  0.259569  0.561296  0.008480
    H   H21  0.579742  0.730871  0.608458  0.118310
    H   H22  0.582932  0.292626  0.605917  0.145595
    C   C37  0.547404  0.847041  0.564093  -0.231607
    C   C38  0.549457  0.176485  0.562454  -0.256568
    H   H23  0.580130  0.878989  0.610595  0.148649
    H   H24  0.583423  0.144472  0.607788  0.160195
    C   C39  0.505892  0.889052  0.505785  0.339390
    C   C40  0.506321  0.134548  0.505563  0.366533
    C   C41  0.505981  0.975500  0.505896  -0.152571
    C   C42  0.506122  0.048099  0.505818  -0.171928
    C   C43  0.486451  0.347342  0.927821  -0.305419
    C   C44  0.436922  0.283781  0.946939  0.333962
    C   C45  0.362435  0.296433  0.989330  -0.367118
    C   C46  0.454349  0.205706  0.923280  -0.316203
    C   C47  0.518368  0.189227  0.878437  -0.059206
    C   C48  0.564367  0.251163  0.854224  -0.181465
    C   C49  0.548294  0.329138  0.877490  0.080543
    H   H25  0.327897  0.340387  0.953895  0.100389
    H   H26  0.369546  0.316127  0.055137  0.092801
    H   H27  0.330486  0.239135  0.990929  0.092528
    H   H28  0.417289  0.156334  0.938991  0.138964
    H   H29  0.531130  0.128057  0.859973  0.087447
    H   H30  0.613329  0.238842  0.816093  0.102056
    H   H31  0.585158  0.373924  0.852748  0.057415
    C   C50  0.476998  0.655843  0.911187  -0.248034
    C   C51  0.418821  0.676717  0.855545  0.382737
    C   C52  0.348007  0.628353  0.846922  -0.403921
    C   C53  0.425562  0.744601  0.805608  -0.328153
    C   C54  0.487864  0.793235  0.810760  -0.007733
    C   C55  0.543763  0.775199  0.866953  -0.243538
    C   C56  0.538380  0.707772  0.916879  -0.003033
    H   H32  0.360921  0.564982  0.830561  0.107249
    H   H33  0.312109  0.653432  0.796446  0.112838
    H   H34  0.315449  0.630810  0.906241  0.078046
    H   H35  0.381599  0.760700  0.761869  0.136398
    H   H36  0.492371  0.846083  0.771412  0.083499
    H   H37  0.592360  0.814055  0.872027  0.121799
    H   H38  0.583836  0.697607  0.960031  0.074675
    C   C57  0.667969  0.545655  0.088963  -0.189033
    C   C58  0.713946  0.605282  0.049294  0.342382
    C   C59  0.738827  0.609646  0.959110  -0.436333
    C   C60  0.750023  0.662375  0.098297  -0.277688
    C   C61  0.751731  0.657100  0.183919  -0.074269
    C   C62  0.720537  0.591377  0.221587  -0.188581
    C   C63  0.681107  0.536398  0.174501  -0.080910
    H   H39  0.732211  0.553521  0.923376  0.094257
    H   H40  0.800053  0.622424  0.957962  0.117369
    H   H41  0.710041  0.660113  0.926802  0.106701
    H   H42  0.781470  0.710233  0.068485  0.129933
    H   H43  0.782171  0.701161  0.220569  0.097889
    H   H44  0.726017  0.582983  0.288595  0.135291
    H   H45  0.659253  0.486036  0.207661  0.125795
    C   C64  0.640216  0.400325  0.057021  -0.010960
    C   C65  0.618033  0.333614  0.108387  0.118029
    C   C66  0.581115  0.336302  0.193816  -0.350416
    C   C67  0.642437  0.256818  0.086575  -0.141241
    C   C68  0.695994  0.244706  0.026242  -0.060828
    C   C69  0.729578  0.309873  0.990206  -0.143731
    C   C70  0.703095  0.385892  0.006847  -0.215961
    H   H46  0.520945  0.351407  0.194405  0.098492
    H   H47  0.612849  0.374235  0.237945  0.118416
    H   H48  0.583356  0.275736  0.222752  0.076146
    H   H49  0.622570  0.204277  0.119925  0.092512
    H   H50  0.715483  0.184513  0.012129  0.079138
    H   H51  0.775947  0.301637  0.947176  0.100900
    H   H52  0.732112  0.434345  0.976440  0.149869
