# generated using pymatgen
data_ZnH8C15(NO2)3
_symmetry_space_group_name_H-M   'P 1'
_cell_length_a   14.93773700
_cell_length_b   8.57846600
_cell_length_c   11.17221700
_cell_angle_alpha   90.00000000
_cell_angle_beta   95.05468900
_cell_angle_gamma   90.00000000
_symmetry_Int_Tables_number   1
_chemical_formula_structural   ZnH8C15(NO2)3
_chemical_formula_sum   'Zn2 H16 C30 N6 O12'
_cell_volume   1426.07236855
_cell_formula_units_Z   2
loop_
 _symmetry_equiv_pos_site_id
 _symmetry_equiv_pos_as_xyz
  1  'x, y, z'
loop_
 _atom_site_type_symbol
 _atom_site_label
 _atom_site_symmetry_multiplicity
 _atom_site_fract_x
 _atom_site_fract_y
 _atom_site_fract_z
 _atom_site_occupancy
  Zn  Zn1  1  0.47796300  0.50132700  0.86684700  1
  Zn  Zn2  1  0.52203700  0.50132700  0.13315400  1
  H  H1  1  0.44477200  0.00132700  0.05731400  1
  H  H2  1  0.55522800  0.00132700  0.94268700  1
  H  H3  1  0.19959800  0.25057800  0.00504500  1
  H  H4  1  0.80040400  0.75208200  0.99496100  1
  H  H5  1  0.80040200  0.25057900  0.99495500  1
  H  H6  1  0.19959500  0.75208300  0.00503900  1
  H  H7  1  0.40313900  0.50133400  0.28448700  1
  H  H8  1  0.59686100  0.50133400  0.71551300  1
  H  H9  1  0.31981700  0.50130900  0.45233200  1
  H  H10  1  0.68018300  0.50130900  0.54766900  1
  H  H11  1  0.80951700  0.50132700  0.06879500  1
  H  H12  1  0.84859200  0.39545400  0.20302800  1
  H  H13  1  0.84866800  0.60695100  0.20311500  1
  H  H14  1  0.19048300  0.50132700  0.93120500  1
  H  H15  1  0.15140800  0.39545400  0.79697200  1
  H  H16  1  0.15133200  0.60695100  0.79688500  1
  C  C1  1  0.32745800  0.14054000  0.02868100  1
  C  C2  1  0.67254300  0.86211500  0.97132000  1
  C  C3  1  0.67254200  0.14054100  0.97132000  1
  C  C4  1  0.32745700  0.86211500  0.02868000  1
  C  C5  1  0.23487200  0.14099600  0.01318800  1
  C  C6  1  0.76512900  0.86166400  0.98681400  1
  C  C7  1  0.76512800  0.14099600  0.98681200  1
  C  C8  1  0.23487100  0.86166400  0.01318600  1
  C  C9  1  0.18813400  0.00133100  0.01036000  1
  C  C10  1  0.81186700  0.00133100  0.98964000  1
  C  C11  1  0.37263500  0.00132700  0.04304000  1
  C  C12  1  0.62736500  0.00132700  0.95696000  1
  C  C13  1  0.53431900  0.50133200  0.65950800  1
  C  C14  1  0.46568100  0.50133200  0.34049300  1
  C  C15  1  0.91030000  0.00133300  0.99672800  1
  C  C16  1  0.08970100  0.00133300  0.00327300  1
  C  C17  1  0.38059900  0.50131600  0.51233800  1
  C  C18  1  0.61940100  0.50131600  0.48766300  1
  C  C19  1  0.53837400  0.50132900  0.53691400  1
  C  C20  1  0.46162600  0.50132900  0.46308600  1
  C  C21  1  0.37696300  0.50130600  0.63618900  1
  C  C22  1  0.62303700  0.50130600  0.36381100  1
  C  C23  1  0.38032300  0.71987300  0.01931600  1
  C  C24  1  0.61967600  0.28278100  0.98068400  1
  C  C25  1  0.61967700  0.71987300  0.98068400  1
  C  C26  1  0.38032400  0.28278100  0.01931700  1
  C  C27  1  0.71377500  0.50125300  0.32050200  1
  C  C28  1  0.81244300  0.50126100  0.16810000  1
  C  C29  1  0.28622500  0.50125300  0.67949800  1
  C  C30  1  0.18755700  0.50126100  0.83190000  1
  N  N1  1  0.54497700  0.50132600  0.29019100  1
  N  N2  1  0.45502300  0.50132600  0.70980900  1
  N  N3  1  0.04434600  0.86576400  0.00177800  1
  N  N4  1  0.95565400  0.13690300  0.99822200  1
  N  N5  1  0.95565400  0.86576400  0.99822300  1
  N  N6  1  0.04434600  0.13690300  0.00177800  1
  O  O1  1  0.42772100  0.66984900  0.11615200  1
  O  O2  1  0.57228000  0.33280600  0.88384900  1
  O  O3  1  0.57227900  0.66984900  0.88384900  1
  O  O4  1  0.42772000  0.33280600  0.11615200  1
  O  O5  1  0.38974400  0.66486800  0.91138100  1
  O  O6  1  0.61025600  0.33778500  0.08861900  1
  O  O7  1  0.61025600  0.66486800  0.08861900  1
  O  O8  1  0.38974400  0.33778500  0.91138100  1
  O  O9  1  0.77937500  0.50113700  0.39364100  1
  O  O10  1  0.72682600  0.50132600  0.20331600  1
  O  O11  1  0.22062500  0.50113700  0.60636000  1
  O  O12  1  0.27317400  0.50132600  0.79668400  1
