# generated using pymatgen
data_Zn3H12C36(NO10)2
_symmetry_space_group_name_H-M   'P 1'
_cell_length_a   18.60101800
_cell_length_b   18.60101800
_cell_length_c   46.91221400
_cell_angle_alpha   90.00000000
_cell_angle_beta   90.00000000
_cell_angle_gamma   90.00000000
_symmetry_Int_Tables_number   1
_chemical_formula_structural   Zn3H12C36(NO10)2
_chemical_formula_sum   'Zn12 H48 C144 N8 O80'
_cell_volume   16231.52615084
_cell_formula_units_Z   4
loop_
 _symmetry_equiv_pos_site_id
 _symmetry_equiv_pos_as_xyz
  1  'x, y, z'
loop_
 _atom_site_type_symbol
 _atom_site_label
 _atom_site_symmetry_multiplicity
 _atom_site_fract_x
 _atom_site_fract_y
 _atom_site_fract_z
 _atom_site_occupancy
  Zn  Zn1  1  0.99985600  0.99987000  0.03233100  1
  Zn  Zn2  1  0.99993000  0.99995100  0.96768800  1
  Zn  Zn3  1  0.50005200  0.50006800  0.53231200  1
  Zn  Zn4  1  0.50013100  0.50014200  0.46766900  1
  Zn  Zn5  1  0.49976100  0.08134000  0.00004000  1
  Zn  Zn6  1  0.91845100  0.49983500  0.00006900  1
  Zn  Zn7  1  0.50003800  0.91847000  0.99997400  1
  Zn  Zn8  1  0.08132200  0.49999800  0.99994500  1
  Zn  Zn9  1  0.00016700  0.58154600  0.49993200  1
  Zn  Zn10  1  0.41866200  0.00023600  0.49996000  1
  Zn  Zn11  1  0.00000400  0.41867500  0.50005400  1
  Zn  Zn12  1  0.58153200  0.99996000  0.50002600  1
  H  H1  1  0.52471600  0.88873300  0.85751600  1
  H  H2  1  0.11070000  0.52489300  0.85747600  1
  H  H3  1  0.47581900  0.11284400  0.85722900  1
  H  H4  1  0.88657900  0.47603800  0.85727000  1
  H  H5  1  0.52591600  0.11059800  0.14253200  1
  H  H6  1  0.11275300  0.47335900  0.14275600  1
  H  H7  1  0.47357600  0.88730400  0.14279600  1
  H  H8  1  0.88946900  0.52574000  0.14257200  1
  H  H9  1  0.02664500  0.38725000  0.35724300  1
  H  H10  1  0.61270100  0.02642200  0.35720400  1
  H  H11  1  0.97426600  0.61053500  0.35742800  1
  H  H12  1  0.38940600  0.97408700  0.35746700  1
  H  H13  1  0.02395800  0.61341200  0.64273100  1
  H  H14  1  0.61126600  0.97527900  0.64248400  1
  H  H15  1  0.97510000  0.38929100  0.64252200  1
  H  H16  1  0.38715600  0.02418000  0.64277000  1
  H  H17  1  0.52346700  0.88852600  0.90935900  1
  H  H18  1  0.11106000  0.52348400  0.90931800  1
  H  H19  1  0.47703900  0.11389400  0.90906800  1
  H  H20  1  0.88568300  0.47710200  0.90911000  1
  H  H21  1  0.52473500  0.11088900  0.09069300  1
  H  H22  1  0.11369000  0.47445800  0.09091800  1
  H  H23  1  0.47449800  0.88629200  0.09095800  1
  H  H24  1  0.88910200  0.52474200  0.09073200  1
  H  H25  1  0.02554600  0.38631200  0.40908100  1
  H  H26  1  0.61371200  0.02549900  0.40904200  1
  H  H27  1  0.97526500  0.61090000  0.40926800  1
  H  H28  1  0.38911400  0.97526600  0.40930700  1
  H  H29  1  0.02289700  0.61431000  0.59089100  1
  H  H30  1  0.61147300  0.97652800  0.59064200  1
  H  H31  1  0.97651300  0.38893300  0.59068100  1
  H  H32  1  0.38610600  0.02296000  0.59093200  1
  H  H33  1  0.18373900  0.60928400  0.22109800  1
  H  H34  1  0.39040200  0.18245000  0.22088100  1
  H  H35  1  0.81771800  0.38968300  0.22080800  1
  H  H36  1  0.61000200  0.81643100  0.22102400  1
  H  H37  1  0.18187300  0.39091600  0.77914300  1
  H  H38  1  0.39024200  0.81731700  0.77933100  1
  H  H39  1  0.81608700  0.61065000  0.77905100  1
  H  H40  1  0.60997600  0.18310300  0.77886200  1
  H  H41  1  0.68268400  0.10975100  0.72066900  1
  H  H42  1  0.88934100  0.68390300  0.72094800  1
  H  H43  1  0.31689200  0.89002700  0.72113800  1
  H  H44  1  0.10907100  0.31811400  0.72085800  1
  H  H45  1  0.68357100  0.88999700  0.27897500  1
  H  H46  1  0.89071800  0.31626800  0.27890200  1
  H  H47  1  0.31755800  0.10960800  0.27912000  1
  H  H48  1  0.11032400  0.68228500  0.27919200  1
  C  C1  1  0.99921700  0.85944800  0.00053400  1
  C  C2  1  0.14035500  0.99911500  0.99948200  1
  C  C3  1  0.00056800  0.14037200  0.99948500  1
  C  C4  1  0.85943100  0.00070500  0.00053700  1
  C  C5  1  0.50088700  0.35964300  0.50051800  1
  C  C6  1  0.64055400  0.50078100  0.49946500  1
  C  C7  1  0.49929700  0.64056600  0.49946300  1
  C  C8  1  0.35963000  0.49943000  0.50051600  1
  C  C9  1  0.78231400  0.00106900  0.00040100  1
  C  C10  1  0.99888900  0.78233100  0.00039800  1
  C  C11  1  0.21747200  0.99874700  0.99961800  1
  C  C12  1  0.00088900  0.21748900  0.99962100  1
  C  C13  1  0.28251300  0.49910800  0.50038000  1
  C  C14  1  0.50125500  0.28252500  0.50038200  1
  C  C15  1  0.71767100  0.50110900  0.49960100  1
  C  C16  1  0.49893200  0.71768300  0.49959900  1
  C  C17  1  0.71754400  0.00130800  0.00029100  1
  C  C18  1  0.99864000  0.71756100  0.00028900  1
  C  C19  1  0.28224300  0.99850500  0.99972600  1
  C  C20  1  0.00113400  0.28225900  0.99972900  1
  C  C21  1  0.21774300  0.49886300  0.50027200  1
  C  C22  1  0.50149600  0.21775500  0.50027400  1
  C  C23  1  0.78244100  0.50135800  0.49971000  1
  C  C24  1  0.49869400  0.78245400  0.49970800  1
  C  C25  1  0.50017900  0.00148600  0.94418800  1
  C  C26  1  0.99818200  0.50019000  0.94418900  1
  C  C27  1  0.49963400  0.99832400  0.05582500  1
  C  C28  1  0.00159200  0.49965600  0.05582500  1
  C  C29  1  0.00034700  0.49840800  0.44417500  1
  C  C30  1  0.50167900  0.00036400  0.44417500  1
  C  C31  1  0.99981100  0.50181300  0.55581100  1
  C  C32  1  0.49851500  0.99981800  0.55581200  1
  C  C33  1  0.64042600  0.00150300  0.00017000  1
  C  C34  1  0.99839800  0.64044400  0.00016800  1
  C  C35  1  0.35936000  0.99830900  0.99984500  1
  C  C36  1  0.00137500  0.35937600  0.99984700  1
  C  C37  1  0.14062600  0.49862300  0.50015400  1
  C  C38  1  0.50169300  0.14063700  0.50015500  1
  C  C39  1  0.85955800  0.50160000  0.49983100  1
  C  C40  1  0.49849900  0.85957100  0.49983000  1
  C  C41  1  0.95755800  0.45374200  0.19066400  1
  C  C42  1  0.54577700  0.95594800  0.19070500  1
  C  C43  1  0.04417200  0.54525700  0.19074900  1
  C  C44  1  0.45425800  0.04255900  0.19070900  1
  C  C45  1  0.95573700  0.54659700  0.80929300  1
  C  C46  1  0.54610000  0.04353800  0.80922400  1
  C  C47  1  0.04198500  0.45473600  0.80929200  1
  C  C48  1  0.45424300  0.95728800  0.80936100  1
  C  C49  1  0.45645900  0.95389800  0.69077600  1
  C  C50  1  0.04525500  0.45800400  0.69070900  1
  C  C51  1  0.54271200  0.04575300  0.69063900  1
  C  C52  1  0.95339500  0.54425200  0.69070600  1
  C  C53  1  0.45744700  0.04574600  0.30929200  1
  C  C54  1  0.04626400  0.54244600  0.30933600  1
  C  C55  1  0.54405500  0.95422400  0.30929400  1
  C  C56  1  0.95474800  0.45583300  0.30925100  1
  C  C57  1  0.04580300  0.54516500  0.22038000  1
  C  C58  1  0.45447100  0.04449100  0.22033700  1
  C  C59  1  0.95569300  0.45371000  0.22029300  1
  C  C60  1  0.54592700  0.95438200  0.22033600  1
  C  C61  1  0.04395400  0.45498400  0.77966400  1
  C  C62  1  0.45426500  0.95525500  0.77973400  1
  C  C63  1  0.95400400  0.54657900  0.77966400  1
  C  C64  1  0.54585800  0.04520600  0.77959300  1
  C  C65  1  0.54474400  0.04573200  0.72026600  1
  C  C66  1  0.95341200  0.54598600  0.72033600  1
  C  C67  1  0.45479100  0.95414100  0.72040700  1
  C  C68  1  0.04500500  0.45603500  0.72033600  1
  C  C69  1  0.54562100  0.95407500  0.27966400  1
  C  C70  1  0.95484000  0.45420200  0.27962000  1
  C  C71  1  0.45551400  0.04553300  0.27966400  1
  C  C72  1  0.04629600  0.54431100  0.27970700  1
  C  C73  1  0.00069900  0.49939600  0.23520400  1
  C  C74  1  0.50029100  0.99952900  0.23520400  1
  C  C75  1  0.99903700  0.50083800  0.76479600  1
  C  C76  1  0.49999400  0.00015100  0.76479500  1
  C  C77  1  0.49984700  0.00000400  0.73520400  1
  C  C78  1  0.99915100  0.50095200  0.73520400  1
  C  C79  1  0.50047500  0.99971300  0.26479600  1
  C  C80  1  0.00060900  0.49930600  0.26479600  1
  C  C81  1  0.09137300  0.59043900  0.23544300  1
  C  C82  1  0.40926200  0.09021600  0.23535700  1
  C  C83  1  0.90999900  0.40837800  0.23527000  1
  C  C84  1  0.59132300  0.90884300  0.23535600  1
  C  C85  1  0.08965900  0.40975400  0.76464300  1
  C  C86  1  0.40892000  0.90951700  0.76478500  1
  C  C87  1  0.90841500  0.59192500  0.76464300  1
  C  C88  1  0.59109000  0.09076000  0.76450200  1
  C  C89  1  0.59048400  0.09107600  0.73521500  1
  C  C90  1  0.90806600  0.59157500  0.73535600  1
  C  C91  1  0.40923600  0.90891000  0.73549800  1
  C  C92  1  0.09023400  0.41032900  0.73535700  1
  C  C93  1  0.59115900  0.90867800  0.26464300  1
  C  C94  1  0.90956500  0.40863400  0.26455700  1
  C  C95  1  0.40979000  0.09074400  0.26464400  1
  C  C96  1  0.09162900  0.59000400  0.26473000  1
  C  C97  1  0.51345200  0.93813600  0.86880000  1
  C  C98  1  0.06133100  0.51359000  0.86877800  1
  C  C99  1  0.48709900  0.06362900  0.86864000  1
  C  C100  1  0.93583300  0.48726100  0.86866300  1
  C  C101  1  0.51387500  0.06140300  0.13123100  1
  C  C102  1  0.06369700  0.48537500  0.13135600  1
  C  C103  1  0.48552900  0.93634900  0.13137800  1
  C  C104  1  0.93864800  0.51374500  0.13125300  1
  C  C105  1  0.01463100  0.43630600  0.36864300  1
  C  C106  1  0.56365600  0.01447000  0.36862200  1
  C  C107  1  0.98626200  0.56135500  0.36874700  1
  C  C108  1  0.43860100  0.98612700  0.36876900  1
  C  C109  1  0.01273400  0.56415800  0.63133700  1
  C  C110  1  0.56186300  0.98654400  0.63120000  1
  C  C111  1  0.98640500  0.43866000  0.63122100  1
  C  C112  1  0.43637100  0.01289900  0.63136000  1
  C  C113  1  0.51287500  0.93819600  0.89818200  1
  C  C114  1  0.06135800  0.51292500  0.89815900  1
  C  C115  1  0.48765800  0.06404700  0.89802000  1
  C  C116  1  0.93550100  0.48773500  0.89804400  1
  C  C117  1  0.51333500  0.06137200  0.10185000  1
  C  C118  1  0.06403300  0.48586700  0.10197600  1
  C  C119  1  0.48592300  0.93597000  0.10199800  1
  C  C120  1  0.93863600  0.51330500  0.10187200  1
  C  C121  1  0.01413800  0.43597000  0.39802400  1
  C  C122  1  0.56403400  0.01407500  0.39800200  1
  C  C123  1  0.98670100  0.56136600  0.39812900  1
  C  C124  1  0.43863100  0.98666600  0.39815000  1
  C  C125  1  0.01226300  0.56449100  0.60195700  1
  C  C126  1  0.56180400  0.98712100  0.60181800  1
  C  C127  1  0.98707200  0.43863400  0.60184000  1
  C  C128  1  0.43595300  0.01234000  0.60198000  1
  C  C129  1  0.50025200  0.00124100  0.91295400  1
  C  C130  1  0.99835100  0.50028700  0.91295400  1
  C  C131  1  0.49960900  0.99856400  0.08706500  1
  C  C132  1  0.00141600  0.49960000  0.08706500  1
  C  C133  1  0.00040400  0.49858600  0.41293500  1
  C  C134  1  0.50144000  0.00039000  0.41293500  1
  C  C135  1  0.99971200  0.50164200  0.58704600  1
  C  C136  1  0.49875900  0.99974500  0.58704600  1
  C  C137  1  0.50027000  0.00076100  0.85387400  1
  C  C138  1  0.99865700  0.50048000  0.85387500  1
  C  C139  1  0.49975700  0.99897400  0.14614200  1
  C  C140  1  0.00109300  0.49954900  0.14614200  1
  C  C141  1  0.00045700  0.49891100  0.35385800  1
  C  C142  1  0.50103000  0.00024400  0.35385800  1
  C  C143  1  0.99951500  0.50133400  0.64612500  1
  C  C144  1  0.49923900  0.99972700  0.64612500  1
  N  N1  1  0.00093000  0.49952100  0.17658300  1
  N  N2  1  0.49992800  0.99916200  0.17658300  1
  N  N3  1  0.99880100  0.50060900  0.82342600  1
  N  N4  1  0.50021600  0.00050900  0.82342500  1
  N  N5  1  0.49949000  0.99978100  0.67657500  1
  N  N6  1  0.99938300  0.50118800  0.67657400  1
  N  N7  1  0.50084200  0.00007400  0.32341700  1
  N  N8  1  0.00048500  0.49907400  0.32341700  1
  O  O1  1  0.99763000  0.89253600  0.02521400  1
  O  O2  1  0.10669100  0.99762700  0.02405600  1
  O  O3  1  0.99871300  0.10672300  0.02405800  1
  O  O4  1  0.89250400  0.99875100  0.02521500  1
  O  O5  1  0.00216800  0.10728400  0.97480500  1
  O  O6  1  0.10728200  0.00105600  0.97480400  1
  O  O7  1  0.00106000  0.89309700  0.97596100  1
  O  O8  1  0.89309500  0.00220600  0.97596300  1
  O  O9  1  0.49894600  0.39271600  0.52519600  1
  O  O10  1  0.60690500  0.49893800  0.52403800  1
  O  O11  1  0.49779600  0.60690300  0.52403700  1
  O  O12  1  0.39271900  0.49782900  0.52519500  1
  O  O13  1  0.50125100  0.60749300  0.47478500  1
  O  O14  1  0.60746500  0.50236700  0.47478600  1
  O  O15  1  0.50237400  0.39330700  0.47594400  1
  O  O16  1  0.39327800  0.50128500  0.47594300  1
  O  O17  1  0.50139200  0.06359000  0.95744300  1
  O  O18  1  0.93610800  0.50144500  0.95746600  1
  O  O19  1  0.49889200  0.93955800  0.95760200  1
  O  O20  1  0.06013900  0.49886700  0.95758000  1
  O  O21  1  0.49782300  0.93624100  0.04256600  1
  O  O22  1  0.93965600  0.50154000  0.04242900  1
  O  O23  1  0.50148100  0.06023100  0.04240800  1
  O  O24  1  0.06364400  0.49780400  0.04254300  1
  O  O25  1  0.99846300  0.56034400  0.45757100  1
  O  O26  1  0.43977100  0.99851700  0.45759200  1
  O  O27  1  0.00219900  0.43635500  0.45745600  1
  O  O28  1  0.56376200  0.00217500  0.45743400  1
  O  O29  1  0.00113400  0.43985600  0.54241900  1
  O  O30  1  0.43641100  0.99860500  0.54255700  1
  O  O31  1  0.99855600  0.56388700  0.54253500  1
  O  O32  1  0.56044300  0.00110500  0.54239800  1
  O  O33  1  0.60719800  0.06363300  0.99935000  1
  O  O34  1  0.93624300  0.60725700  0.99937100  1
  O  O35  1  0.39259300  0.93616700  0.00046100  1
  O  O36  1  0.06354000  0.39256700  0.00044000  1
  O  O37  1  0.60689300  0.93949100  0.00087800  1
  O  O38  1  0.93937500  0.39295200  0.99935600  1
  O  O39  1  0.39289500  0.06033000  0.99933300  1
  O  O40  1  0.06038800  0.60686900  0.00085500  1
  O  O41  1  0.10705000  0.56062300  0.50064500  1
  O  O42  1  0.43967200  0.10710300  0.50066700  1
  O  O43  1  0.89313200  0.43960900  0.49914400  1
  O  O44  1  0.56051000  0.89310500  0.49912200  1
  O  O45  1  0.10743500  0.43645800  0.49956000  1
  O  O46  1  0.43636900  0.89280000  0.50064900  1
  O  O47  1  0.89274500  0.56375400  0.50062900  1
  O  O48  1  0.56383400  0.10740500  0.49954000  1
  O  O49  1  0.91763000  0.40707800  0.17558700  1
  O  O50  1  0.59238800  0.91587400  0.17566300  1
  O  O51  1  0.08422500  0.59197900  0.17575200  1
  O  O52  1  0.40747700  0.08245900  0.17567700  1
  O  O53  1  0.91598600  0.59352500  0.82431600  1
  O  O54  1  0.59313000  0.08333300  0.82417700  1
  O  O55  1  0.08161900  0.40769400  0.82430700  1
  O  O56  1  0.40731100  0.91769100  0.82444500  1
  O  O57  1  0.41666300  0.90686900  0.67582200  1
  O  O58  1  0.09229700  0.41836900  0.67569400  1
  O  O59  1  0.58231000  0.09268500  0.67555500  1
  O  O60  1  0.90646800  0.58400400  0.67568400  1
  O  O61  1  0.41754800  0.09252800  0.32432300  1
  O  O62  1  0.09292800  0.58237400  0.32441300  1
  O  O63  1  0.58412900  0.90761300  0.32433700  1
  O  O64  1  0.90802500  0.41578100  0.32424800  1
  O  O65  1  0.13773000  0.63600100  0.22186200  1
  O  O66  1  0.36366900  0.13645900  0.22173100  1
  O  O67  1  0.86370000  0.36292400  0.22160000  1
  O  O68  1  0.63674600  0.86242900  0.22173200  1
  O  O69  1  0.13590000  0.36415800  0.77826900  1
  O  O70  1  0.36345700  0.86327700  0.77848100  1
  O  O71  1  0.86206600  0.63741400  0.77826700  1
  O  O72  1  0.63671200  0.13711000  0.77805500  1
  O  O73  1  0.63672500  0.13653700  0.72151900  1
  O  O74  1  0.86257700  0.63792300  0.72173200  1
  O  O75  1  0.36288400  0.86328900  0.72194500  1
  O  O76  1  0.13583000  0.36408600  0.72173200  1
  O  O77  1  0.63757200  0.86325400  0.27826700  1
  O  O78  1  0.86400200  0.36227700  0.27813800  1
  O  O79  1  0.36354900  0.13633900  0.27827000  1
  O  O80  1  0.13708300  0.63630300  0.27840000  1
