# generated using pymatgen
data_Zn6H43C60N11O24
_symmetry_space_group_name_H-M   'P 1'
_cell_length_a   18.83777700
_cell_length_b   18.95445600
_cell_length_c   18.95085000
_cell_angle_alpha   109.59392500
_cell_angle_beta   109.35491000
_cell_angle_gamma   109.34723300
_symmetry_Int_Tables_number   1
_chemical_formula_structural   Zn6H43C60N11O24
_chemical_formula_sum   'Zn6 H43 C60 N11 O24'
_cell_volume   5216.44346639
_cell_formula_units_Z   1
loop_
 _symmetry_equiv_pos_site_id
 _symmetry_equiv_pos_as_xyz
  1  'x, y, z'
loop_
 _atom_site_type_symbol
 _atom_site_label
 _atom_site_symmetry_multiplicity
 _atom_site_fract_x
 _atom_site_fract_y
 _atom_site_fract_z
 _atom_site_occupancy
  Zn  Zn1  1  0.50203300  0.43238100  0.43256700  1
  Zn  Zn2  1  0.49817000  0.57040900  0.56785900  1
  Zn  Zn3  1  0.93139800  0.43467200  0.00204500  1
  Zn  Zn4  1  0.06880800  0.57195300  0.99963700  1
  Zn  Zn5  1  0.07198000  0.00357100  0.56914700  1
  Zn  Zn6  1  0.92885500  0.00158300  0.43319600  1
  H  H1  1  0.29311500  0.32381200  0.15473600  1
  H  H2  1  0.16946000  0.34191800  0.30579800  1
  H  H3  1  0.15241000  0.20529900  0.29719200  1
  H  H4  1  0.37738400  0.63812000  0.37600500  1
  H  H5  1  0.39044000  0.70769900  0.27267700  1
  H  H6  1  0.30716300  0.89348800  0.32674600  1
  H  H7  1  0.18059900  0.78964700  0.31710600  1
  H  H8  1  0.15622500  0.64389900  0.28323000  1
  H  H9  1  0.72900500  0.75430300  0.37183500  1
  H  H10  1  0.61948900  0.64118500  0.37207400  1
  H  H11  1  0.72526700  0.47567500  0.86308000  1
  H  H12  1  0.88467400  0.52722200  0.75088400  1
  H  H13  1  0.77049000  0.52436800  0.63863500  1
  H  H14  1  0.12360900  0.26575900  0.50687800  1
  H  H15  1  0.25531500  0.12263300  0.48539200  1
  H  H16  1  0.36470300  0.23416400  0.48286100  1
  H  H17  1  0.02434200  0.77633300  0.13795100  1
  H  H18  1  0.97604400  0.73023800  0.36231200  1
  H  H19  1  0.97205500  0.61653700  0.24845000  1
  H  H20  1  0.13497200  0.24458600  0.77916600  1
  H  H21  1  0.86792000  0.14802400  0.61277300  1
  H  H22  1  0.16170400  0.05791200  0.14995300  1
  H  H23  1  0.17466100  0.09257300  0.25010800  1
  H  H24  1  0.84610600  0.73615600  0.67632100  1
  H  H25  1  0.74289000  0.69057200  0.65206600  1
  H  H26  1  0.90742100  0.94274700  0.67156700  1
  H  H27  1  0.91319000  0.88042400  0.71562600  1
  H  H28  1  0.59474500  0.46568200  0.80447200  1
  H  H29  1  0.54233400  0.41380800  0.69569400  1
  H  H30  1  0.33384700  0.17260600  0.17797900  1
  H  H31  1  0.31016900  0.20753900  0.10700500  1
  H  H32  1  0.22589300  0.40247700  0.45650800  1
  H  H33  1  0.18169100  0.39629100  0.51975700  1
  H  H34  1  0.03536800  0.90668300  0.19845800  1
  H  H35  1  0.08781800  0.95812200  0.30720500  1
  H  H36  1  0.20493400  0.36217200  0.91028200  1
  H  H37  1  0.14493000  0.36394900  0.95921500  1
  H  H38  1  0.86009800  0.31948000  0.72091100  1
  H  H39  1  0.79910200  0.21104300  0.66128200  1
  H  H40  1  0.13091900  0.31389000  0.07044300  1
  H  H41  1  0.07446500  0.31103400  0.12457600  1
  H  H42  1  0.43199200  0.92519400  0.32208700  1
  H  H43  1  0.48620800  0.87802500  0.35760300  1
  C  C1  1  0.62327700  0.61964600  0.50229700  1
  C  C2  1  0.38196300  0.50168900  0.37908000  1
  C  C3  1  0.37705300  0.38316600  0.49851200  1
  C  C4  1  0.61737100  0.50019400  0.62094500  1
  C  C5  1  0.25277600  0.21921900  0.18004400  1
  C  C6  1  0.26221400  0.29668700  0.18544000  1
  C  C7  1  0.23331500  0.34124700  0.23170900  1
  C  C8  1  0.19346200  0.30764700  0.27103300  1
  C  C9  1  0.18369000  0.23040400  0.26566500  1
  C  C10  1  0.21358000  0.18610000  0.22035300  1
  C  C11  1  0.18102500  0.42632600  0.17841100  1
  C  C12  1  0.18838300  0.50457100  0.18787600  1
  C  C13  1  0.26019500  0.58109600  0.25881500  1
  C  C14  1  0.32249600  0.57844900  0.31992500  1
  C  C15  1  0.31535600  0.50086000  0.31087400  1
  C  C16  1  0.24472300  0.42421700  0.23937200  1
  C  C17  1  0.34369300  0.72525000  0.28151400  1
  C  C18  1  0.35689600  0.80680100  0.29967400  1
  C  C19  1  0.29768300  0.82967300  0.31179000  1
  C  C20  1  0.22583900  0.77099900  0.30584900  1
  C  C21  1  0.21213000  0.68911400  0.28658800  1
  C  C22  1  0.27083300  0.66582300  0.27376600  1
  C  C23  1  0.77169800  0.74959100  0.58325700  1
  C  C24  1  0.83299700  0.81610600  0.58349500  1
  C  C25  1  0.81785900  0.81697700  0.50696900  1
  C  C26  1  0.74116100  0.75405300  0.43161000  1
  C  C27  1  0.67981900  0.68958600  0.43144400  1
  C  C28  1  0.69370300  0.68720000  0.50647600  1
  C  C29  1  0.67136600  0.48793400  0.75190000  1
  C  C30  1  0.73487600  0.48668500  0.81375200  1
  C  C31  1  0.81196500  0.50160600  0.81412000  1
  C  C32  1  0.82493400  0.51620300  0.75169300  1
  C  C33  1  0.76039000  0.51399000  0.68804700  1
  C  C34  1  0.68420500  0.50116700  0.68865100  1
  C  C35  1  0.24080400  0.32511800  0.50426100  1
  C  C36  1  0.17699400  0.25978700  0.50160500  1
  C  C37  1  0.18276200  0.18772800  0.49601500  1
  C  C38  1  0.25078000  0.17926700  0.49018200  1
  C  C39  1  0.31204300  0.24193700  0.48811100  1
  C  C40  1  0.30845400  0.31576800  0.49666800  1
  C  C41  1  0.99754900  0.62200900  0.11907800  1
  C  C42  1  0.12056100  0.50460800  0.12144800  1
  C  C43  1  0.00249300  0.38450800  0.88247400  1
  C  C44  1  0.87982800  0.50217700  0.88057100  1
  C  C45  1  0.00026900  0.88308600  0.38109300  1
  C  C46  1  0.88283800  0.88373300  0.50446800  1
  C  C47  1  0.00077600  0.12249100  0.62130600  1
  C  C48  1  0.11789500  0.12135200  0.49820900  1
  C  C49  1  0.01311400  0.76639100  0.18706200  1
  C  C50  1  0.01266400  0.82967900  0.24998800  1
  C  C51  1  0.99954800  0.81660800  0.31321100  1
  C  C52  1  0.98616700  0.74043300  0.31283700  1
  C  C53  1  0.98316100  0.67613300  0.24817200  1
  C  C54  1  0.99751000  0.68925400  0.18563200  1
  C  C55  1  0.07736800  0.31282800  0.83072100  1
  C  C56  1  0.07649700  0.24825000  0.76779600  1
  C  C57  1  0.00140700  0.18941600  0.68917600  1
  C  C58  1  0.92672200  0.19434400  0.67417100  1
  C  C59  1  0.92665300  0.25719000  0.73778200  1
  C  C60  1  0.00220100  0.31689400  0.81586400  1
  N  N1  1  0.20384800  0.10614500  0.21460100  1
  N  N2  1  0.79182600  0.74426200  0.66062400  1
  N  N3  1  0.91001600  0.88631300  0.66217000  1
  N  N4  1  0.59165400  0.47247400  0.75130300  1
  N  N5  1  0.28382400  0.17348800  0.13359600  1
  N  N6  1  0.23567000  0.40084300  0.51328500  1
  N  N7  1  0.02868000  0.90942300  0.25165800  1
  N  N8  1  0.15506100  0.37411500  0.91170300  1
  N  N9  1  0.84953000  0.26234100  0.72217300  1
  N  N10  1  0.10836500  0.34780500  0.10425800  1
  N  N11  1  0.43205000  0.86694100  0.30647500  1
  O  O1  1  0.59579000  0.53868400  0.44977400  1
  O  O2  1  0.59119700  0.64334000  0.55183900  1
  O  O3  1  0.41314600  0.45073000  0.35709600  1
  O  O4  1  0.40828500  0.55440600  0.45965900  1
  O  O5  1  0.41059500  0.35956400  0.45038600  1
  O  O6  1  0.40283400  0.46412800  0.54882300  1
  O  O7  1  0.59382600  0.45019400  0.54063700  1
  O  O8  1  0.58553200  0.55051600  0.64328800  1
  O  O9  1  0.94793300  0.54130600  0.09459400  1
  O  O10  1  0.04782200  0.64523600  0.08751400  1
  O  O11  1  0.03928100  0.45248500  0.09447300  1
  O  O12  1  0.14368800  0.55558000  0.09083200  1
  O  O13  1  0.95039900  0.36123700  0.91224900  1
  O  O14  1  0.05427500  0.46534500  0.90895900  1
  O  O15  1  0.85659100  0.45292600  0.91273500  1
  O  O16  1  0.96096200  0.55230200  0.90539300  1
  O  O17  1  0.05523000  0.91193700  0.46166600  1
  O  O18  1  0.94579900  0.91062400  0.35848800  1
  O  O19  1  0.96525200  0.91228300  0.55413800  1
  O  O20  1  0.85577100  0.91120400  0.45156300  1
  O  O21  1  0.05710800  0.09677900  0.64362200  1
  O  O22  1  0.94343300  0.09082400  0.54079000  1
  O  O23  1  0.14503700  0.09135100  0.54831100  1
  O  O24  1  0.03566400  0.09499700  0.45029600  1
