# Generated by REPEAT Assigner based on pymatgen
data_DB0-m3_o2_o11_f0_pcu.sym.16
_audit_creation_date              2022-05-24
_audit_creation_method            REPEAT_Assigner
_cell_length_a                    15.223163
_cell_length_b                    14.008029
_cell_length_c                    11.173386
_cell_angle_alpha                 90.000000
_cell_angle_beta                  89.996868
_cell_angle_gamma                 90.000000
_cell_volume                      2382.685565
_symmetry_space_group_name_H-M    P1
_symmetry_Int_Tables_number       1
loop_
    _symmetry_equiv_pos_site_id
    _symmetry_equiv_pos_as_xyz
    1  x,y,z
loop_
    _atom_site_type_symbol
    _atom_site_label
    _atom_site_fract_x
    _atom_site_fract_y
    _atom_site_fract_z
    _atom_type_partial_charge
    O   O1   0.369153  0.581246  0.500219  -0.579962
    O   O2   0.630847  0.581246  0.499781  -0.579893
    O   O3   0.369026  0.416685  0.500039  -0.688259
    O   O4   0.630975  0.416685  0.499961  -0.688146
    C   C1   0.327832  0.499053  0.500565  0.692178
    C   C2   0.672168  0.499053  0.499436  0.692118
    O   O5   0.499979  0.581206  0.321703  -0.685048
    O   O6   0.500021  0.581206  0.678297  -0.685171
    O   O7   0.499943  0.416716  0.321665  -0.598621
    O   O8   0.500058  0.416716  0.678335  -0.598702
    C   C3   0.499973  0.499001  0.265514  0.860685
    C   C4   0.500028  0.499001  0.734486  0.860897
    Zn  Zn1  0.500000  0.607530  0.500000  1.066219
    Zn  Zn2  0.500000  0.390424  0.500000  0.949779
    C   C5   0.500912  0.422170  0.933697  0.308535
    C   C6   0.499089  0.422170  0.066303  0.308692
    C   C7   0.499084  0.501495  0.866113  -0.522354
    C   C8   0.500917  0.501495  0.133887  -0.522376
    H   H1   0.496075  0.571694  0.905588  0.210940
    H   H2   0.503926  0.571694  0.094413  0.211037
    C   C9   0.093964  0.578413  0.534092  -0.338844
    C   C10  0.906036  0.578413  0.465908  -0.338487
    H   H3   0.059562  0.641677  0.563391  0.161634
    H   H4   0.940439  0.641677  0.436610  0.161546
    C   C11  0.184490  0.579763  0.533806  0.397132
    C   C12  0.815510  0.579763  0.466194  0.396605
    C   C13  0.231291  0.498979  0.501465  -0.189346
    C   C14  0.768709  0.498979  0.498535  -0.188933
    C   C15  0.185956  0.417230  0.470047  -0.041552
    C   C16  0.814044  0.417230  0.529953  -0.041826
    H   H5   0.220758  0.353440  0.443413  0.123802
    H   H6   0.779242  0.353440  0.556587  0.123849
    C   C17  0.095325  0.416468  0.468918  -0.250586
    C   C18  0.904675  0.416468  0.531083  -0.250405
    H   H7   0.062022  0.352425  0.439910  0.132988
    H   H8   0.937978  0.352425  0.560090  0.133006
    C   C19  0.048426  0.497179  0.500797  0.158513
    C   C20  0.951575  0.497179  0.499203  0.158241
    C   C21  0.473639  0.101290  0.599947  -0.250314
    C   C22  0.526361  0.101290  0.400053  -0.250089
    H   H9   0.451658  0.063814  0.679048  0.162003
    H   H10  0.548343  0.063814  0.320952  0.162035
    C   C23  0.473121  0.199725  0.598039  -0.036832
    C   C24  0.526880  0.199725  0.401961  -0.037230
    H   H11  0.450778  0.238261  0.675964  0.162510
    H   H12  0.549222  0.238261  0.324037  0.162674
    N   N1   0.500000  0.247559  0.500000  0.022831
    C   C25  0.500000  0.051289  0.500000  0.450267
    C   C26  0.546788  0.896696  0.584988  0.278973
    C   C27  0.453213  0.896696  0.415012  0.278940
    C   C28  0.546965  0.798263  0.582880  0.212048
    C   C29  0.453036  0.798263  0.417120  0.212309
    N   N2   0.500000  0.750404  0.500000  -0.158813
    C   C30  0.500000  0.946758  0.500000  -0.372272
    F   F1   0.503964  0.335257  0.880281  -0.173737
    F   F2   0.496036  0.335257  0.119719  -0.173844
    F   F3   0.595254  0.749898  0.664674  -0.098185
    F   F4   0.404747  0.749898  0.335326  -0.098352
    F   F5   0.226054  0.660555  0.569147  -0.224960
    F   F6   0.773946  0.660555  0.430853  -0.224826
    F   F7   0.595244  0.943498  0.668135  -0.162464
    F   F8   0.404757  0.943498  0.331865  -0.162561
