# Generated by REPEAT Assigner based on pymatgen
data_DB0-m3_o2_o5_f0_nbo.sym.12
_audit_creation_date              2022-05-24
_audit_creation_method            REPEAT_Assigner
_cell_length_a                    30.374076
_cell_length_b                    30.374030
_cell_length_c                    18.597126
_cell_angle_alpha                 90.000000
_cell_angle_beta                  90.000000
_cell_angle_gamma                 90.000000
_cell_volume                      17157.394295
_symmetry_space_group_name_H-M    P1
_symmetry_Int_Tables_number       1
loop_
    _symmetry_equiv_pos_site_id
    _symmetry_equiv_pos_as_xyz
    1  x,y,z
loop_
    _atom_site_type_symbol
    _atom_site_label
    _atom_site_fract_x
    _atom_site_fract_y
    _atom_site_fract_z
    _atom_type_partial_charge
    O   O1    0.434360  0.038948  0.501186  -0.570687
    O   O2    0.963016  0.434586  0.501580  -0.594796
    O   O3    0.565828  0.960980  0.498083  -0.575860
    O   O4    0.036844  0.565547  0.497810  -0.595473
    O   O5    0.565575  0.036870  0.502218  -0.595760
    O   O6    0.038922  0.434332  0.498857  -0.570703
    O   O7    0.434615  0.963042  0.498386  -0.595036
    O   O8    0.960953  0.565799  0.501867  -0.576232
    O   O9    0.934470  0.536939  0.998257  -0.595122
    O   O10   0.463287  0.934486  0.997653  -0.595539
    O   O11   0.065466  0.463168  0.001132  -0.595960
    O   O12   0.536962  0.065522  0.001606  -0.596469
    O   O13   0.065684  0.539096  0.998402  -0.575205
    O   O14   0.539154  0.934308  0.001709  -0.573822
    O   O15   0.934255  0.461072  0.002315  -0.573219
    O   O16   0.461034  0.065695  0.998878  -0.574423
    C   C1    0.226002  0.000410  0.500492  0.171417
    C   C2    0.000418  0.225973  0.499526  0.170511
    C   C3    0.774182  0.999707  0.499498  0.171551
    C   C4    0.999697  0.774153  0.500494  0.171880
    C   C5    0.725803  0.499560  0.001019  0.167404
    C   C6    0.500661  0.725839  0.998676  0.166884
    C   C7    0.273984  0.500516  0.998869  0.178221
    C   C8    0.499383  0.274019  0.001146  0.172388
    C   C9    0.413903  0.000938  0.499710  0.499188
    C   C10   0.000913  0.413874  0.500298  0.499235
    C   C11   0.586282  0.998977  0.500248  0.507121
    C   C12   0.998951  0.586253  0.499738  0.506957
    C   C13   0.913765  0.499050  0.000307  0.501560
    C   C14   0.501187  0.913800  0.999538  0.504645
    C   C15   0.086142  0.501083  0.999723  0.505181
    C   C16   0.499030  0.086175  0.000362  0.503026
    O   O17   0.499350  0.037164  0.393114  -0.677713
    O   O18   0.962792  0.501179  0.393137  -0.683590
    O   O19   0.501040  0.961126  0.392469  -0.667121
    O   O20   0.038813  0.498737  0.392576  -0.674378
    O   O21   0.498769  0.038788  0.607463  -0.673938
    O   O22   0.037086  0.499325  0.606922  -0.677996
    O   O23   0.501213  0.962766  0.606820  -0.683500
    O   O24   0.961048  0.501015  0.607486  -0.667832
    O   O25   0.001000  0.538886  0.892531  -0.673134
    O   O26   0.461295  0.001341  0.892475  -0.672436
    O   O27   0.998589  0.462861  0.893178  -0.683474
    O   O28   0.537322  0.998979  0.893103  -0.684731
    O   O29   0.000972  0.537286  0.106882  -0.678788
    O   O30   0.538931  0.999037  0.107454  -0.666978
    O   O31   0.999310  0.461245  0.107526  -0.666342
    O   O32   0.462889  0.000649  0.106824  -0.677486
    C   C17   0.500217  0.999239  0.359429  0.801389
    C   C18   0.000724  0.499955  0.359496  0.812399
    C   C19   0.499989  0.000686  0.640501  0.811517
    C   C20   0.999147  0.500193  0.640567  0.801725
    C   C21   0.999708  0.500781  0.859496  0.812236
    C   C22   0.499402  0.000179  0.859430  0.812696
    C   C23   0.000219  0.499360  0.140565  0.801538
    C   C24   0.500817  0.999815  0.140500  0.801004
    Zn  Zn1   0.500150  0.049816  0.500073  1.240280
    Zn  Zn2   0.950079  0.500016  0.500068  1.242165
    Zn  Zn3   0.500045  0.950105  0.499873  1.241548
    Zn  Zn4   0.049789  0.500123  0.499980  1.239868
    Zn  Zn5   0.999890  0.549927  0.999928  1.242448
    Zn  Zn6   0.450252  0.999890  0.999861  1.239983
    Zn  Zn7   0.000035  0.450211  0.000118  1.239741
    Zn  Zn8   0.549967  0.000104  0.000054  1.242189
    O   O33   0.999035  0.934615  0.439551  -0.687646
    O   O34   0.065547  0.001129  0.439554  -0.688009
    O   O35   0.999050  0.065848  0.436534  -0.670068
    O   O36   0.934315  0.001114  0.436531  -0.671221
    O   O37   0.001137  0.934284  0.563473  -0.670995
    O   O38   0.934643  0.999009  0.560453  -0.687980
    O   O39   0.001160  0.065517  0.560457  -0.688112
    O   O40   0.065875  0.999016  0.563477  -0.670099
    O   O41   0.498764  0.434384  0.939710  -0.687076
    O   O42   0.565416  0.500721  0.939650  -0.687258
    O   O43   0.499096  0.565611  0.936190  -0.669954
    O   O44   0.434188  0.501018  0.936247  -0.670550
    O   O45   0.500682  0.434237  0.063641  -0.669000
    O   O46   0.434360  0.499132  0.060180  -0.687126
    O   O47   0.501016  0.565465  0.060124  -0.686574
    O   O48   0.565588  0.498833  0.063585  -0.671542
    C   C25   0.000052  0.913822  0.501388  0.643155
    C   C26   0.086338  0.000109  0.501392  0.643665
    C   C27   0.000142  0.086309  0.498620  0.643891
    C   C28   0.913851  0.000030  0.498615  0.643781
    C   C29   0.499645  0.413683  0.001632  0.640811
    C   C30   0.586128  0.499761  0.001559  0.644874
    C   C31   0.500138  0.586164  0.998200  0.641096
    C   C32   0.413646  0.500097  0.998273  0.643505
    C   C33   0.500393  0.999475  0.282343  -0.120007
    C   C34   0.000525  0.499788  0.282410  -0.122880
    C   C35   0.499827  0.000459  0.717587  -0.121199
    C   C36   0.999354  0.500365  0.717653  -0.118590
    C   C37   0.999520  0.500546  0.782410  -0.123325
    C   C38   0.499643  0.000311  0.782344  -0.122664
    C   C39   0.000379  0.499602  0.217652  -0.119099
    C   C40   0.500578  0.999648  0.217586  -0.119923
    C   C41   0.297494  0.974155  0.547488  -0.450253
    C   C42   0.026982  0.297168  0.547320  -0.440639
    C   C43   0.702817  0.023963  0.549865  -0.448977
    C   C44   0.974806  0.702827  0.550081  -0.440300
    C   C45   0.702854  0.974832  0.449899  -0.440893
    C   C46   0.974144  0.297459  0.452537  -0.449740
    C   C47   0.297191  0.026989  0.452697  -0.439981
    C   C48   0.023947  0.702787  0.450127  -0.447938
    C   C49   0.797161  0.473850  0.049408  -0.441255
    C   C50   0.526408  0.797044  0.047646  -0.446462
    C   C51   0.202813  0.526140  0.048066  -0.442158
    C   C52   0.473857  0.202661  0.049728  -0.435237
    C   C53   0.202493  0.475329  0.950341  -0.443618
    C   C54   0.475371  0.797353  0.950287  -0.449251
    C   C55   0.797164  0.524888  0.952051  -0.444739
    C   C56   0.524661  0.202714  0.951993  -0.439699
    H   H1    0.280147  0.953183  0.584883  0.192197
    H   H2    0.047869  0.279582  0.584546  0.189546
    H   H3    0.720272  0.043499  0.589152  0.190456
    H   H4    0.955409  0.720309  0.589518  0.189326
    H   H5    0.720336  0.955436  0.410459  0.189494
    H   H6    0.953174  0.280106  0.415145  0.192086
    H   H7    0.279602  0.047871  0.415470  0.189442
    H   H8    0.043489  0.720241  0.410847  0.190345
    H   H9    0.779698  0.453666  0.087798  0.189947
    H   H10   0.546571  0.779460  0.085918  0.191194
    H   H11   0.220409  0.546209  0.086461  0.189870
    H   H12   0.453754  0.220110  0.088255  0.188290
    H   H13   0.219838  0.455140  0.911808  0.189630
    H   H14   0.455091  0.780012  0.911884  0.191301
    H   H15   0.779702  0.545148  0.913766  0.191178
    H   H16   0.544811  0.220206  0.913583  0.189496
    C   C57   0.342930  0.973279  0.546124  0.264707
    C   C58   0.028109  0.342607  0.546338  0.255668
    C   C59   0.657369  0.024832  0.548980  0.269384
    C   C60   0.973567  0.657397  0.548815  0.258571
    C   C61   0.657425  0.973596  0.451164  0.258750
    C   C62   0.973258  0.342895  0.453899  0.263220
    C   C63   0.342630  0.028125  0.453678  0.254404
    C   C64   0.024812  0.657339  0.451011  0.267734
    C   C65   0.842595  0.472683  0.048117  0.254390
    C   C66   0.527560  0.842483  0.046760  0.261913
    C   C67   0.157376  0.527292  0.047156  0.262513
    C   C68   0.472741  0.157228  0.048398  0.251395
    C   C69   0.157057  0.474437  0.951689  0.262574
    C   C70   0.474460  0.842793  0.951613  0.263607
    C   C71   0.842611  0.525785  0.952972  0.257468
    C   C72   0.525589  0.157273  0.952922  0.255393
    C   C73   0.365688  0.000770  0.499810  0.066103
    C   C74   0.000748  0.365659  0.500207  0.065994
    C   C75   0.634494  0.999126  0.500159  0.054482
    C   C76   0.999100  0.634465  0.499824  0.055398
    C   C77   0.865530  0.499179  0.000471  0.065091
    C   C78   0.501078  0.865565  0.999285  0.057056
    C   C79   0.134333  0.500940  0.999516  0.061156
    C   C80   0.499128  0.134367  0.000577  0.070583
    Zn  Zn9   0.000089  0.000074  0.418638  1.293554
    Zn  Zn10  0.000101  0.000058  0.581369  1.293633
    Zn  Zn11  0.499980  0.499809  0.918544  1.293210
    Zn  Zn12  0.499796  0.500040  0.081287  1.292770
    C   C81   0.274373  0.000514  0.500205  0.192263
    C   C82   0.000510  0.274343  0.499815  0.192868
    C   C83   0.725808  0.999499  0.499768  0.192333
    C   C84   0.999480  0.725779  0.500219  0.191404
    C   C85   0.774185  0.499441  0.000832  0.194737
    C   C86   0.500827  0.774220  0.998858  0.198515
    C   C87   0.225619  0.500672  0.999087  0.186398
    C   C88   0.499308  0.225654  0.000965  0.185952
    C   C89   0.202820  0.001537  0.436563  -0.195339
    C   C90   0.999194  0.203099  0.435307  -0.193569
    C   C91   0.797064  0.000990  0.435287  -0.193580
    C   C92   0.998582  0.797336  0.436563  -0.195261
    C   C93   0.797362  0.998582  0.563431  -0.195429
    C   C94   0.001552  0.202790  0.563455  -0.194636
    C   C95   0.203127  0.999181  0.564711  -0.194156
    C   C96   0.000981  0.797032  0.564708  -0.193928
    C   C97   0.702673  0.499831  0.937008  -0.194640
    C   C98   0.500339  0.702886  0.934492  -0.192465
    C   C99   0.296904  0.500773  0.934666  -0.196419
    C   C100  0.499071  0.297130  0.937130  -0.196184
    C   C101  0.297112  0.500099  0.062868  -0.200159
    C   C102  0.500807  0.702715  0.062694  -0.194394
    C   C103  0.702858  0.499369  0.065210  -0.191364
    C   C104  0.499758  0.296956  0.065332  -0.194111
    H   H17   0.219888  0.001591  0.385592  0.135263
    H   H18   0.999224  0.220404  0.384549  0.136359
    H   H19   0.779762  0.002825  0.384615  0.135592
    H   H20   0.996646  0.780275  0.385683  0.136040
    H   H21   0.780300  0.996645  0.614309  0.136132
    H   H22   0.001603  0.219858  0.614427  0.135119
    H   H23   0.220431  0.999216  0.615469  0.136609
    H   H24   0.002807  0.779728  0.615378  0.135825
    H   H25   0.719765  0.499033  0.886077  0.135866
    H   H26   0.501164  0.720121  0.883690  0.135963
    H   H27   0.279626  0.502003  0.883922  0.136668
    H   H28   0.497863  0.280004  0.886248  0.136639
    H   H29   0.279994  0.498980  0.113764  0.136783
    H   H30   0.500102  0.719817  0.113620  0.135227
    H   H31   0.720103  0.500105  0.116007  0.134847
    H   H32   0.500908  0.279687  0.116088  0.135921
    C   C105  0.157439  0.001366  0.436813  -0.164368
    C   C106  0.999163  0.157720  0.434978  -0.167156
    C   C107  0.842442  0.001171  0.434974  -0.168076
    C   C108  0.998657  0.842719  0.436816  -0.166735
    C   C109  0.842745  0.998645  0.563182  -0.166268
    C   C110  0.001391  0.157409  0.563203  -0.164623
    C   C111  0.157748  0.999139  0.565037  -0.167012
    C   C112  0.001173  0.842411  0.565024  -0.168146
    C   C113  0.657292  0.499871  0.937154  -0.165674
    C   C114  0.500198  0.657505  0.934299  -0.167052
    C   C115  0.342286  0.500715  0.934431  -0.165960
    C   C116  0.499055  0.342510  0.937258  -0.166206
    C   C117  0.342491  0.499861  0.062703  -0.163263
    C   C118  0.500607  0.657336  0.062567  -0.165502
    C   C119  0.657478  0.499469  0.065422  -0.167105
    C   C120  0.499922  0.342339  0.065530  -0.166712
    H   H33   0.140232  0.002004  0.385982  0.136107
    H   H34   0.998458  0.140763  0.383926  0.135037
    H   H35   0.859401  0.002436  0.383953  0.135448
    H   H36   0.997481  0.859926  0.386011  0.136451
    H   H37   0.859951  0.997461  0.613988  0.136422
    H   H38   0.002033  0.140201  0.614033  0.136118
    H   H39   0.140791  0.998432  0.616088  0.135048
    H   H40   0.002437  0.859368  0.616047  0.135433
    H   H41   0.640135  0.499811  0.886268  0.136099
    H   H42   0.500215  0.640486  0.883288  0.134394
    H   H43   0.359288  0.501194  0.883412  0.134853
    H   H44   0.498550  0.359660  0.886372  0.136319
    H   H45   0.359653  0.499279  0.113576  0.135903
    H   H46   0.500460  0.640188  0.113461  0.136116
    H   H47   0.640469  0.499579  0.116440  0.135001
    H   H48   0.500489  0.359354  0.116535  0.134271
    C   C121  0.134614  0.000198  0.501072  0.107667
    C   C122  0.000227  0.134585  0.498942  0.107629
    C   C123  0.865575  0.999956  0.498934  0.109587
    C   C124  0.999969  0.865545  0.501066  0.110239
    C   C125  0.634404  0.499700  0.001378  0.107940
    C   C126  0.500315  0.634440  0.998353  0.110434
    C   C127  0.365369  0.500217  0.998467  0.106846
    C   C128  0.499530  0.365406  0.001476  0.110400
    O   O49   0.365223  0.947791  0.594773  -0.372841
    C   C129  0.361627  0.904589  0.569564  0.551534
    H   H49   0.363822  0.904128  0.510040  -0.091962
    H   H50   0.329815  0.890172  0.586907  -0.075119
    C   C130  0.398657  0.877169  0.600671  -0.442667
    H   H51   0.396482  0.877515  0.660197  0.113702
    H   H52   0.395763  0.842823  0.581021  0.084211
    H   H53   0.430822  0.890966  0.583815  0.128800
    O   O50   0.053752  0.364611  0.595117  -0.366525
    C   C131  0.096918  0.360830  0.569822  0.535040
    H   H54   0.097359  0.363155  0.510312  -0.089336
    H   H55   0.111166  0.328899  0.586954  -0.071135
    C   C132  0.124562  0.397636  0.601108  -0.434119
    H   H56   0.124263  0.395310  0.660620  0.111944
    H   H57   0.158873  0.394614  0.581347  0.083636
    H   H58   0.110913  0.429915  0.584509  0.125168
    O   O51   0.635191  0.048416  0.600260  -0.371027
    C   C133  0.638778  0.092500  0.579522  0.538094
    H   H59   0.636487  0.095255  0.520173  -0.088813
    H   H60   0.670627  0.106203  0.598180  -0.072318
    C   C134  0.601824  0.118694  0.613549  -0.440885
    H   H61   0.603974  0.115901  0.672906  0.113295
    H   H62   0.604827  0.153760  0.597702  0.083006
    H   H63   0.569631  0.105720  0.595183  0.132984
    O   O52   0.949813  0.635261  0.599934  -0.365753
    C   C135  0.905757  0.639253  0.579230  0.531247
    H   H64   0.902977  0.637094  0.519872  -0.088536
    H   H65   0.892319  0.671178  0.598051  -0.071550
    C   C136  0.879260  0.602456  0.613085  -0.431021
    H   H66   0.882081  0.604472  0.672451  0.110945
    H   H67   0.844218  0.605782  0.597270  0.081693
    H   H68   0.891960  0.570189  0.594552  0.127903
    O   O53   0.635288  0.949846  0.400039  -0.365858
    C   C137  0.639281  0.905788  0.420733  0.532509
    H   H69   0.637117  0.903003  0.480090  -0.089051
    H   H70   0.671209  0.892353  0.401916  -0.071942
    C   C138  0.602489  0.879292  0.386864  -0.429445
    H   H71   0.604515  0.882113  0.327497  0.109925
    H   H72   0.605812  0.844250  0.402679  0.081200
    H   H73   0.570219  0.891994  0.405382  0.127436
    O   O54   0.947760  0.365180  0.405256  -0.371713
    C   C139  0.904562  0.361576  0.430479  0.550226
    H   H74   0.904107  0.363779  0.490001  -0.091621
    H   H75   0.890151  0.329757  0.413152  -0.074860
    C   C140  0.877128  0.398594  0.399365  -0.440441
    H   H76   0.877462  0.396406  0.339840  0.112937
    H   H77   0.842786  0.395696  0.419034  0.083646
    H   H78   0.890922  0.430765  0.416197  0.128025
    O   O55   0.364630  0.053770  0.404896  -0.365992
    C   C141  0.360844  0.096936  0.430194  0.535837
    H   H79   0.363171  0.097377  0.489704  -0.089567
    H   H80   0.328911  0.111180  0.413065  -0.071372
    C   C142  0.397647  0.124584  0.398907  -0.433388
    H   H81   0.395317  0.124289  0.339395  0.111476
    H   H82   0.394623  0.158894  0.418674  0.083350
    H   H83   0.429927  0.110936  0.415499  0.124819
    O   O56   0.048401  0.635159  0.399739  -0.370830
    C   C143  0.092483  0.638747  0.420489  0.539993
    H   H84   0.095232  0.636457  0.479838  -0.089240
    H   H85   0.106188  0.670594  0.401831  -0.072851
    C   C144  0.118680  0.601792  0.386472  -0.441528
    H   H86   0.115895  0.603942  0.327113  0.113099
    H   H87   0.153744  0.604793  0.402330  0.082921
    H   H88   0.105703  0.569599  0.404834  0.133386
    O   O57   0.864706  0.447933  0.097994  -0.365267
    C   C145  0.860723  0.404304  0.074979  0.536908
    H   H89   0.863027  0.402684  0.015520  -0.091180
    H   H90   0.828743  0.390531  0.092879  -0.072475
    C   C146  0.897408  0.377114  0.107677  -0.427516
    H   H91   0.895185  0.378701  0.167145  0.108588
    H   H92   0.894134  0.342421  0.089903  0.080961
    H   H93   0.929745  0.390181  0.090169  0.125528
    O   O58   0.552217  0.864441  0.096941  -0.368429
    C   C147  0.595885  0.860590  0.074074  0.540796
    H   H94   0.597603  0.863160  0.014652  -0.091514
    H   H95   0.609652  0.828541  0.091658  -0.074211
    C   C148  0.622987  0.897150  0.107337  -0.432890
    H   H96   0.621297  0.894661  0.166771  0.111962
    H   H97   0.657714  0.893986  0.089688  0.081884
    H   H98   0.609919  0.929551  0.090150  0.126295
    O   O59   0.135341  0.551837  0.097378  -0.371775
    C   C149  0.139036  0.595519  0.074552  0.544101
    H   H99   0.136839  0.597211  0.015089  -0.092160
    H   H100  0.170888  0.609486  0.092667  -0.074079
    C   C150  0.102065  0.622360  0.107153  -0.435592
    H   H101  0.104219  0.620761  0.166628  0.112135
    H   H102  0.105043  0.657090  0.089434  0.082762
    H   H103  0.069880  0.608990  0.089503  0.126941
    O   O60   0.448130  0.135006  0.098312  -0.368534
    C   C151  0.404482  0.138786  0.075343  0.542881
    H   H104  0.402886  0.136851  0.015848  -0.092374
    H   H105  0.390475  0.170553  0.093769  -0.073706
    C   C152  0.377594  0.101666  0.107383  -0.426634
    H   H106  0.379082  0.103565  0.166888  0.108299
    H   H107  0.342896  0.104709  0.089527  0.080290
    H   H108  0.391005  0.069560  0.089431  0.124866
    O   O61   0.134707  0.449941  0.901776  -0.371458
    C   C153  0.138274  0.406272  0.924730  0.543207
    H   H109  0.136339  0.404678  0.984225  -0.089975
    H   H110  0.169970  0.392111  0.906288  -0.072393
    C   C154  0.101018  0.379571  0.892691  -0.439962
    H   H111  0.102904  0.381074  0.833187  0.111988
    H   H112  0.103906  0.344852  0.910507  0.083501
    H   H113  0.068981  0.393122  0.910687  0.130629
    O   O62   0.449839  0.865061  0.901751  -0.367856
    C   C155  0.406184  0.861306  0.924736  0.536461
    H   H114  0.404566  0.863569  0.984199  -0.088731
    H   H115  0.392236  0.829418  0.906758  -0.071633
    C   C156  0.379207  0.898170  0.892105  -0.434526
    H   H116  0.380813  0.896002  0.832632  0.110620
    H   H117  0.344488  0.895062  0.909822  0.082380
    H   H118  0.392436  0.930417  0.909724  0.129643
    O   O63   0.864724  0.550317  0.902809  -0.367762
    C   C157  0.861099  0.594009  0.925653  0.538216
    H   H119  0.863627  0.595721  0.985081  -0.088432
    H   H120  0.829143  0.607953  0.907992  -0.072666
    C   C158  0.897838  0.620902  0.892464  -0.440150
    H   H121  0.895406  0.619198  0.833025  0.113708
    H   H122  0.894839  0.655653  0.910063  0.083845
    H   H123  0.930151  0.607672  0.909762  0.130335
    O   O64   0.550014  0.135111  0.902693  -0.370644
    C   C159  0.593720  0.138593  0.925489  0.542677
    H   H124  0.595416  0.136397  0.984952  -0.089079
    H   H125  0.607839  0.170373  0.907352  -0.072443
    C   C160  0.620371  0.101486  0.892884  -0.447122
    H   H126  0.618751  0.103626  0.833409  0.115232
    H   H127  0.655124  0.104308  0.910551  0.085556
    H   H128  0.606863  0.069369  0.910585  0.132281
