# generated using pymatgen
data_Zn3H22C41O13
_symmetry_space_group_name_H-M   'P 1'
_cell_length_a   36.94955600
_cell_length_b   30.32896200
_cell_length_c   21.74712200
_cell_angle_alpha   90.00000000
_cell_angle_beta   54.94976000
_cell_angle_gamma   90.00000000
_symmetry_Int_Tables_number   1
_chemical_formula_structural   Zn3H22C41O13
_chemical_formula_sum   'Zn12 H88 C164 O52'
_cell_volume   19951.06964105
_cell_formula_units_Z   4
loop_
 _symmetry_equiv_pos_site_id
 _symmetry_equiv_pos_as_xyz
  1  'x, y, z'
loop_
 _atom_site_type_symbol
 _atom_site_label
 _atom_site_symmetry_multiplicity
 _atom_site_fract_x
 _atom_site_fract_y
 _atom_site_fract_z
 _atom_site_occupancy
  Zn  Zn1  1  0.00022700  0.54006300  0.49970300  1
  Zn  Zn2  1  0.50022700  0.04006300  0.49970300  1
  Zn  Zn3  1  0.99991500  0.44024200  0.50012400  1
  Zn  Zn4  1  0.49991500  0.94024200  0.50012400  1
  Zn  Zn5  1  0.95005300  0.49295100  0.04312200  1
  Zn  Zn6  1  0.04990400  0.49307400  0.95667700  1
  Zn  Zn7  1  0.45005300  0.99295100  0.04312200  1
  Zn  Zn8  1  0.54990400  0.99307400  0.95667700  1
  Zn  Zn9  1  0.49781700  0.49273700  0.07180600  1
  Zn  Zn10  1  0.50222900  0.49268000  0.92838400  1
  Zn  Zn11  1  0.99781700  0.99273700  0.07180600  1
  Zn  Zn12  1  0.00222900  0.99268000  0.92838400  1
  H  H1  1  0.06677900  0.63283200  0.90563600  1
  H  H2  1  0.93165900  0.63316700  0.09517700  1
  H  H3  1  0.56677900  0.13283200  0.90563600  1
  H  H4  1  0.43165900  0.13316700  0.09517700  1
  H  H5  1  0.97227200  0.43544200  0.71981800  1
  H  H6  1  0.02869800  0.43732300  0.27939600  1
  H  H7  1  0.47227200  0.93544200  0.71981800  1
  H  H8  1  0.52869800  0.93732300  0.27939600  1
  H  H9  1  0.11624400  0.60357100  0.58908300  1
  H  H10  1  0.88200300  0.60305400  0.41186000  1
  H  H11  1  0.61624400  0.10357100  0.58908300  1
  H  H12  1  0.38200300  0.10305400  0.41186000  1
  H  H13  1  0.09335100  0.61762500  0.71725700  1
  H  H14  1  0.90552200  0.61784000  0.28352500  1
  H  H15  1  0.59335200  0.11762500  0.71725700  1
  H  H16  1  0.40552200  0.11784000  0.28352500  1
  H  H17  1  0.04595300  0.56639800  0.81635900  1
  H  H18  1  0.95394900  0.56741900  0.18372900  1
  H  H19  1  0.54595300  0.06639800  0.81635900  1
  H  H20  1  0.45394900  0.06741900  0.18372900  1
  H  H21  1  0.96765000  0.43750800  0.83579600  1
  H  H22  1  0.03312100  0.43898700  0.16370300  1
  H  H23  1  0.46765000  0.93750800  0.83579600  1
  H  H24  1  0.53312100  0.93898700  0.16370300  1
  H  H25  1  0.22045100  0.42218000  0.23489100  1
  H  H26  1  0.78017800  0.42373500  0.76572800  1
  H  H27  1  0.72045100  0.92218000  0.23489100  1
  H  H28  1  0.28017800  0.92373500  0.76572800  1
  H  H29  1  0.13981100  0.42111200  0.31698400  1
  H  H30  1  0.86075400  0.42320500  0.68374700  1
  H  H31  1  0.63981100  0.92111200  0.31698400  1
  H  H32  1  0.36075400  0.92320500  0.68374700  1
  H  H33  1  0.13972400  0.55861000  0.36135100  1
  H  H34  1  0.85990900  0.56036400  0.63818200  1
  H  H35  1  0.63972400  0.05861000  0.36135100  1
  H  H36  1  0.35990900  0.06036400  0.63818200  1
  H  H37  1  0.21988000  0.55879500  0.28197400  1
  H  H38  1  0.77981300  0.56006000  0.71774900  1
  H  H39  1  0.71988000  0.05879500  0.28197400  1
  H  H40  1  0.27981300  0.06006000  0.71774900  1
  H  H41  1  0.27627500  0.51934700  0.29592600  1
  H  H42  1  0.72353600  0.52138500  0.70515500  1
  H  H43  1  0.77627500  0.01934700  0.29592600  1
  H  H44  1  0.22353600  0.02138500  0.70515500  1
  H  H45  1  0.35667900  0.51989500  0.22241600  1
  H  H46  1  0.64321100  0.52146200  0.77863400  1
  H  H47  1  0.85667900  0.01989500  0.22241600  1
  H  H48  1  0.14321100  0.02146200  0.77863400  1
  H  H49  1  0.36256200  0.46385200  0.03648600  1
  H  H50  1  0.63772500  0.46297700  0.96272800  1
  H  H51  1  0.86256200  0.96385200  0.03648600  1
  H  H52  1  0.13772500  0.96297700  0.96272800  1
  H  H53  1  0.28190500  0.46206500  0.11142600  1
  H  H54  1  0.71833700  0.46190700  0.88791300  1
  H  H55  1  0.78190500  0.96206500  0.11142600  1
  H  H56  1  0.21833700  0.96190700  0.88791300  1
  H  H57  1  0.47152300  0.35230000  0.11885300  1
  H  H58  1  0.52849900  0.35274900  0.88323700  1
  H  H59  1  0.97152300  0.85230000  0.11885300  1
  H  H60  1  0.02849900  0.85274900  0.88323700  1
  H  H61  1  0.06687700  0.71310800  0.90553100  1
  H  H62  1  0.93215900  0.71343800  0.09558200  1
  H  H63  1  0.56687700  0.21310800  0.90553100  1
  H  H64  1  0.43215900  0.21343800  0.09558200  1
  H  H65  1  0.47097000  0.27210200  0.11844600  1
  H  H66  1  0.52855600  0.27254500  0.88304300  1
  H  H67  1  0.97097000  0.77210200  0.11844600  1
  H  H68  1  0.02855600  0.77254500  0.88304300  1
  H  H69  1  0.06404100  0.27221600  0.97998400  1
  H  H70  1  0.93693600  0.27276600  0.01869100  1
  H  H71  1  0.56404100  0.77221600  0.97998400  1
  H  H72  1  0.43693600  0.77276600  0.01869100  1
  H  H73  1  0.06457900  0.35243800  0.97932200  1
  H  H74  1  0.93689700  0.35297300  0.01943300  1
  H  H75  1  0.56457900  0.85243800  0.97932200  1
  H  H76  1  0.43689700  0.85297300  0.01943300  1
  H  H77  1  0.48090900  0.71354500  0.92380200  1
  H  H78  1  0.51970500  0.71298300  0.07468000  1
  H  H79  1  0.98090900  0.21354500  0.92380200  1
  H  H80  1  0.01970500  0.21298300  0.07468000  1
  H  H81  1  0.48103600  0.63333800  0.92296500  1
  H  H82  1  0.51913200  0.63278000  0.07519500  1
  H  H83  1  0.98103600  0.13333800  0.92296500  1
  H  H84  1  0.01913200  0.13278000  0.07519500  1
  H  H85  1  0.11442500  0.56074200  0.49672400  1
  H  H86  1  0.88336500  0.55979400  0.50404200  1
  H  H87  1  0.61442500  0.06074200  0.49672400  1
  H  H88  1  0.38336500  0.05979400  0.50404200  1
  C  C1  1  0.08570800  0.48913300  0.39852800  1
  C  C2  1  0.91443100  0.49130400  0.60131700  1
  C  C3  1  0.58570800  0.98913300  0.39852800  1
  C  C4  1  0.41443100  0.99130400  0.60131700  1
  C  C5  1  0.01318500  0.48931500  0.60620700  1
  C  C6  1  0.98694200  0.49085400  0.39361500  1
  C  C7  1  0.51318500  0.98931500  0.60620700  1
  C  C8  1  0.48694200  0.99085400  0.39361500  1
  C  C9  1  0.03706100  0.65025800  0.94768000  1
  C  C10  1  0.96149500  0.65044700  0.05315900  1
  C  C11  1  0.53706100  0.15025800  0.94768000  1
  C  C12  1  0.46149500  0.15044700  0.05315900  1
  C  C13  1  0.50005900  0.62736600  0.99907800  1
  C  C14  1  0.00005900  0.12736600  0.99907800  1
  C  C15  1  0.07547500  0.54661700  0.61843600  1
  C  C16  1  0.92355600  0.54667700  0.38194800  1
  C  C17  1  0.57547500  0.04661700  0.61843600  1
  C  C18  1  0.42355600  0.04667700  0.38194800  1
  C  C19  1  0.09189600  0.58239400  0.63407100  1
  C  C20  1  0.90679200  0.58229000  0.36663900  1
  C  C21  1  0.59189600  0.08239400  0.63407100  1
  C  C22  1  0.40679200  0.08229000  0.36663900  1
  C  C23  1  0.07992000  0.58975500  0.70565100  1
  C  C24  1  0.91911400  0.59003700  0.29495300  1
  C  C25  1  0.57992000  0.08975500  0.70565100  1
  C  C26  1  0.41911400  0.09003700  0.29495300  1
  C  C27  1  0.05341900  0.55995200  0.76139600  1
  C  C28  1  0.94615500  0.56064800  0.23881600  1
  C  C29  1  0.55341900  0.05995200  0.76139600  1
  C  C30  1  0.44615500  0.06064800  0.23881600  1
  C  C31  1  0.03576400  0.52417800  0.74726500  1
  C  C32  1  0.96397700  0.52492700  0.25272900  1
  C  C33  1  0.53576400  0.02417800  0.74726500  1
  C  C34  1  0.46397700  0.02492700  0.25272900  1
  C  C35  1  0.04320800  0.51981200  0.67710000  1
  C  C36  1  0.95641600  0.52047100  0.32296700  1
  C  C37  1  0.54320800  0.01981200  0.67710000  1
  C  C38  1  0.45641600  0.02047100  0.32296700  1
  C  C39  1  0.01818800  0.48885700  0.66853800  1
  C  C40  1  0.98192900  0.49004800  0.33127100  1
  C  C41  1  0.51818800  0.98885700  0.66853800  1
  C  C42  1  0.48192900  0.99004800  0.33127100  1
  C  C43  1  0.99176800  0.45938000  0.72568200  1
  C  C44  1  0.00881500  0.46089900  0.27383200  1
  C  C45  1  0.49176800  0.95938000  0.72568200  1
  C  C46  1  0.50881500  0.96089900  0.27383200  1
  C  C47  1  0.98814600  0.46119800  0.79200200  1
  C  C48  1  0.01234800  0.46253200  0.20757900  1
  C  C49  1  0.48814600  0.96119800  0.79200200  1
  C  C50  1  0.51234800  0.96253200  0.20757900  1
  C  C51  1  0.00968400  0.49352700  0.80344500  1
  C  C52  1  0.99038700  0.49447500  0.19632500  1
  C  C53  1  0.50968400  0.99352700  0.80344500  1
  C  C54  1  0.49038700  0.99447500  0.19632500  1
  C  C55  1  0.20267600  0.45226300  0.26217500  1
  C  C56  1  0.79771000  0.45388800  0.73827600  1
  C  C57  1  0.70267600  0.95226300  0.26217500  1
  C  C58  1  0.29771000  0.95388800  0.73827600  1
  C  C59  1  0.15706400  0.45165800  0.30899500  1
  C  C60  1  0.84332300  0.45358300  0.69147800  1
  C  C61  1  0.65706400  0.95165800  0.30899500  1
  C  C62  1  0.34332300  0.95358300  0.69147800  1
  C  C63  1  0.13396300  0.48972600  0.34531900  1
  C  C64  1  0.86617400  0.49167200  0.65468900  1
  C  C65  1  0.63396300  0.98972600  0.34531900  1
  C  C66  1  0.36617400  0.99167200  0.65468900  1
  C  C67  1  0.15690400  0.52837500  0.33374900  1
  C  C68  1  0.84296000  0.53008000  0.66598100  1
  C  C69  1  0.65690400  0.02837500  0.33374900  1
  C  C70  1  0.34296000  0.03008000  0.66598100  1
  C  C71  1  0.20240100  0.52853200  0.28913600  1
  C  C72  1  0.79746400  0.52995400  0.71074400  1
  C  C73  1  0.70240100  0.02853200  0.28913600  1
  C  C74  1  0.29746400  0.02995400  0.71074400  1
  C  C75  1  0.22546900  0.49050900  0.25338600  1
  C  C76  1  0.77463600  0.49187200  0.74678700  1
  C  C77  1  0.72546900  0.99050900  0.25338600  1
  C  C78  1  0.27463600  0.99187200  0.74678700  1
  C  C79  1  0.29512200  0.50719500  0.23886100  1
  C  C80  1  0.70482000  0.50863600  0.76184000  1
  C  C81  1  0.79512200  0.00719500  0.23886100  1
  C  C82  1  0.20482000  0.00863600  0.76184000  1
  C  C83  1  0.34060900  0.50715400  0.19742800  1
  C  C84  1  0.65933700  0.50830600  0.80326300  1
  C  C85  1  0.84060900  0.00715400  0.19742800  1
  C  C86  1  0.15933700  0.00830600  0.80326300  1
  C  C87  1  0.36518700  0.49204400  0.12428200  1
  C  C88  1  0.63485600  0.49233800  0.87588600  1
  C  C89  1  0.86518700  0.99204400  0.12428200  1
  C  C90  1  0.13485600  0.99233800  0.87588600  1
  C  C91  1  0.34385600  0.47615600  0.09343900  1
  C  C92  1  0.65631400  0.47592800  0.90619300  1
  C  C93  1  0.84385600  0.97615600  0.09343900  1
  C  C94  1  0.15631400  0.97592800  0.90619300  1
  C  C95  1  0.29828400  0.47475300  0.13592000  1
  C  C96  1  0.70189700  0.47493300  0.86373800  1
  C  C97  1  0.79828400  0.97475300  0.13592000  1
  C  C98  1  0.20189700  0.97493300  0.86373800  1
  C  C99  1  0.27379200  0.49070800  0.20850800  1
  C  C100  1  0.72629000  0.49171400  0.79167800  1
  C  C101  1  0.77379200  0.99070800  0.20850800  1
  C  C102  1  0.22629000  0.99171400  0.79167800  1
  C  C103  1  0.99919600  0.62747000  0.00038800  1
  C  C104  1  0.49919600  0.12747000  0.00038800  1
  C  C105  1  0.03701600  0.69569200  0.94710800  1
  C  C106  1  0.96188400  0.69587400  0.05391000  1
  C  C107  1  0.53701600  0.19569200  0.94710800  1
  C  C108  1  0.46188400  0.19587400  0.05391000  1
  C  C109  1  0.50032400  0.71872500  0.99925200  1
  C  C110  1  0.00032400  0.21872500  0.99925200  1
  C  C111  1  0.99954100  0.71867600  0.00057200  1
  C  C112  1  0.49954100  0.21867600  0.00057200  1
  C  C113  1  0.00090400  0.40668400  0.99933100  1
  C  C114  1  0.50090400  0.90668400  0.99933100  1
  C  C115  1  0.00565000  0.49327600  0.87435400  1
  C  C116  1  0.99436500  0.49393000  0.12542100  1
  C  C117  1  0.50565000  0.99327600  0.87435400  1
  C  C118  1  0.49436500  0.99393000  0.12542100  1
  C  C119  1  0.48346800  0.28969500  0.06668300  1
  C  C120  1  0.51618400  0.28993700  0.93493200  1
  C  C121  1  0.98346800  0.78969500  0.06668300  1
  C  C122  1  0.01618400  0.78993700  0.93493200  1
  C  C123  1  0.99905900  0.57927100  0.00043900  1
  C  C124  1  0.49905900  0.07927100  0.00043900  1
  C  C125  1  0.50006800  0.40642200  0.00128000  1
  C  C126  1  0.00006800  0.90642200  0.00128000  1
  C  C127  1  0.41351400  0.49256400  0.08014400  1
  C  C128  1  0.58651400  0.49263600  0.92007000  1
  C  C129  1  0.91351400  0.99256400  0.08014400  1
  C  C130  1  0.08651400  0.99263600  0.92007000  1
  C  C131  1  0.48418800  0.33512400  0.06668900  1
  C  C132  1  0.51575600  0.33537300  0.93526100  1
  C  C133  1  0.98418800  0.83512400  0.06668900  1
  C  C134  1  0.01575600  0.83537300  0.93526100  1
  C  C135  1  0.49999600  0.57906000  0.99889600  1
  C  C136  1  0.99999600  0.07906000  0.99889600  1
  C  C137  1  0.03592300  0.28981400  0.98903300  1
  C  C138  1  0.96515700  0.29012200  0.00968100  1
  C  C139  1  0.53592300  0.78981400  0.98903300  1
  C  C140  1  0.46515700  0.79012200  0.00968100  1
  C  C141  1  0.03636700  0.33527600  0.98797600  1
  C  C142  1  0.96499700  0.33557700  0.01079300  1
  C  C143  1  0.53636700  0.83527600  0.98797600  1
  C  C144  1  0.46499700  0.83557700  0.01079300  1
  C  C145  1  0.00075400  0.35838500  0.99939200  1
  C  C146  1  0.50075400  0.85838500  0.99939200  1
  C  C147  1  0.49973800  0.26692200  0.00072900  1
  C  C148  1  0.99973800  0.76692200  0.00072900  1
  C  C149  1  0.50003300  0.35817200  0.00106300  1
  C  C150  1  0.00003300  0.85817200  0.00106300  1
  C  C151  1  0.00047100  0.26703100  0.99933100  1
  C  C152  1  0.50047100  0.76703100  0.99933100  1
  C  C153  1  0.48913200  0.69594600  0.95745100  1
  C  C154  1  0.51137300  0.69562900  0.04097900  1
  C  C155  1  0.98913200  0.19594600  0.95745100  1
  C  C156  1  0.01137300  0.19562900  0.04097900  1
  C  C157  1  0.48961000  0.65048600  0.95648900  1
  C  C158  1  0.51063400  0.65017200  0.04176500  1
  C  C159  1  0.98961000  0.15048600  0.95648900  1
  C  C160  1  0.01063400  0.15017200  0.04176500  1
  C  C161  1  0.09890800  0.53497300  0.53876600  1
  C  C162  1  0.89991300  0.53444100  0.46142300  1
  C  C163  1  0.59890800  0.03497300  0.53876600  1
  C  C164  1  0.39991300  0.03444100  0.46142300  1
  O  O1  1  0.06504200  0.52707100  0.42173100  1
  O  O2  1  0.93474600  0.52924300  0.57565200  1
  O  O3  1  0.56504200  0.02707100  0.42173100  1
  O  O4  1  0.43474600  0.02924300  0.57565200  1
  O  O5  1  0.06544700  0.45105700  0.42397300  1
  O  O6  1  0.93505600  0.45323800  0.57830700  1
  O  O7  1  0.56544700  0.95105700  0.42397300  1
  O  O8  1  0.43505600  0.95323800  0.57830700  1
  O  O9  1  0.00883400  0.52731700  0.58202200  1
  O  O10  1  0.98951100  0.52902400  0.41946300  1
  O  O11  1  0.50883400  0.02731700  0.58202200  1
  O  O12  1  0.48951100  0.02902400  0.41946300  1
  O  O13  1  0.01066100  0.45126400  0.58026400  1
  O  O14  1  0.99129600  0.45299600  0.41788900  1
  O  O15  1  0.51066100  0.95126400  0.58026400  1
  O  O16  1  0.49129600  0.95299600  0.41788900  1
  O  O17  1  0.96305500  0.42741300  0.03042700  1
  O  O18  1  0.03885100  0.42719900  0.96814600  1
  O  O19  1  0.46305500  0.92741300  0.03042700  1
  O  O20  1  0.53885100  0.92719900  0.96814600  1
  O  O21  1  0.96590600  0.49375700  0.93716700  1
  O  O22  1  0.03406700  0.49222800  0.06262400  1
  O  O23  1  0.46590600  0.99375700  0.93716700  1
  O  O24  1  0.53406700  0.99222800  0.06262400  1
  O  O25  1  0.04197100  0.49181800  0.87189200  1
  O  O26  1  0.95803200  0.49410200  0.12785700  1
  O  O27  1  0.54197100  0.99181800  0.87189200  1
  O  O28  1  0.45803200  0.99410200  0.12785700  1
  O  O29  1  0.96102800  0.55883200  0.03199700  1
  O  O30  1  0.03699500  0.55862300  0.96901500  1
  O  O31  1  0.46102800  0.05883200  0.03199700  1
  O  O32  1  0.53699500  0.05862300  0.96901500  1
  O  O33  1  0.49676500  0.42687600  0.05745100  1
  O  O34  1  0.50327200  0.42714400  0.94536400  1
  O  O35  1  0.99676500  0.92687600  0.05745100  1
  O  O36  1  0.00327200  0.92714400  0.94536400  1
  O  O37  1  0.43235100  0.49228700  0.11609800  1
  O  O38  1  0.56766700  0.49431600  0.88418100  1
  O  O39  1  0.93235100  0.99228700  0.11609800  1
  O  O40  1  0.06766700  0.99431600  0.88418100  1
  O  O41  1  0.43591900  0.49298700  0.00661200  1
  O  O42  1  0.56410400  0.49111200  0.99356300  1
  O  O43  1  0.93591900  0.99298700  0.00661200  1
  O  O44  1  0.06410400  0.99111200  0.99356300  1
  O  O45  1  0.49801000  0.55830100  0.05371200  1
  O  O46  1  0.50200900  0.55856700  0.94388600  1
  O  O47  1  0.99801000  0.05830100  0.05371200  1
  O  O48  1  0.00200900  0.05856700  0.94388600  1
  O  O49  1  0.10672300  0.49650300  0.51898800  1
  O  O50  1  0.89320800  0.49578400  0.48024800  1
  O  O51  1  0.60672300  0.99650300  0.51898800  1
  O  O52  1  0.39320800  0.99578400  0.48024800  1
