data_DB0-m3_o1510_o6_f0_fsc.sym.17_repeat
_audit_creation_date              2024-02-20
_audit_creation_method            'Materials Studio'
_symmetry_space_group_name_H-M    'P1'
_symmetry_Int_Tables_number       1
_symmetry_cell_setting            triclinic
loop_
_symmetry_equiv_pos_as_xyz
  x,y,z
_cell_length_a                    14.3856
_cell_length_b                    8.5521
_cell_length_c                    19.2866
_cell_angle_alpha                 90.0000
_cell_angle_beta                  91.0213
_cell_angle_gamma                 90.0000
loop_
_atom_site_label
_atom_site_type_symbol
_atom_site_fract_x
_atom_site_fract_y
_atom_site_fract_z
_atom_site_U_iso_or_equiv
_atom_site_adp_type
_atom_site_occupancy
H1     H     0.04314   0.99978   0.54732   0.00000  Uiso   1.00
H2     H     0.95689   0.99979   0.45269   0.00000  Uiso   1.00
C1     C     0.01961   0.13951   0.63611   0.00000  Uiso   1.00
C2     C     0.98060   0.86051   0.36382   0.00000  Uiso   1.00
C3     C     0.98041   0.13951   0.36389   0.00000  Uiso   1.00
C4     C     0.01942   0.86051   0.63619   0.00000  Uiso   1.00
C5     C     0.00648   0.14054   0.70673   0.00000  Uiso   1.00
C6     C     0.99423   0.85970   0.29322   0.00000  Uiso   1.00
C7     C     0.99353   0.14054   0.29328   0.00000  Uiso   1.00
C8     C     0.00580   0.85970   0.70680   0.00000  Uiso   1.00
C9     C     0.00344   0.00026   0.74270   0.00000  Uiso   1.00
C10    C     0.99659   0.00025   0.25731   0.00000  Uiso   1.00
C11    C     0.03125   0.99994   0.60223   0.00000  Uiso   1.00
C12    C     0.96878   0.99995   0.39778   0.00000  Uiso   1.00
C13    C     0.07875   0.95694   0.07569   0.00000  Uiso   1.00
C14    C     0.07932   0.04230   0.92724   0.00000  Uiso   1.00
C15    C     0.92128   0.95693   0.92431   0.00000  Uiso   1.00
C16    C     0.92070   0.04228   0.07276   0.00000  Uiso   1.00
H3     H     0.14081   0.91969   0.04966   0.00000  Uiso   1.00
H4     H     0.14107   0.07907   0.95544   0.00000  Uiso   1.00
H5     H     0.85922   0.91967   0.95034   0.00000  Uiso   1.00
H6     H     0.85895   0.07903   0.04456   0.00000  Uiso   1.00
C17    C     0.07818   0.95721   0.14724   0.00000  Uiso   1.00
C18    C     0.07940   0.04387   0.85581   0.00000  Uiso   1.00
C19    C     0.92185   0.95720   0.85276   0.00000  Uiso   1.00
C20    C     0.92062   0.04385   0.14419   0.00000  Uiso   1.00
H7     H     0.14012   0.92423   0.17623   0.00000  Uiso   1.00
H8     H     0.14163   0.07772   0.82901   0.00000  Uiso   1.00
H9     H     0.85991   0.92421   0.82377   0.00000  Uiso   1.00
H10    H     0.85840   0.07769   0.17100   0.00000  Uiso   1.00
C21    C     0.99910   0.00100   0.18159   0.00000  Uiso   1.00
C22    C     0.00093   0.00101   0.81841   0.00000  Uiso   1.00
C23    C     0.99984   0.99899   0.03804   0.00000  Uiso   1.00
C24    C     0.00018   0.99899   0.96196   0.00000  Uiso   1.00
O1     O     0.08904   0.66938   0.56413   0.00000  Uiso   1.00
O2     O     0.91097   0.33067   0.43587   0.00000  Uiso   1.00
O3     O     0.91098   0.66938   0.43588   0.00000  Uiso   1.00
O4     O     0.08905   0.33066   0.56413   0.00000  Uiso   1.00
O5     O     0.93033   0.66330   0.57940   0.00000  Uiso   1.00
O6     O     0.06970   0.33664   0.42062   0.00000  Uiso   1.00
O7     O     0.06969   0.66331   0.42061   0.00000  Uiso   1.00
O8     O     0.93032   0.33663   0.57938   0.00000  Uiso   1.00
C25    C     0.01346   0.71847   0.59435   0.00000  Uiso   1.00
C26    C     0.98655   0.28148   0.40571   0.00000  Uiso   1.00
C27    C     0.98656   0.71848   0.40566   0.00000  Uiso   1.00
C28    C     0.01347   0.28147   0.59429   0.00000  Uiso   1.00
Zn1    Zn    0.89709   0.50001   0.50768   0.00000  Uiso   1.00
Zn2    Zn    0.10293   0.50001   0.49233   0.00000  Uiso   1.00
C29    C     0.45772   0.48976   0.43528   0.00000  Uiso   1.00
C30    C     0.54231   0.51015   0.56474   0.00000  Uiso   1.00
H11    H     0.42359   0.48183   0.38501   0.00000  Uiso   1.00
H12    H     0.57644   0.51806   0.61501   0.00000  Uiso   1.00
C31    C     0.40442   0.49997   0.49379   0.00000  Uiso   1.00
C32    C     0.59560   0.50000   0.50623   0.00000  Uiso   1.00
C33    C     0.44644   0.51002   0.55854   0.00000  Uiso   1.00
C34    C     0.55359   0.48986   0.44148   0.00000  Uiso   1.00
C35    C     0.30481   0.50000   0.48778   0.00000  Uiso   1.00
C36    C     0.69521   0.50001   0.51223   0.00000  Uiso   1.00
N1     N     0.77562   0.50002   0.51519   0.00000  Uiso   1.00
N2     N     0.22440   0.50002   0.48482   0.00000  Uiso   1.00
N3     N     0.99544   0.28552   0.74196   0.00000  Uiso   1.00
H13    H     0.93308   0.28063   0.76874   0.00000  Uiso   1.00
H14    H     0.05001   0.29746   0.77792   0.00000  Uiso   1.00
N4     N     0.00114   0.71448   0.25752   0.00000  Uiso   1.00
H15    H     0.94896   0.71133   0.21922   0.00000  Uiso   1.00
H16    H     0.06563   0.71035   0.23368   0.00000  Uiso   1.00
N5     N     0.00457   0.28552   0.25804   0.00000  Uiso   1.00
H17    H     0.06694   0.28064   0.23127   0.00000  Uiso   1.00
H18    H     0.95001   0.29744   0.22208   0.00000  Uiso   1.00
N6     N     0.99890   0.71449   0.74250   0.00000  Uiso   1.00
H19    H     0.05109   0.71135   0.78080   0.00000  Uiso   1.00
H20    H     0.93442   0.71033   0.76634   0.00000  Uiso   1.00
N7     N     0.60973   0.47946   0.38149   0.00000  Uiso   1.00
H21    H     0.64857   0.58231   0.37862   0.00000  Uiso   1.00
H22    H     0.56632   0.47416   0.33763   0.00000  Uiso   1.00
N8     N     0.39031   0.52037   0.61854   0.00000  Uiso   1.00
H23    H     0.35147   0.41751   0.62137   0.00000  Uiso   1.00
H24    H     0.43373   0.52555   0.66239   0.00000  Uiso   1.00
