# generated using pymatgen
data_FeH16C32NO11
_symmetry_space_group_name_H-M   'P 1'
_cell_length_a   12.01147000
_cell_length_b   20.16720300
_cell_length_c   13.23036800
_cell_angle_alpha   111.32650300
_cell_angle_beta   91.53347500
_cell_angle_gamma   75.57725700
_symmetry_Int_Tables_number   1
_chemical_formula_structural   FeH16C32NO11
_chemical_formula_sum   'Fe2 H32 C64 N2 O22'
_cell_volume   2884.10128970
_cell_formula_units_Z   2
loop_
 _symmetry_equiv_pos_site_id
 _symmetry_equiv_pos_as_xyz
  1  'x, y, z'
loop_
 _atom_site_type_symbol
 _atom_site_label
 _atom_site_symmetry_multiplicity
 _atom_site_fract_x
 _atom_site_fract_y
 _atom_site_fract_z
 _atom_site_occupancy
  Fe  Fe1  1  0.51470000  0.02161800  0.30691600  1
  Fe  Fe2  1  0.53619900  0.00610400  0.72168800  1
  H  H1  1  0.03634900  0.03992300  0.80747600  1
  H  H2  1  0.93329200  0.94654300  0.73865800  1
  H  H3  1  0.11330700  0.06320700  0.27209700  1
  H  H4  1  0.39675500  0.02243500  0.00890800  1
  H  H5  1  0.65142600  0.99286700  0.00901900  1
  H  H6  1  0.13443400  0.95059400  0.73591200  1
  H  H7  1  0.03013600  0.88632700  0.79285800  1
  H  H8  1  0.14228400  0.96486300  0.21977500  1
  H  H9  1  0.95997100  0.98340800  0.25005000  1
  H  H10  1  0.88159200  0.66803100  0.73734000  1
  H  H11  1  0.02180500  0.57842300  0.78771900  1
  H  H12  1  0.03250400  0.32995400  0.29002800  1
  H  H13  1  0.92519900  0.42632400  0.23040100  1
  H  H14  1  0.31368100  0.24753200  0.47383700  1
  H  H15  1  0.13321800  0.36111000  0.78798600  1
  H  H16  1  0.79926300  0.77879100  0.52768700  1
  H  H17  1  0.56716300  0.73559700  0.21152000  1
  H  H18  1  0.65210400  0.63400300  0.26797500  1
  H  H19  1  0.08556200  0.28896800  0.90365400  1
  H  H20  1  0.08336100  0.32005000  0.10042800  1
  H  H21  1  0.31943300  0.36015300  0.36747900  1
  H  H22  1  0.37915100  0.39262500  0.27661600  1
  H  H23  1  0.41737700  0.29477000  0.25460100  1
  H  H24  1  0.44087400  0.31685300  0.08993800  1
  H  H25  1  0.44135200  0.28607100  0.89571600  1
  H  H26  1  0.88098800  0.06631100  0.41897800  1
  H  H27  1  0.77830900  0.18987000  0.53876600  1
  H  H28  1  0.65448100  0.41544800  0.53787500  1
  H  H29  1  0.65149900  0.36013700  0.39640900  1
  H  H30  1  0.78439000  0.38247200  0.45035900  1
  H  H31  1  0.82481400  0.27196700  0.29084800  1
  H  H32  1  0.92693600  0.14976600  0.17303200  1
  C  C1  1  0.31125900  0.01392500  0.00403100  1
  C  C2  1  0.25694600  0.00091500  0.90843700  1
  C  C3  1  0.14373800  0.99351400  0.90937900  1
  C  C4  1  0.07719100  0.98490700  0.81024000  1
  C  C5  1  0.98628000  0.94471300  0.80778600  1
  C  C6  1  0.25895200  0.01920900  0.09794800  1
  C  C7  1  0.14838500  0.01092600  0.10008100  1
  C  C8  1  0.09036900  0.99765200  0.00571300  1
  C  C9  1  0.97096800  0.99185900  0.00901600  1
  C  C10  1  0.91577600  0.97615400  0.91311800  1
  C  C11  1  0.79904500  0.98049200  0.91590500  1
  C  C12  1  0.09733800  0.01513800  0.20451800  1
  C  C13  1  0.96843400  0.02265200  0.21206000  1
  C  C14  1  0.91196100  0.00380100  0.10642900  1
  C  C15  1  0.79591500  0.00184400  0.10587300  1
  C  C16  1  0.74117800  0.99337300  0.01129700  1
  C  C17  1  0.72404000  0.00815400  0.19974200  1
  C  C18  1  0.56955000  0.87838800  0.31089400  1
  C  C19  1  0.32400300  0.03866200  0.19445200  1
  C  C20  1  0.40508700  0.12434100  0.50100800  1
  C  C21  1  0.64866100  0.89633800  0.53256600  1
  C  C22  1  0.73112500  0.96872500  0.82105500  1
  C  C23  1  0.39951600  0.14176200  0.73228300  1
  C  C24  1  0.32596200  0.99778100  0.81415600  1
  C  C25  1  0.84729700  0.56854000  0.35637400  1
  C  C26  1  0.80903400  0.64759400  0.53885100  1
  C  C27  1  0.88585500  0.59644300  0.57016900  1
  C  C28  1  0.93231200  0.52750700  0.49498300  1
  C  C29  1  0.90707000  0.51205600  0.38851000  1
  C  C30  1  0.91593100  0.61375700  0.67653400  1
  C  C31  1  0.99652100  0.56285200  0.70502300  1
  C  C32  1  0.03906400  0.49228600  0.62980500  1
  C  C33  1  0.00313300  0.47432200  0.52633800  1
  C  C34  1  0.03852500  0.40300600  0.45444100  1
  C  C35  1  0.00663200  0.38574700  0.34851800  1
  C  C36  1  0.94550100  0.44067200  0.31448700  1
  C  C37  1  0.11808700  0.43990000  0.65719200  1
  C  C38  1  0.10247300  0.34923400  0.48978300  1
  C  C39  1  0.29687000  0.25275100  0.55649500  1
  C  C40  1  0.35120500  0.19499900  0.58780200  1
  C  C41  1  0.33984200  0.20207700  0.69620600  1
  C  C42  1  0.26674400  0.26596400  0.76889800  1
  C  C43  1  0.19774100  0.31649400  0.73138400  1
  C  C44  1  0.21437700  0.31238800  0.62593100  1
  C  C45  1  0.74628500  0.76739000  0.45943900  1
  C  C46  1  0.67819700  0.82677800  0.44052500  1
  C  C47  1  0.61997100  0.81653300  0.34674900  1
  C  C48  1  0.61570000  0.74565100  0.28310900  1
  C  C49  1  0.66750300  0.68701700  0.31366900  1
  C  C50  1  0.73791900  0.69656300  0.40014900  1
  C  C51  1  0.26417100  0.28422900  0.88671600  1
  C  C52  1  0.16338600  0.29524300  0.94490700  1
  C  C53  1  0.16223400  0.31274400  0.05578700  1
  C  C54  1  0.26084500  0.32059100  0.10997400  1
  C  C55  1  0.34756200  0.34659300  0.28156200  1
  C  C56  1  0.36159900  0.31094200  0.05154400  1
  C  C57  1  0.36264700  0.29308000  0.94059300  1
  C  C58  1  0.90943800  0.09911800  0.28679400  1
  C  C59  1  0.86863800  0.11128400  0.39031300  1
  C  C60  1  0.81077700  0.18106800  0.45824500  1
  C  C61  1  0.79264200  0.23962000  0.42410400  1
  C  C62  1  0.70493100  0.36873000  0.46748500  1
  C  C63  1  0.83569700  0.22782200  0.32096700  1
  C  C64  1  0.89415600  0.15792700  0.25311200  1
  N  N1  1  0.79737500  0.63614200  0.43175900  1
  N  N2  1  0.14526500  0.36801600  0.58960100  1
  O  O1  1  0.61226200  0.03685100  0.20330300  1
  O  O2  1  0.53592100  0.86395000  0.21182100  1
  O  O3  1  0.76439300  0.97223100  0.26355700  1
  O  O4  1  0.57186200  0.94630700  0.37211100  1
  O  O5  1  0.38460900  0.98629600  0.22498500  1
  O  O6  1  0.35300300  0.10130700  0.22481800  1
  O  O7  1  0.48195300  0.12034300  0.42882000  1
  O  O8  1  0.36458900  0.06705300  0.48674900  1
  O  O9  1  0.55000300  0.91445900  0.58912500  1
  O  O10  1  0.72574400  0.93391100  0.56827100  1
  O  O11  1  0.67740400  0.02642100  0.79851600  1
  O  O12  1  0.69031100  0.91030100  0.78788600  1
  O  O13  1  0.27796500  0.01346000  0.73252900  1
  O  O14  1  0.48793000  0.09044000  0.67335300  1
  O  O15  1  0.43789600  0.98942300  0.82328700  1
  O  O16  1  0.36142500  0.13679000  0.82043000  1
  O  O17  1  0.84353300  0.55599700  0.24957100  1
  O  O18  1  0.74437800  0.70817800  0.61647500  1
  O  O19  1  0.16951800  0.46168000  0.75080500  1
  O  O20  1  0.11833800  0.27813600  0.42499200  1
  O  O21  1  0.25561400  0.33758800  0.21865200  1
  O  O22  1  0.73285900  0.30660100  0.49282400  1
