# generated using pymatgen
data_Zn3H21C30N5O12
_symmetry_space_group_name_H-M   'P 1'
_cell_length_a   31.37006200
_cell_length_b   31.29506300
_cell_length_c   24.86560900
_cell_angle_alpha   90.00000000
_cell_angle_beta   129.09335300
_cell_angle_gamma   90.00000000
_symmetry_Int_Tables_number   1
_chemical_formula_structural   Zn3H21C30N5O12
_chemical_formula_sum   'Zn12 H84 C120 N20 O48'
_cell_volume   18946.06141092
_cell_formula_units_Z   4
loop_
 _symmetry_equiv_pos_site_id
 _symmetry_equiv_pos_as_xyz
  1  'x, y, z'
loop_
 _atom_site_type_symbol
 _atom_site_label
 _atom_site_symmetry_multiplicity
 _atom_site_fract_x
 _atom_site_fract_y
 _atom_site_fract_z
 _atom_site_occupancy
  Zn  Zn1  1  0.78485700  0.71540900  0.49884300  1
  Zn  Zn2  1  0.21514300  0.71540900  0.50115700  1
  Zn  Zn3  1  0.28485700  0.21540900  0.49884300  1
  Zn  Zn4  1  0.71514300  0.21540900  0.50115700  1
  Zn  Zn5  1  0.71224200  0.77844700  0.49996200  1
  Zn  Zn6  1  0.28775800  0.77844700  0.50003800  1
  Zn  Zn7  1  0.21224200  0.27844700  0.49996200  1
  Zn  Zn8  1  0.78775800  0.27844700  0.50003800  1
  Zn  Zn9  1  0.45589600  0.49671500  0.42213800  1
  Zn  Zn10  1  0.54410400  0.49671500  0.57786200  1
  Zn  Zn11  1  0.95589600  0.99671500  0.42213800  1
  Zn  Zn12  1  0.04410400  0.99671500  0.57786200  1
  H  H1  1  0.60856500  0.80662500  0.27916500  1
  H  H2  1  0.39143500  0.80662500  0.72083500  1
  H  H3  1  0.10856500  0.30662500  0.27916500  1
  H  H4  1  0.89143500  0.30662500  0.72083500  1
  H  H5  1  0.54688700  0.80689100  0.15322500  1
  H  H6  1  0.45311300  0.80689100  0.84677500  1
  H  H7  1  0.04688700  0.30689100  0.15322500  1
  H  H8  1  0.95311300  0.30689100  0.84677500  1
  H  H9  1  0.60226100  0.68178100  0.15420600  1
  H  H10  1  0.39773900  0.68178100  0.84579400  1
  H  H11  1  0.10226100  0.18178100  0.15420600  1
  H  H12  1  0.89773900  0.18178100  0.84579400  1
  H  H13  1  0.66501600  0.68213200  0.27991500  1
  H  H14  1  0.33498400  0.68213200  0.72008500  1
  H  H15  1  0.16501600  0.18213200  0.27991500  1
  H  H16  1  0.83498400  0.18213200  0.72008500  1
  H  H17  1  0.88733400  0.87648100  0.42363200  1
  H  H18  1  0.11266700  0.87648100  0.57636800  1
  H  H19  1  0.38733400  0.37648100  0.42363200  1
  H  H20  1  0.61266700  0.37648100  0.57636800  1
  H  H21  1  0.86079400  0.80896500  0.45467000  1
  H  H22  1  0.13920600  0.80896500  0.54533000  1
  H  H23  1  0.36079400  0.30896500  0.45467000  1
  H  H24  1  0.63920600  0.30896500  0.54533000  1
  H  H25  1  0.82107700  0.87856400  0.50023300  1
  H  H26  1  0.17892300  0.87856400  0.49976700  1
  H  H27  1  0.32107700  0.37856400  0.50023300  1
  H  H28  1  0.67892300  0.37856400  0.49976700  1
  H  H29  1  0.79719500  0.77426200  0.72025600  1
  H  H30  1  0.20280500  0.77426200  0.27974400  1
  H  H31  1  0.29719500  0.27426200  0.72025600  1
  H  H32  1  0.70280500  0.27426200  0.27974400  1
  H  H33  1  0.85973000  0.77335700  0.84582800  1
  H  H34  1  0.14027000  0.77335700  0.15417200  1
  H  H35  1  0.35973000  0.27335700  0.84582800  1
  H  H36  1  0.64027000  0.27335700  0.15417200  1
  H  H37  1  0.98672600  0.72403900  0.84548300  1
  H  H38  1  0.01327400  0.72403900  0.15451700  1
  H  H39  1  0.48672600  0.22403900  0.84548300  1
  H  H40  1  0.51327400  0.22403900  0.15451700  1
  H  H41  1  0.92351400  0.72387700  0.71956000  1
  H  H42  1  0.07648600  0.72387700  0.28044000  1
  H  H43  1  0.42351400  0.22387700  0.71956000  1
  H  H44  1  0.57648600  0.22387700  0.28044000  1
  H  H45  1  0.61388800  0.61611100  0.57934400  1
  H  H46  1  0.38611300  0.61611100  0.42065600  1
  H  H47  1  0.11388800  0.11611100  0.57934400  1
  H  H48  1  0.88611300  0.11611100  0.42065600  1
  H  H49  1  0.57532500  0.59396000  0.43493600  1
  H  H50  1  0.42467600  0.59396000  0.56506400  1
  H  H51  1  0.07532500  0.09396000  0.43493600  1
  H  H52  1  0.92467600  0.09396000  0.56506400  1
  H  H53  1  0.64431800  0.68322800  0.55427500  1
  H  H54  1  0.35568200  0.68322800  0.44572500  1
  H  H55  1  0.14431800  0.18322800  0.55427500  1
  H  H56  1  0.85568200  0.18322800  0.44572500  1
  H  H57  1  0.66950700  0.61607600  0.48842900  1
  H  H58  1  0.33049300  0.61607600  0.51157200  1
  H  H59  1  0.16950700  0.11607600  0.48842900  1
  H  H60  1  0.83049300  0.11607600  0.51157200  1
  H  H61  1  0.97113500  0.84324800  0.60989400  1
  H  H62  1  0.97208000  0.86801200  0.67619800  1
  H  H63  1  0.01056800  0.89136700  0.65208700  1
  H  H64  1  0.88842100  0.95901000  0.56398500  1
  H  H65  1  0.96075300  0.95577600  0.63902700  1
  H  H66  1  0.90996200  0.93109500  0.64092500  1
  H  H67  1  0.02886500  0.84324800  0.39010600  1
  H  H68  1  0.02792000  0.86801200  0.32380300  1
  H  H69  1  0.98943200  0.89136700  0.34791300  1
  H  H70  1  0.11157900  0.95901000  0.43601500  1
  H  H71  1  0.03924700  0.95577600  0.36097300  1
  H  H72  1  0.09003800  0.93109500  0.35907500  1
  H  H73  1  0.47113500  0.34324800  0.60989400  1
  H  H74  1  0.47208000  0.36801200  0.67619800  1
  H  H75  1  0.51056800  0.39136700  0.65208700  1
  H  H76  1  0.38842100  0.45901000  0.56398500  1
  H  H77  1  0.46075300  0.45577600  0.63902700  1
  H  H78  1  0.40996200  0.43109500  0.64092500  1
  H  H79  1  0.52886500  0.34324800  0.39010600  1
  H  H80  1  0.52792000  0.36801200  0.32380300  1
  H  H81  1  0.48943200  0.39136700  0.34791300  1
  H  H82  1  0.61157900  0.45901000  0.43601500  1
  H  H83  1  0.53924700  0.45577600  0.36097300  1
  H  H84  1  0.59003800  0.43109500  0.35907500  1
  C  C1  1  0.79957900  0.81092800  0.49435500  1
  C  C2  1  0.20042100  0.81092800  0.50564500  1
  C  C3  1  0.29957900  0.31092800  0.49435500  1
  C  C4  1  0.70042100  0.31092800  0.50564500  1
  C  C5  1  0.67956200  0.74469800  0.36390900  1
  C  C6  1  0.32043800  0.74469800  0.63609100  1
  C  C7  1  0.17956200  0.24469800  0.36390900  1
  C  C8  1  0.82043800  0.24469800  0.63609100  1
  C  C9  1  0.69713300  0.68291100  0.50368900  1
  C  C10  1  0.30286700  0.68291100  0.49631100  1
  C  C11  1  0.19713300  0.18291100  0.50368900  1
  C  C12  1  0.80286700  0.18291100  0.49631100  1
  C  C13  1  0.81758000  0.74912200  0.63507000  1
  C  C14  1  0.18242000  0.74912200  0.36493000  1
  C  C15  1  0.31758000  0.24912200  0.63507000  1
  C  C16  1  0.68242000  0.24912200  0.36493000  1
  C  C17  1  0.60724100  0.77901900  0.25203900  1
  C  C18  1  0.39275900  0.77901900  0.74796100  1
  C  C19  1  0.10724100  0.27901900  0.25203900  1
  C  C20  1  0.89275900  0.27901900  0.74796100  1
  C  C21  1  0.57262600  0.77930700  0.18063900  1
  C  C22  1  0.42737400  0.77930700  0.81936100  1
  C  C23  1  0.07262600  0.27930700  0.18063900  1
  C  C24  1  0.92737400  0.27930700  0.81936100  1
  C  C25  1  0.57025800  0.74434900  0.14491600  1
  C  C26  1  0.42974200  0.74434900  0.85508400  1
  C  C27  1  0.07025800  0.24434900  0.14491600  1
  C  C28  1  0.92974200  0.24434900  0.85508400  1
  C  C29  1  0.60317200  0.70931400  0.18113700  1
  C  C30  1  0.39682800  0.70931400  0.81886300  1
  C  C31  1  0.10317200  0.20931400  0.18113700  1
  C  C32  1  0.89682800  0.20931400  0.81886300  1
  C  C33  1  0.63908900  0.70963200  0.25248700  1
  C  C34  1  0.36091100  0.70963200  0.74751300  1
  C  C35  1  0.13908900  0.20963200  0.25248700  1
  C  C36  1  0.86091100  0.20963200  0.74751300  1
  C  C37  1  0.64104400  0.74437100  0.28820000  1
  C  C38  1  0.35895600  0.74437100  0.71180000  1
  C  C39  1  0.14104400  0.24437100  0.28820000  1
  C  C40  1  0.85895600  0.24437100  0.71180000  1
  C  C41  1  0.46661800  0.74443000  0.93083700  1
  C  C42  1  0.53338200  0.74443000  0.06916300  1
  C  C43  1  0.96661800  0.24443000  0.93083700  1
  C  C44  1  0.03338200  0.24443000  0.06916300  1
  C  C45  1  0.88727200  0.87587400  0.46715300  1
  C  C46  1  0.11272800  0.87587400  0.53284800  1
  C  C47  1  0.38727200  0.37587400  0.46715300  1
  C  C48  1  0.61272800  0.37587400  0.53284800  1
  C  C49  1  0.91774200  0.90416800  0.51848500  1
  C  C50  1  0.08225800  0.90416800  0.48151500  1
  C  C51  1  0.41774200  0.40416800  0.51848500  1
  C  C52  1  0.58225800  0.40416800  0.48151500  1
  C  C53  1  0.85894700  0.84028200  0.47168200  1
  C  C54  1  0.14105300  0.84028200  0.52831800  1
  C  C55  1  0.35894700  0.34028200  0.47168200  1
  C  C56  1  0.64105300  0.34028200  0.52831800  1
  C  C57  1  0.82769300  0.84653500  0.49025900  1
  C  C58  1  0.17230700  0.84653500  0.50974100  1
  C  C59  1  0.32769300  0.34653500  0.49025900  1
  C  C60  1  0.67230700  0.34653500  0.50974100  1
  C  C61  1  0.83879500  0.76324300  0.74727000  1
  C  C62  1  0.16120500  0.76324300  0.25273000  1
  C  C63  1  0.33879500  0.26324300  0.74727000  1
  C  C64  1  0.66120500  0.26324300  0.25273000  1
  C  C65  1  0.87423100  0.76239400  0.81868500  1
  C  C66  1  0.12576900  0.76239400  0.18131600  1
  C  C67  1  0.37423100  0.26239400  0.81868500  1
  C  C68  1  0.62576900  0.26239400  0.18131600  1
  C  C69  1  0.92773200  0.74864000  0.85470300  1
  C  C70  1  0.07226800  0.74864000  0.14529700  1
  C  C71  1  0.42773200  0.24864000  0.85470300  1
  C  C72  1  0.57226800  0.24864000  0.14529700  1
  C  C73  1  0.94518100  0.73520300  0.81844700  1
  C  C74  1  0.05481900  0.73520300  0.18155300  1
  C  C75  1  0.44518100  0.23520300  0.81844700  1
  C  C76  1  0.55481900  0.23520300  0.18155300  1
  C  C77  1  0.90920500  0.73483700  0.74693300  1
  C  C78  1  0.09079500  0.73483700  0.25306700  1
  C  C79  1  0.40920500  0.23483700  0.74693300  1
  C  C80  1  0.59079500  0.23483700  0.25306700  1
  C  C81  1  0.85594100  0.74915400  0.71100400  1
  C  C82  1  0.14405900  0.74915400  0.28899600  1
  C  C83  1  0.35594100  0.24915400  0.71100400  1
  C  C84  1  0.64405900  0.24915400  0.28899600  1
  C  C85  1  0.03444900  0.74837400  0.06931000  1
  C  C86  1  0.96555100  0.74837400  0.93069000  1
  C  C87  1  0.53444900  0.24837400  0.06931000  1
  C  C88  1  0.46555100  0.24837400  0.93069000  1
  C  C89  1  0.61288300  0.61746700  0.53500900  1
  C  C90  1  0.38711700  0.61746700  0.46499200  1
  C  C91  1  0.11288300  0.11746700  0.53500900  1
  C  C92  1  0.88711700  0.11746700  0.46499200  1
  C  C93  1  0.58180700  0.58989000  0.48291200  1
  C  C94  1  0.41819300  0.58989000  0.51708800  1
  C  C95  1  0.08180700  0.08989000  0.48291200  1
  C  C96  1  0.91819300  0.08989000  0.51708800  1
  C  C97  1  0.64113400  0.65301400  0.53068100  1
  C  C98  1  0.35886600  0.65301400  0.46931900  1
  C  C99  1  0.14113400  0.15301400  0.53068100  1
  C  C100  1  0.85886600  0.15301400  0.46931900  1
  C  C101  1  0.66740600  0.64746300  0.50506600  1
  C  C102  1  0.33259400  0.64746300  0.49493400  1
  C  C103  1  0.16740600  0.14746300  0.50506600  1
  C  C104  1  0.83259400  0.14746300  0.49493400  1
  C  C105  1  0.44769100  0.55602800  0.51204400  1
  C  C106  1  0.55230900  0.55602800  0.48795600  1
  C  C107  1  0.94769100  0.05602800  0.51204400  1
  C  C108  1  0.05230900  0.05602800  0.48795600  1
  C  C109  1  0.94747700  0.93758600  0.51235600  1
  C  C110  1  0.05252300  0.93758600  0.48764400  1
  C  C111  1  0.44747700  0.43758600  0.51235600  1
  C  C112  1  0.55252300  0.43758600  0.48764400  1
  C  C113  1  0.97233700  0.87420400  0.63249800  1
  C  C114  1  0.92100500  0.93855000  0.60747700  1
  C  C115  1  0.02766300  0.87420400  0.36750200  1
  C  C116  1  0.07899500  0.93855000  0.39252300  1
  C  C117  1  0.47233700  0.37420400  0.63249800  1
  C  C118  1  0.42100500  0.43855000  0.60747700  1
  C  C119  1  0.52766300  0.37420400  0.36750200  1
  C  C120  1  0.57899500  0.43855000  0.39252300  1
  N  N1  1  0.51666000  0.70726200  0.03421900  1
  N  N2  1  0.48334000  0.70726200  0.96578200  1
  N  N3  1  0.01666000  0.20726200  0.03421900  1
  N  N4  1  0.98334000  0.20726200  0.96578200  1
  N  N5  1  0.48360400  0.78161600  0.96577900  1
  N  N6  1  0.51639600  0.78161600  0.03422100  1
  N  N7  1  0.98360400  0.28161600  0.96577900  1
  N  N8  1  0.01639600  0.28161600  0.03422100  1
  N  N9  1  0.02017500  0.74822500  0.96599100  1
  N  N10  1  0.97982500  0.74822500  0.03400900  1
  N  N11  1  0.52017500  0.24822500  0.96599100  1
  N  N12  1  0.47982500  0.24822500  0.03400900  1
  N  N13  1  0.05421700  0.74846300  0.03449800  1
  N  N14  1  0.94578300  0.74846300  0.96550200  1
  N  N15  1  0.55421700  0.24846300  0.03449800  1
  N  N16  1  0.44578300  0.24846300  0.96550200  1
  N  N17  1  0.92498400  0.89933500  0.58056700  1
  N  N18  1  0.07501600  0.89933500  0.41943300  1
  N  N19  1  0.42498400  0.39933500  0.58056700  1
  N  N20  1  0.57501600  0.39933500  0.41943300  1
  O  O1  1  0.81378000  0.77169300  0.49320600  1
  O  O2  1  0.18622000  0.77169300  0.50679400  1
  O  O3  1  0.31378000  0.27169300  0.49320600  1
  O  O4  1  0.68622000  0.27169300  0.50679400  1
  O  O5  1  0.76110700  0.82007500  0.49881500  1
  O  O6  1  0.23889400  0.82007500  0.50118500  1
  O  O7  1  0.26110700  0.32007500  0.49881500  1
  O  O8  1  0.73889400  0.32007500  0.50118500  1
  O  O9  1  0.72289000  0.71993400  0.39553000  1
  O  O10  1  0.27711000  0.71993400  0.60447000  1
  O  O11  1  0.22289000  0.21993400  0.39553000  1
  O  O12  1  0.77711000  0.21993400  0.60447000  1
  O  O13  1  0.66949800  0.77000200  0.39684400  1
  O  O14  1  0.33050200  0.77000200  0.60315600  1
  O  O15  1  0.16949800  0.27000200  0.39684400  1
  O  O16  1  0.83050200  0.27000200  0.60315600  1
  O  O17  1  0.73625500  0.67374100  0.50045000  1
  O  O18  1  0.26374500  0.67374100  0.49955100  1
  O  O19  1  0.23625500  0.17374100  0.50045000  1
  O  O20  1  0.76374500  0.17374100  0.49955100  1
  O  O21  1  0.68285700  0.72214400  0.50469500  1
  O  O22  1  0.31714300  0.72214400  0.49530500  1
  O  O23  1  0.18285700  0.22214400  0.50469500  1
  O  O24  1  0.81714300  0.22214400  0.49530500  1
  O  O25  1  0.82790300  0.72424800  0.60196800  1
  O  O26  1  0.17209700  0.72424800  0.39803200  1
  O  O27  1  0.32790300  0.22424800  0.60196800  1
  O  O28  1  0.67209700  0.22424800  0.39803200  1
  O  O29  1  0.77391000  0.77350900  0.60332600  1
  O  O30  1  0.22609000  0.77350900  0.39667400  1
  O  O31  1  0.27391000  0.27350900  0.60332600  1
  O  O32  1  0.72609000  0.27350900  0.39667400  1
  O  O33  1  0.42781100  0.54268700  0.45017400  1
  O  O34  1  0.57218900  0.54268700  0.54982700  1
  O  O35  1  0.92781100  0.04268700  0.45017400  1
  O  O36  1  0.07218900  0.04268700  0.54982700  1
  O  O37  1  0.49291400  0.54086800  0.56949200  1
  O  O38  1  0.50708600  0.54086800  0.43050800  1
  O  O39  1  0.99291400  0.04086800  0.56949200  1
  O  O40  1  0.00708600  0.04086800  0.43050800  1
  O  O41  1  0.92761700  0.95100300  0.45037300  1
  O  O42  1  0.07238300  0.95100300  0.54962700  1
  O  O43  1  0.42761700  0.45100300  0.45037300  1
  O  O44  1  0.57238300  0.45100300  0.54962700  1
  O  O45  1  0.99316300  0.95232700  0.56930900  1
  O  O46  1  0.00683800  0.95232700  0.43069100  1
  O  O47  1  0.49316300  0.45232700  0.56930900  1
  O  O48  1  0.50683800  0.45232700  0.43069100  1
