data_DB0-m3_o12_o28_f0_pcu_repeat
_audit_creation_date              2024-02-23
_audit_creation_method            'Materials Studio'
_symmetry_space_group_name_H-M    'P1'
_symmetry_Int_Tables_number       1
_symmetry_cell_setting            triclinic
loop_
_symmetry_equiv_pos_as_xyz
  x,y,z
_cell_length_a                    10.0888
_cell_length_b                    11.2240
_cell_length_c                    23.5108
_cell_angle_alpha                 90.0958
_cell_angle_beta                  99.3031
_cell_angle_gamma                 110.7829
loop_
_atom_site_label
_atom_site_type_symbol
_atom_site_fract_x
_atom_site_fract_y
_atom_site_fract_z
_atom_site_U_iso_or_equiv
_atom_site_adp_type
_atom_site_occupancy
O1     O     0.12376   0.01928   0.09304   0.00000  Uiso   1.00
O2     O     0.87624   0.98072   0.90696   0.00000  Uiso   1.00
O3     O     0.88332   0.98293   0.07728   0.00000  Uiso   1.00
O4     O     0.11668   0.01707   0.92272   0.00000  Uiso   1.00
C1     C     0.00421   0.00139   0.11296   0.00000  Uiso   1.00
C2     C     0.99579   0.99862   0.88704   0.00000  Uiso   1.00
O5     O     0.16538   0.20582   0.01076   0.00000  Uiso   1.00
O6     O     0.83462   0.79418   0.98924   0.00000  Uiso   1.00
O7     O     0.92459   0.16904   0.99514   0.00000  Uiso   1.00
O8     O     0.07541   0.83096   0.00486   0.00000  Uiso   1.00
C3     C     0.05872   0.24833   0.00385   0.00000  Uiso   1.00
C4     C     0.94129   0.75167   0.99615   0.00000  Uiso   1.00
Zn1    Zn    0.15785   0.02349   0.01014   0.00000  Uiso   1.00
Zn2    Zn    0.84215   0.97651   0.98986   0.00000  Uiso   1.00
H1     H     0.64923   0.08527   0.03801   0.00000  Uiso   1.00
H2     H     0.35077   0.91474   0.96199   0.00000  Uiso   1.00
N1     N     0.36932   0.05236   0.02305   0.00000  Uiso   1.00
N2     N     0.63068   0.94764   0.97695   0.00000  Uiso   1.00
C5     C     0.42212   0.98780   0.99448   0.00000  Uiso   1.00
C6     C     0.57788   0.01221   0.00552   0.00000  Uiso   1.00
H3     H     0.55461   0.88076   0.94718   0.00000  Uiso   1.00
H4     H     0.44540   0.11924   0.05282   0.00000  Uiso   1.00
H5     H     0.12806   0.63278   0.00832   0.00000  Uiso   1.00
H6     H     0.87194   0.36723   0.99168   0.00000  Uiso   1.00
C7     C     0.08994   0.38577   0.00587   0.00000  Uiso   1.00
C8     C     0.91006   0.61423   0.99413   0.00000  Uiso   1.00
C9     C     0.98344   0.43111   0.99893   0.00000  Uiso   1.00
C10    C     0.01656   0.56890   0.00107   0.00000  Uiso   1.00
H7     H     0.79901   0.54916   0.98691   0.00000  Uiso   1.00
H8     H     0.20100   0.45084   0.01309   0.00000  Uiso   1.00
C11    C     0.04375   0.91534   0.38534   0.00000  Uiso   1.00
C12    C     0.95626   0.08466   0.61466   0.00000  Uiso   1.00
N3     N     0.00536   0.00247   0.35419   0.00000  Uiso   1.00
N4     N     0.99465   0.99753   0.64581   0.00000  Uiso   1.00
C13    C     0.96519   0.08881   0.37983   0.00000  Uiso   1.00
C14    C     0.03481   0.91119   0.62017   0.00000  Uiso   1.00
C15    C     0.96234   0.08893   0.43849   0.00000  Uiso   1.00
C16    C     0.03766   0.91107   0.56151   0.00000  Uiso   1.00
C17    C     0.00120   0.00057   0.47072   0.00000  Uiso   1.00
C18    C     0.99880   0.99943   0.52928   0.00000  Uiso   1.00
C19    C     0.04242   0.91331   0.44411   0.00000  Uiso   1.00
C20    C     0.95758   0.08669   0.55589   0.00000  Uiso   1.00
C21    C     0.92129   0.17692   0.46516   0.00000  Uiso   1.00
C22    C     0.07871   0.82308   0.53484   0.00000  Uiso   1.00
C23    C     0.91894   0.17581   0.52362   0.00000  Uiso   1.00
C24    C     0.08107   0.82419   0.47638   0.00000  Uiso   1.00
O9     O     0.08003   0.82820   0.35879   0.00000  Uiso   1.00
O10    O     0.91997   0.17180   0.64121   0.00000  Uiso   1.00
O11    O     0.93056   0.17668   0.34834   0.00000  Uiso   1.00
O12    O     0.06944   0.82333   0.65166   0.00000  Uiso   1.00
H9     H     0.89036   0.24746   0.44096   0.00000  Uiso   1.00
H10    H     0.10965   0.75254   0.55904   0.00000  Uiso   1.00
H11    H     0.88629   0.24555   0.54335   0.00000  Uiso   1.00
H12    H     0.11371   0.75445   0.45665   0.00000  Uiso   1.00
C25    C     0.86866   0.97859   0.72749   0.00000  Uiso   1.00
C26    C     0.13135   0.02141   0.27251   0.00000  Uiso   1.00
H13    H     0.76907   0.96217   0.69793   0.00000  Uiso   1.00
H14    H     0.23093   0.03783   0.30207   0.00000  Uiso   1.00
C27    C     0.86872   0.97873   0.78620   0.00000  Uiso   1.00
C28    C     0.13128   0.02127   0.21380   0.00000  Uiso   1.00
H15    H     0.76892   0.96328   0.80154   0.00000  Uiso   1.00
H16    H     0.23108   0.03672   0.19846   0.00000  Uiso   1.00
C29    C     0.99488   0.99816   0.82457   0.00000  Uiso   1.00
C30    C     0.00512   0.00184   0.17543   0.00000  Uiso   1.00
C31    C     0.12074   0.01733   0.80354   0.00000  Uiso   1.00
C32    C     0.87926   0.98267   0.19646   0.00000  Uiso   1.00
H17    H     0.22087   0.03308   0.83257   0.00000  Uiso   1.00
H18    H     0.77913   0.96692   0.16743   0.00000  Uiso   1.00
C33    C     0.12038   0.01696   0.74487   0.00000  Uiso   1.00
C34    C     0.87962   0.98305   0.25513   0.00000  Uiso   1.00
H19    H     0.21987   0.03333   0.72908   0.00000  Uiso   1.00
H20    H     0.78013   0.96667   0.27092   0.00000  Uiso   1.00
C35    C     0.99445   0.99760   0.70656   0.00000  Uiso   1.00
C36    C     0.00555   0.00241   0.29344   0.00000  Uiso   1.00
