# generated using pymatgen
data_ZnH5C15Br3NO4
_symmetry_space_group_name_H-M   'P 1'
_cell_length_a   8.57896700
_cell_length_b   9.40105500
_cell_length_c   13.03796000
_cell_angle_alpha   90.00000000
_cell_angle_beta   95.34779100
_cell_angle_gamma   90.00000000
_symmetry_Int_Tables_number   1
_chemical_formula_structural   ZnH5C15Br3NO4
_chemical_formula_sum   'Zn2 H10 C30 Br6 N2 O8'
_cell_volume   1046.95196754
_cell_formula_units_Z   2
loop_
 _symmetry_equiv_pos_site_id
 _symmetry_equiv_pos_as_xyz
  1  'x, y, z'
loop_
 _atom_site_type_symbol
 _atom_site_label
 _atom_site_symmetry_multiplicity
 _atom_site_fract_x
 _atom_site_fract_y
 _atom_site_fract_z
 _atom_site_occupancy
  Zn  Zn1  1  0.50052800  0.83819300  0.50198000  1
  Zn  Zn2  1  0.49947200  0.16180800  0.49802000  1
  H  H1  1  0.20592500  0.03286200  0.16058700  1
  H  H2  1  0.79407500  0.96713800  0.83941200  1
  H  H3  1  0.84209100  0.07752300  0.98691000  1
  H  H4  1  0.15790900  0.92247800  0.01309000  1
  H  H5  1  0.98053100  0.94800200  0.42849100  1
  H  H6  1  0.01946900  0.05199800  0.57150900  1
  H  H7  1  0.53588000  0.75220900  0.69892800  1
  H  H8  1  0.46411900  0.24779100  0.30107100  1
  H  H9  1  0.46576200  0.75792200  0.30430800  1
  H  H10  1  0.53423800  0.24207800  0.69569200  1
  C  C1  1  0.82919100  0.99661500  0.29610700  1
  C  C2  1  0.17080900  0.00338500  0.70389300  1
  C  C3  1  0.81839800  0.01921700  0.19083600  1
  C  C4  1  0.18160200  0.98078300  0.80916400  1
  C  C5  1  0.95404300  0.02004400  0.13981400  1
  C  C6  1  0.04595600  0.97995600  0.86018600  1
  C  C7  1  0.09887800  0.01739600  0.19658300  1
  C  C8  1  0.90112200  0.98260400  0.80341700  1
  C  C9  1  0.10749700  0.99542100  0.30114800  1
  C  C10  1  0.89250200  0.00457900  0.69885100  1
  C  C11  1  0.97320000  0.97445300  0.34825500  1
  C  C12  1  0.02680000  0.02554700  0.65174500  1
  C  C13  1  0.94384800  0.02739200  0.02666100  1
  C  C14  1  0.05615200  0.97260800  0.97333900  1
  C  C15  1  0.69441100  0.99900500  0.35731800  1
  C  C16  1  0.30558900  0.00099500  0.64268200  1
  C  C17  1  0.74386200  0.00173200  0.63509300  1
  C  C18  1  0.25613800  0.99826800  0.36490700  1
  C  C19  1  0.53359200  0.64124200  0.68709400  1
  C  C20  1  0.46640800  0.35875800  0.31290600  1
  C  C21  1  0.46746400  0.64685400  0.31524800  1
  C  C22  1  0.53253600  0.35314600  0.68475200  1
  C  C23  1  0.54957900  0.56787500  0.77786700  1
  C  C24  1  0.45042100  0.43212500  0.22213300  1
  C  C25  1  0.45092700  0.57603400  0.22334100  1
  C  C26  1  0.54907300  0.42396600  0.77665900  1
  C  C27  1  0.51570600  0.42380000  0.58954600  1
  C  C28  1  0.48429400  0.57620000  0.41045300  1
  C  C29  1  0.48357300  0.42675900  0.40894000  1
  C  C30  1  0.51642700  0.57324100  0.59106000  1
  Br  Br1  1  0.61714100  0.03849500  0.11660800  1
  Br  Br2  1  0.38285900  0.96150500  0.88339200  1
  Br  Br3  1  0.42876800  0.67972500  0.09720200  1
  Br  Br4  1  0.57123200  0.32027500  0.90279800  1
  Br  Br5  1  0.57251300  0.66769900  0.90562600  1
  Br  Br6  1  0.42748700  0.33230100  0.09437300  1
  N  N1  1  0.49917600  0.35007200  0.49838400  1
  N  N2  1  0.50082400  0.64992800  0.50161600  1
  O  O1  1  0.64694200  0.12294300  0.38944200  1
  O  O2  1  0.35305800  0.87705800  0.61055800  1
  O  O3  1  0.35072100  0.12243800  0.60562700  1
  O  O4  1  0.64927900  0.87756200  0.39437200  1
  O  O5  1  0.68570900  0.87760500  0.60537300  1
  O  O6  1  0.31429100  0.12239500  0.39462700  1
  O  O7  1  0.31412000  0.87681600  0.39956700  1
  O  O8  1  0.68588000  0.12318400  0.60043300  1
