# Generated by REPEAT Assigner based on pymatgen
data_DB0-m2_o24_o28_f0_nbo.sym.67_sqe
_audit_creation_date              2022-05-24
_audit_creation_method            REPEAT_Assigner
_cell_length_a                    21.262534
_cell_length_b                    21.262534
_cell_length_c                    46.720734
_cell_angle_alpha                 90.000000
_cell_angle_beta                  90.000000
_cell_angle_gamma                 90.000000
_cell_volume                      21122.227474
_symmetry_space_group_name_H-M    P1
_symmetry_Int_Tables_number       1
loop_
    _symmetry_equiv_pos_site_id
    _symmetry_equiv_pos_as_xyz
    1  x,y,z
loop_
    _atom_site_type_symbol
    _atom_site_label
    _atom_site_fract_x
    _atom_site_fract_y
    _atom_site_fract_z
    _atom_type_partial_charge
    O   O1    0.090069  0.015206  0.470071  -0.639968
    O   O2    0.984794  0.090055  0.470071  -0.639918
    O   O3    0.909946  0.984779  0.470071  -0.639943
    O   O4    0.015221  0.909931  0.470071  -0.639976
    O   O5    0.590057  0.515218  0.970071  -0.639946
    O   O6    0.484782  0.590066  0.970071  -0.639958
    O   O7    0.409933  0.484791  0.970071  -0.639995
    O   O8    0.515209  0.409943  0.970071  -0.639927
    O   O9    0.088844  0.979164  0.517172  -0.605475
    O   O10   0.020837  0.088829  0.517172  -0.605327
    O   O11   0.911171  0.020822  0.517172  -0.605312
    O   O12   0.979179  0.911156  0.517172  -0.605459
    O   O13   0.588831  0.479175  0.017172  -0.605403
    O   O14   0.520824  0.588841  0.017172  -0.605487
    O   O15   0.411158  0.520834  0.017171  -0.605585
    O   O16   0.479165  0.411168  0.017172  -0.605440
    C   C1    0.118725  0.996350  0.493665  0.663562
    C   C2    0.003651  0.118710  0.493665  0.663226
    C   C3    0.881290  0.003636  0.493665  0.663435
    C   C4    0.996364  0.881275  0.493665  0.663483
    C   C5    0.618713  0.496361  0.993665  0.663490
    C   C6    0.503639  0.618722  0.993665  0.663468
    C   C7    0.381277  0.503648  0.993664  0.663690
    C   C8    0.496351  0.381287  0.993665  0.663195
    C   C9    0.000003  0.499994  0.643990  0.309128
    C   C10   0.500005  0.999994  0.643990  0.308991
    C   C11   0.499995  0.000003  0.143990  0.309127
    C   C12   0.000002  0.500006  0.143990  0.308942
    C   C13   0.514934  0.945932  0.367294  -0.207207
    C   C14   0.054072  0.514927  0.367295  -0.207218
    C   C15   0.485075  0.054057  0.367295  -0.207369
    C   C16   0.945947  0.485068  0.367294  -0.207417
    C   C17   0.014923  0.445939  0.867295  -0.207382
    C   C18   0.554059  0.014931  0.867295  -0.207378
    C   C19   0.985064  0.554063  0.867294  -0.207282
    C   C20   0.445935  0.985073  0.867294  -0.207187
    H   H1    0.527505  0.903506  0.355902  0.146435
    H   H2    0.096498  0.527499  0.355903  0.146425
    H   H3    0.472504  0.096484  0.355903  0.146493
    H   H4    0.903521  0.472498  0.355902  0.146508
    H   H5    0.027495  0.403512  0.855903  0.146483
    H   H6    0.596486  0.027502  0.855903  0.146494
    H   H7    0.972494  0.596490  0.855902  0.146438
    H   H8    0.403508  0.972501  0.855902  0.146417
    Cu  Cu1   0.000008  0.999993  0.465693  1.006312
    Cu  Cu2   0.499995  0.500004  0.965693  1.006365
    Cu  Cu3   0.000008  0.999993  0.521542  0.952187
    Cu  Cu4   0.499994  0.500005  0.021542  0.952246
    C   C21   0.500006  0.999994  0.411708  -0.109857
    C   C22   0.000009  0.499995  0.411708  -0.109978
    C   C23   0.999993  0.500002  0.911708  -0.109884
    C   C24   0.499996  0.000004  0.911708  -0.109860
    C   C25   0.500004  0.999995  0.352397  0.247598
    C   C26   0.000010  0.499999  0.352397  0.247628
    C   C27   0.999994  0.500001  0.852397  0.247676
    C   C28   0.499997  0.000001  0.852397  0.247618
    C   C29   0.028896  0.225818  0.519261  -0.170817
    C   C30   0.774183  0.028882  0.519261  -0.170857
    C   C31   0.971117  0.774168  0.519261  -0.171587
    C   C32   0.225833  0.971103  0.519261  -0.171106
    C   C33   0.528885  0.725829  0.019261  -0.171448
    C   C34   0.274170  0.528895  0.019260  -0.171000
    C   C35   0.471105  0.274180  0.019261  -0.171222
    C   C36   0.725820  0.471115  0.019262  -0.170787
    C   C37   0.971123  0.267017  0.517278  0.079031
    C   C38   0.732983  0.971110  0.517279  0.078843
    C   C39   0.028890  0.732968  0.517279  0.080716
    C   C40   0.267032  0.028876  0.517279  0.079747
    C   C41   0.471112  0.767029  0.017279  0.080691
    C   C42   0.232971  0.471122  0.017278  0.079742
    C   C43   0.528878  0.232980  0.017279  0.079912
    C   C44   0.767019  0.528888  0.017279  0.078792
    H   H9    0.049145  0.205918  0.539172  0.057183
    H   H10   0.794083  0.049131  0.539172  0.057217
    H   H11   0.950867  0.794068  0.539171  0.057359
    H   H12   0.205933  0.950854  0.539171  0.057313
    H   H13   0.549134  0.705929  0.039171  0.057349
    H   H14   0.294070  0.549146  0.039170  0.057214
    H   H15   0.450855  0.294080  0.039171  0.057229
    H   H16   0.705920  0.450867  0.039172  0.057210
    C   C45   0.004155  0.309532  0.496603  0.041605
    C   C46   0.690468  0.004141  0.496603  0.041530
    C   C47   0.995860  0.690453  0.496603  0.040596
    C   C48   0.309547  0.995846  0.496603  0.041141
    C   C49   0.504143  0.809544  0.996603  0.040568
    C   C50   0.190455  0.504152  0.996603  0.040981
    C   C51   0.495847  0.190465  0.996603  0.041062
    C   C52   0.809534  0.495857  0.996604  0.041582
    C   C53   0.062645  0.269224  0.498251  0.037374
    C   C54   0.730777  0.062631  0.498251  0.037404
    C   C55   0.937370  0.730762  0.498251  0.037918
    C   C56   0.269239  0.937356  0.498251  0.037566
    C   C57   0.562633  0.769236  0.998251  0.037780
    C   C58   0.230764  0.562642  0.998250  0.037677
    C   C59   0.437357  0.230773  0.998251  0.037699
    C   C60   0.769226  0.437367  0.998252  0.037358
    C   C61   0.037954  0.230435  0.473271  -0.165300
    C   C62   0.769566  0.037939  0.473271  -0.165514
    C   C63   0.962062  0.769551  0.473270  -0.165889
    C   C64   0.230450  0.962047  0.473271  -0.165531
    C   C65   0.537941  0.730447  0.973270  -0.165572
    C   C66   0.269553  0.537950  0.973270  -0.165693
    C   C67   0.462049  0.269563  0.973271  -0.165582
    C   C68   0.730437  0.462057  0.973271  -0.165451
    C   C69   0.979496  0.271735  0.471636  0.029088
    C   C70   0.728265  0.979481  0.471636  0.029468
    C   C71   0.020520  0.728250  0.471636  0.029815
    C   C72   0.271750  0.020506  0.471636  0.029398
    C   C73   0.479483  0.771747  0.971636  0.029571
    C   C74   0.228253  0.479491  0.971636  0.029537
    C   C75   0.520507  0.228262  0.971636  0.029423
    C   C76   0.771737  0.520516  0.971637  0.029405
    C   C77   0.945691  0.228572  0.492588  -0.149248
    C   C78   0.771428  0.945677  0.492589  -0.149514
    C   C79   0.054324  0.771413  0.492589  -0.150073
    C   C80   0.228587  0.054309  0.492589  -0.149492
    C   C81   0.445679  0.728584  0.992589  -0.149873
    C   C82   0.271416  0.445688  0.992589  -0.149540
    C   C83   0.554311  0.271425  0.992589  -0.149752
    C   C84   0.728575  0.554320  0.992589  -0.149426
    C   C85   0.004115  0.188480  0.494255  0.225439
    C   C86   0.811520  0.004101  0.494255  0.225382
    C   C87   0.995900  0.811506  0.494255  0.225742
    C   C88   0.188495  0.995885  0.494255  0.225323
    C   C89   0.504103  0.688492  0.994255  0.225492
    C   C90   0.311508  0.504113  0.994254  0.225320
    C   C91   0.495887  0.311517  0.994255  0.225818
    C   C92   0.688482  0.495896  0.994255  0.225253
    H   H17   0.111363  0.287092  0.500591  0.045668
    H   H18   0.712908  0.111349  0.500591  0.045696
    H   H19   0.888651  0.712893  0.500590  0.045597
    H   H20   0.287107  0.888637  0.500591  0.045650
    H   H21   0.611352  0.787104  0.000591  0.045619
    H   H22   0.212895  0.611361  0.000589  0.045628
    H   H23   0.388639  0.212905  0.000591  0.045616
    H   H24   0.787094  0.388648  0.000592  0.045703
    H   H25   0.065996  0.213552  0.454796  0.072815
    H   H26   0.786448  0.065981  0.454796  0.072859
    H   H27   0.934021  0.786433  0.454795  0.072909
    H   H28   0.213567  0.934006  0.454796  0.072857
    H   H29   0.565983  0.713564  0.954796  0.072860
    H   H30   0.286435  0.565991  0.954795  0.072898
    H   H31   0.434008  0.286445  0.954796  0.072849
    H   H32   0.713555  0.434015  0.954797  0.072862
    H   H33   0.959159  0.292099  0.451845  0.036792
    H   H34   0.707902  0.959144  0.451845  0.036736
    H   H35   0.040858  0.707887  0.451846  0.036675
    H   H36   0.292113  0.040843  0.451845  0.036744
    H   H37   0.459146  0.792110  0.951845  0.036727
    H   H38   0.207889  0.459153  0.951845  0.036721
    H   H39   0.540845  0.207899  0.951845  0.036753
    H   H40   0.792101  0.540852  0.951846  0.036737
    H   H41   0.897138  0.210169  0.490350  0.083248
    H   H42   0.789831  0.897123  0.490350  0.083325
    H   H43   0.102878  0.789817  0.490351  0.083342
    H   H44   0.210183  0.102863  0.490351  0.083244
    H   H45   0.397125  0.710181  0.990350  0.083311
    H   H46   0.289819  0.397135  0.990351  0.083240
    H   H47   0.602865  0.289829  0.990351  0.083312
    H   H48   0.710171  0.602874  0.990350  0.083306
    C   C93   0.514558  0.945768  0.396793  0.004932
    C   C94   0.054236  0.514547  0.396794  0.005018
    C   C95   0.485454  0.054220  0.396794  0.005069
    C   C96   0.945783  0.485444  0.396793  0.005161
    C   C97   0.014545  0.445776  0.896794  0.005057
    C   C98   0.554222  0.014555  0.896794  0.005089
    C   C99   0.985442  0.554228  0.896793  0.004993
    C   C100  0.445770  0.985452  0.896793  0.004914
    H   H49   0.526601  0.902907  0.407939  0.102758
    H   H50   0.097097  0.526590  0.407940  0.102731
    H   H51   0.473411  0.097081  0.407940  0.102721
    H   H52   0.902922  0.473400  0.407939  0.102693
    H   H53   0.026588  0.402915  0.907940  0.102738
    H   H54   0.597083  0.026598  0.907940  0.102714
    H   H55   0.973399  0.597089  0.907939  0.102755
    H   H56   0.402909  0.973409  0.907939  0.102771
    O   O17   0.946017  0.496006  0.539670  -0.615312
    O   O18   0.503994  0.946004  0.539671  -0.615248
    O   O19   0.053996  0.503979  0.539671  -0.615206
    O   O20   0.496021  0.053983  0.539671  -0.615298
    O   O21   0.446005  0.996018  0.039671  -0.615138
    O   O22   0.003983  0.446015  0.039671  -0.615225
    O   O23   0.553985  0.003991  0.039671  -0.615280
    O   O24   0.996009  0.553995  0.039670  -0.615243
    C   C101  0.000006  0.499993  0.553115  0.599223
    C   C102  0.500008  0.999993  0.553115  0.599224
    C   C103  0.499995  0.000004  0.053115  0.599103
    C   C104  0.999996  0.500005  0.053115  0.599037
    O   O25   0.947620  0.407161  0.496931  -0.575893
    O   O26   0.592840  0.947606  0.496931  -0.576094
    O   O27   0.052395  0.592825  0.496931  -0.576106
    O   O28   0.407175  0.052381  0.496931  -0.576058
    O   O29   0.447608  0.907172  0.996931  -0.576144
    O   O30   0.092827  0.447617  0.996931  -0.576154
    O   O31   0.552383  0.092837  0.996931  -0.575914
    O   O32   0.907163  0.552392  0.996931  -0.576078
    O   O33   0.056033  0.409923  0.496952  -0.624904
    O   O34   0.590077  0.056019  0.496952  -0.624992
    O   O35   0.943982  0.590062  0.496952  -0.625056
    O   O36   0.409938  0.943968  0.496952  -0.625020
    O   O37   0.556020  0.909935  0.996952  -0.625070
    O   O38   0.090064  0.556030  0.996952  -0.625025
    O   O39   0.443970  0.090074  0.996952  -0.624884
    O   O40   0.909925  0.443979  0.996953  -0.624998
    C   C105  0.002558  0.379315  0.497912  0.626429
    C   C106  0.620686  0.002544  0.497912  0.626592
    C   C107  0.997457  0.620671  0.497913  0.627000
    C   C108  0.379329  0.997443  0.497912  0.626787
    C   C109  0.502546  0.879326  0.997912  0.627097
    C   C110  0.120673  0.502555  0.997912  0.626931
    C   C111  0.497444  0.120683  0.997912  0.626505
    C   C112  0.879317  0.497453  0.997913  0.626621
    Cu  Cu5   0.937338  0.498384  0.498067  1.017295
    Cu  Cu6   0.501616  0.937324  0.498067  1.017140
    Cu  Cu7   0.062677  0.501602  0.498068  1.017159
    Cu  Cu8   0.498399  0.062663  0.498067  1.017168
    Cu  Cu9   0.437326  0.998396  0.998067  1.017110
    Cu  Cu10  0.001604  0.437335  0.998068  1.017154
    Cu  Cu11  0.562665  0.001613  0.998067  1.017260
    Cu  Cu12  0.998386  0.562674  0.998067  1.017184
    O   O41   0.945850  0.496014  0.456460  -0.598311
    O   O42   0.503986  0.945835  0.456460  -0.598179
    O   O43   0.054167  0.503972  0.456460  -0.598211
    O   O44   0.496028  0.054153  0.456460  -0.598202
    O   O45   0.445836  0.996026  0.956460  -0.598196
    O   O46   0.003973  0.445844  0.956460  -0.598206
    O   O47   0.554154  0.003984  0.956460  -0.598304
    O   O48   0.996015  0.554162  0.956460  -0.598221
    C   C113  0.000009  0.499993  0.443067  0.680768
    C   C114  0.500007  0.999994  0.443067  0.680634
    C   C115  0.499996  0.000005  0.943067  0.680714
    C   C116  0.999994  0.500003  0.943067  0.680668
    C   C117  0.537285  0.040611  0.307502  0.478439
    C   C118  0.959394  0.537285  0.307503  0.478478
    C   C119  0.462720  0.959381  0.307502  0.478749
    C   C120  0.040625  0.462719  0.307501  0.478997
    C   C121  0.037278  0.540615  0.807502  0.478753
    C   C122  0.459384  0.037282  0.807501  0.478759
    C   C123  0.962713  0.459384  0.807502  0.478355
    C   C124  0.540614  0.962716  0.807503  0.478373
    N   N1    0.500003  0.999996  0.321832  -0.191861
    N   N2    0.000010  0.500001  0.321832  -0.192034
    N   N3    0.999995  0.500000  0.821832  -0.191882
    N   N4    0.499998  0.000000  0.821832  -0.191865
    C   C125  0.462632  0.958479  0.277913  -0.131013
    C   C126  0.041527  0.462635  0.277912  -0.131132
    C   C127  0.537370  0.041516  0.277913  -0.130781
    C   C128  0.958490  0.537372  0.277914  -0.130899
    C   C129  0.962628  0.458480  0.777913  -0.130783
    C   C130  0.541518  0.962629  0.777914  -0.130800
    C   C131  0.037366  0.541517  0.777913  -0.131057
    C   C132  0.458481  0.037367  0.777912  -0.131030
    C   C133  0.500000  0.999998  0.263079  0.101728
    C   C134  0.000008  0.500004  0.263079  0.101867
    C   C135  0.999998  0.499998  0.763079  0.101758
    C   C136  0.500000  0.999998  0.763079  0.101743
    C   C137  0.425203  0.916573  0.263053  -0.042103
    C   C138  0.083433  0.425207  0.263052  -0.042213
    C   C139  0.574797  0.083423  0.263053  -0.042120
    C   C140  0.916583  0.574801  0.263054  -0.042088
    C   C141  0.925200  0.416573  0.763053  -0.042151
    C   C142  0.583425  0.925200  0.763054  -0.042144
    C   C143  0.074795  0.583423  0.763053  -0.042097
    C   C144  0.416576  0.074795  0.763052  -0.042108
    C   C145  0.925596  0.416264  0.733568  -0.049798
    C   C146  0.583734  0.925593  0.733569  -0.049736
    C   C147  0.074403  0.583729  0.733568  -0.049771
    C   C148  0.416269  0.074400  0.733567  -0.049753
    C   C149  0.425595  0.916267  0.233568  -0.049714
    C   C150  0.083740  0.425602  0.233567  -0.049752
    C   C151  0.574402  0.083733  0.233568  -0.049764
    C   C152  0.916274  0.574408  0.233569  -0.049738
    C   C153  0.963011  0.458235  0.718714  -0.169695
    C   C154  0.541763  0.963007  0.718715  -0.169797
    C   C155  0.036989  0.541757  0.718714  -0.169681
    C   C156  0.458241  0.036985  0.718714  -0.169686
    C   C157  0.463009  0.958239  0.218714  -0.169705
    C   C158  0.041767  0.463017  0.218714  -0.169647
    C   C159  0.536986  0.041761  0.218714  -0.169730
    C   C160  0.958245  0.536994  0.218715  -0.169770
    C   C161  0.999999  0.499997  0.733555  0.149637
    C   C162  0.500001  0.999997  0.733555  0.149685
    C   C163  0.499999  0.000000  0.233555  0.149683
    C   C164  0.000007  0.500005  0.233555  0.149653
    C   C165  0.963861  0.458405  0.689124  0.484127
    C   C166  0.541593  0.963854  0.689125  0.484306
    C   C167  0.036142  0.541585  0.689124  0.484183
    C   C168  0.458413  0.036136  0.689123  0.484179
    C   C169  0.463856  0.958411  0.189124  0.484232
    C   C170  0.041595  0.463866  0.189123  0.484226
    C   C171  0.536137  0.041592  0.189124  0.484272
    C   C172  0.958415  0.536147  0.189125  0.484337
    N   N5    0.000002  0.499995  0.674667  -0.210945
    N   N6    0.500004  0.999995  0.674667  -0.210985
    N   N7    0.499996  0.000002  0.174667  -0.211033
    N   N8    0.000004  0.500007  0.174667  -0.211014
    O   O49   0.575583  0.079379  0.322071  -0.505003
    O   O50   0.920626  0.575581  0.322073  -0.504956
    O   O51   0.424423  0.920612  0.322072  -0.505065
    O   O52   0.079393  0.424421  0.322070  -0.505099
    O   O53   0.075576  0.579383  0.822072  -0.505093
    O   O54   0.420615  0.075581  0.822070  -0.505092
    O   O55   0.924414  0.420617  0.822071  -0.504991
    O   O56   0.579381  0.924419  0.822073  -0.504978
    H   H57   0.395411  0.883389  0.274130  0.132308
    H   H58   0.116617  0.395414  0.274128  0.132357
    H   H59   0.604590  0.116606  0.274130  0.132312
    H   H60   0.883400  0.604593  0.274132  0.132290
    H   H61   0.895407  0.383390  0.774130  0.132320
    H   H62   0.616608  0.895408  0.774131  0.132313
    H   H63   0.104587  0.616606  0.774130  0.132303
    H   H64   0.383392  0.104588  0.774128  0.132314
    H   H65   0.895997  0.382890  0.722501  0.116623
    H   H66   0.617108  0.895994  0.722503  0.116624
    H   H67   0.104002  0.617102  0.722502  0.116612
    H   H68   0.382896  0.103999  0.722500  0.116617
    H   H69   0.395996  0.882894  0.222502  0.116602
    H   H70   0.117113  0.396003  0.222500  0.116640
    H   H71   0.604000  0.117107  0.222501  0.116621
    H   H72   0.882900  0.604008  0.222503  0.116622
    O   O57   0.929527  0.415825  0.674766  -0.483849
    O   O58   0.584173  0.929520  0.674767  -0.483892
    O   O59   0.070477  0.584163  0.674766  -0.483885
    O   O60   0.415835  0.070470  0.674765  -0.483861
    O   O61   0.429521  0.915833  0.174766  -0.483859
    O   O62   0.084173  0.429532  0.174765  -0.483855
    O   O63   0.570470  0.084172  0.174766  -0.483869
    O   O64   0.915834  0.570481  0.174768  -0.483885
    C   C173  0.055955  0.496855  0.628972  -0.220396
    C   C174  0.503145  0.055946  0.628971  -0.220262
    C   C175  0.944052  0.503132  0.628971  -0.220250
    C   C176  0.496867  0.944042  0.628972  -0.220002
    C   C177  0.555947  0.996864  0.128971  -0.220323
    C   C178  0.003139  0.555958  0.128971  -0.219989
    C   C179  0.444043  0.003141  0.128972  -0.220286
    C   C180  0.996862  0.444054  0.128972  -0.220205
    H   H73   0.100206  0.492947  0.640209  0.122788
    H   H74   0.507053  0.100197  0.640208  0.122741
    H   H75   0.899801  0.507041  0.640207  0.122734
    H   H76   0.492959  0.899792  0.640208  0.122618
    H   H77   0.600198  0.992956  0.140208  0.122752
    H   H78   0.007048  0.600209  0.140208  0.122639
    H   H79   0.399793  0.007049  0.140208  0.122755
    H   H80   0.992955  0.399804  0.140208  0.122741
    C   C181  0.056037  0.497885  0.599462  0.061628
    C   C182  0.502115  0.056026  0.599462  0.061602
    C   C183  0.943972  0.502101  0.599461  0.061628
    C   C184  0.497898  0.943961  0.599462  0.061406
    C   C185  0.556027  0.997895  0.099462  0.061666
    C   C186  0.002107  0.556038  0.099462  0.061333
    C   C187  0.443963  0.002111  0.099462  0.061591
    C   C188  0.997891  0.443974  0.099462  0.061494
    H   H81   0.100509  0.495550  0.588338  0.082103
    H   H82   0.504450  0.100498  0.588337  0.082090
    H   H83   0.899501  0.504435  0.588336  0.082083
    H   H84   0.495565  0.899489  0.588337  0.082149
    H   H85   0.600499  0.995562  0.088337  0.082066
    H   H86   0.004440  0.600510  0.088337  0.082152
    H   H87   0.399491  0.004446  0.088337  0.082080
    H   H88   0.995556  0.399502  0.088337  0.082099
    C   C189  0.000005  0.499993  0.584512  -0.028151
    C   C190  0.500007  0.999993  0.584512  -0.028035
    C   C191  0.499995  0.000004  0.084512  -0.028049
    C   C192  0.999998  0.500006  0.084512  -0.027812
    C   C193  0.930932  0.287024  0.541870  0.459494
    O   O65   0.874096  0.281198  0.539715  -0.488105
    C   C194  0.957978  0.307191  0.569421  -0.115823
    C   C195  0.920770  0.305500  0.593693  -0.065267
    C   C196  0.945665  0.320705  0.620010  -0.118532
    C   C197  0.007748  0.338264  0.622327  -0.018410
    C   C198  0.044779  0.341287  0.598212  -0.170414
    C   C199  0.020060  0.326243  0.571827  -0.035838
    H   H89   0.872200  0.290780  0.592544  0.119506
    H   H90   0.916455  0.318082  0.638888  0.114518
    H   H91   0.027307  0.350020  0.642998  0.076850
    H   H92   0.093357  0.355747  0.599955  0.097448
    H   H93   0.050190  0.330005  0.553373  0.087804
    C   C200  0.712976  0.930919  0.541870  0.459864
    O   O66   0.718802  0.874082  0.539716  -0.488130
    C   C201  0.692809  0.957965  0.569422  -0.116171
    C   C202  0.694499  0.920757  0.593693  -0.064993
    C   C203  0.679293  0.945653  0.620010  -0.118670
    C   C204  0.661735  0.007737  0.622327  -0.018324
    C   C205  0.658712  0.044767  0.598212  -0.170617
    C   C206  0.673757  0.020047  0.571827  -0.035593
    H   H94   0.709218  0.872188  0.592545  0.119396
    H   H95   0.681915  0.916444  0.638888  0.114557
    H   H96   0.649978  0.027296  0.642998  0.076828
    H   H97   0.644254  0.093345  0.599955  0.097517
    H   H98   0.669997  0.050178  0.553372  0.087758
    C   C207  0.069080  0.712962  0.541871  0.458945
    O   O67   0.125917  0.718787  0.539717  -0.488016
    C   C208  0.042032  0.692796  0.569422  -0.116108
    C   C209  0.079238  0.694489  0.593695  -0.065098
    C   C210  0.054341  0.679284  0.620011  -0.118376
    C   C211  0.992258  0.661724  0.622327  -0.018118
    C   C212  0.955229  0.658699  0.598212  -0.170532
    C   C213  0.979950  0.673742  0.571827  -0.035910
    H   H99   0.127808  0.709209  0.592546  0.119468
    H   H100  0.083549  0.681908  0.638890  0.114410
    H   H101  0.972698  0.649968  0.642998  0.076697
    H   H102  0.906651  0.644239  0.599954  0.097489
    H   H103  0.949821  0.669980  0.553372  0.087810
    C   C214  0.287038  0.069066  0.541870  0.459241
    O   O68   0.281213  0.125903  0.539716  -0.488089
    C   C215  0.307203  0.042019  0.569422  -0.115599
    C   C216  0.305510  0.079226  0.593694  -0.065322
    C   C217  0.320714  0.054329  0.620011  -0.118399
    C   C218  0.338274  0.992246  0.622327  -0.018511
    C   C219  0.341301  0.955217  0.598212  -0.170274
    C   C220  0.326258  0.979938  0.571827  -0.036341
    H   H104  0.290789  0.127795  0.592546  0.119508
    H   H105  0.318089  0.083537  0.638889  0.114483
    H   H106  0.350030  0.972686  0.642998  0.076858
    H   H107  0.355761  0.906640  0.599954  0.097480
    H   H108  0.330021  0.949809  0.553372  0.087935
    C   C221  0.430922  0.787035  0.041870  0.458922
    O   O69   0.374085  0.781210  0.039716  -0.488002
    C   C222  0.457969  0.807201  0.069422  -0.116218
    C   C223  0.420761  0.805509  0.093694  -0.064778
    C   C224  0.445658  0.820713  0.120011  -0.118714
    C   C225  0.507741  0.838272  0.122327  -0.018247
    C   C226  0.544770  0.841298  0.098212  -0.170608
    C   C227  0.520050  0.826255  0.071827  -0.035764
    H   H109  0.372192  0.790789  0.092545  0.119394
    H   H110  0.416449  0.818089  0.138889  0.114533
    H   H111  0.527301  0.850028  0.142998  0.076824
    H   H112  0.593348  0.855758  0.099954  0.097509
    H   H113  0.550180  0.830017  0.053372  0.087792
    C   C228  0.212964  0.430933  0.041870  0.459333
    O   O70   0.218788  0.374096  0.039717  -0.488084
    C   C229  0.192800  0.457981  0.069422  -0.115820
    C   C230  0.194496  0.420776  0.093694  -0.065252
    C   C231  0.179294  0.445674  0.120011  -0.118454
    C   C232  0.161733  0.507757  0.122327  -0.018513
    C   C233  0.158704  0.544784  0.098212  -0.170347
    C   C234  0.173746  0.520063  0.071826  -0.035972
    H   H114  0.209217  0.372207  0.092546  0.119500
    H   H115  0.181920  0.416467  0.138890  0.114490
    H   H116  0.149978  0.527318  0.142998  0.076880
    H   H117  0.144243  0.593362  0.099953  0.097459
    H   H118  0.169981  0.550191  0.053371  0.087809
    C   C235  0.569068  0.212974  0.041871  0.459253
    O   O71   0.625905  0.218800  0.039716  -0.488108
    C   C236  0.542021  0.192807  0.069422  -0.115811
    C   C237  0.579228  0.194498  0.093694  -0.065253
    C   C238  0.554332  0.179293  0.120011  -0.118532
    C   C239  0.492249  0.161733  0.122327  -0.018420
    C   C240  0.455219  0.158709  0.098212  -0.170408
    C   C241  0.479939  0.173753  0.071827  -0.035889
    H   H119  0.627798  0.209218  0.092546  0.119516
    H   H120  0.583540  0.181916  0.138889  0.114524
    H   H121  0.472689  0.149976  0.142998  0.076856
    H   H122  0.406641  0.144249  0.099954  0.097453
    H   H123  0.449810  0.169992  0.053372  0.087810
    C   C242  0.787026  0.569079  0.041870  0.459866
    O   O72   0.781199  0.625916  0.039716  -0.488140
    C   C243  0.807195  0.542034  0.069422  -0.116180
    C   C244  0.805507  0.579242  0.093693  -0.064960
    C   C245  0.820714  0.554348  0.120010  -0.118724
    C   C246  0.838272  0.492264  0.122327  -0.018254
    C   C247  0.841293  0.455233  0.098213  -0.170703
    C   C248  0.826247  0.479952  0.071827  -0.035564
    H   H124  0.790788  0.627812  0.092545  0.119388
    H   H125  0.818093  0.583558  0.138888  0.114574
    H   H126  0.850030  0.472705  0.142998  0.076819
    H   H127  0.855752  0.406655  0.099955  0.097536
    H   H128  0.830006  0.449821  0.053373  0.087760
