# Generated by REPEAT Assigner based on pymatgen
data_DB0-m3_o14_o26_f0_pcu.sym.44
_audit_creation_date              2022-05-24
_audit_creation_method            REPEAT_Assigner
_cell_length_a                    9.817029
_cell_length_b                    10.998070
_cell_length_c                    17.477912
_cell_angle_alpha                 90.006683
_cell_angle_beta                  86.234295
_cell_angle_gamma                 90.000209
_cell_volume                      1882.987454
_symmetry_space_group_name_H-M    P1
_symmetry_Int_Tables_number       1
loop_
    _symmetry_equiv_pos_site_id
    _symmetry_equiv_pos_as_xyz
    1  x,y,z
loop_
    _atom_site_type_symbol
    _atom_site_label
    _atom_site_fract_x
    _atom_site_fract_y
    _atom_site_fract_z
    _atom_type_partial_charge
    O   O1   0.379409  0.678001  0.494756  -0.561395
    O   O2   0.610888  0.681254  0.492041  -0.674016
    C   C1   0.493409  0.738059  0.490525  0.722379
    O   O3   0.366446  0.502162  0.614362  -0.669529
    O   O4   0.598844  0.506932  0.613048  -0.663818
    C   C2   0.479085  0.506643  0.649881  0.687282
    Zn  Zn1  0.340441  0.497579  0.500256  0.984932
    Zn  Zn2  0.650080  0.500370  0.498933  1.066225
    O   O5   0.377759  0.316835  0.503592  -0.568243
    O   O6   0.613861  0.318666  0.503976  -0.662781
    O   O7   0.389593  0.489419  0.385961  -0.650639
    O   O8   0.626159  0.490032  0.384750  -0.647121
    C   C3   0.495380  0.260419  0.507136  0.767262
    C   C4   0.511402  0.487463  0.349611  0.667107
    C   C5   0.471430  0.509168  0.733978  -0.050906
    C   C6   0.589599  0.512739  0.772776  -0.113902
    C   C7   0.583278  0.513651  0.851823  -0.190524
    C   C8   0.458137  0.510194  0.893327  0.262657
    C   C9   0.340271  0.509155  0.854310  -0.268863
    C   C10  0.346530  0.507955  0.775256  -0.032669
    C   C11  0.407160  0.477132  0.147688  -0.219943
    C   C12  0.400880  0.479239  0.226719  -0.090440
    C   C13  0.643980  0.482788  0.224176  -0.060289
    C   C14  0.650164  0.480497  0.145125  -0.251465
    C   C15  0.532272  0.479600  0.106132  0.277581
    C   C16  0.444873  0.511811  0.977877  -0.223543
    C   C17  0.545432  0.477577  0.021573  -0.231800
    C   C18  0.519086  0.482926  0.265510  -0.043489
    H   H1   0.688657  0.515390  0.741986  0.111509
    H   H2   0.301740  0.477533  0.257441  0.110192
    H   H3   0.738158  0.484987  0.252855  0.100500
    H   H4   0.642475  0.447810  0.995309  0.130795
    H   H5   0.241711  0.507821  0.885754  0.135993
    H   H6   0.312417  0.470863  0.120011  0.131361
    H   H7   0.252455  0.505861  0.746472  0.082673
    H   H8   0.347813  0.541577  0.004105  0.131572
    H   H9   0.677937  0.520000  0.879583  0.130124
    H   H10  0.748711  0.481073  0.113657  0.129232
    H   H11  0.706195  0.889650  0.473762  0.082236
    C   C19  0.237958  0.890510  0.489174  -0.125026
    H   H12  0.223904  0.809726  0.455970  0.087545
    C   C20  0.120834  0.949369  0.515743  -0.204775
    H   H13  0.022347  0.909239  0.507674  0.130716
    C   C21  0.129710  0.056339  0.555015  0.044402
    H   H14  0.038640  0.099320  0.580481  0.049630
    C   C22  0.254249  0.112223  0.558020  -0.355050
    H   H15  0.257104  0.195246  0.590678  0.154320
    C   C23  0.371618  0.060350  0.522727  0.288454
    C   C24  0.366288  0.939546  0.500102  0.104458
    C   C25  0.488435  0.873328  0.488576  -0.197167
    C   C26  0.610354  0.936848  0.484583  -0.033547
    H   H16  0.708324  0.109045  0.481673  0.092034
    C   C27  0.612070  0.061951  0.490983  -0.084040
    C   C28  0.493412  0.125571  0.510398  -0.271881
    H   H17  0.879730  0.366052  0.417304  0.158684
    C   C29  0.846500  0.661230  0.595795  -0.444832
    H   H18  0.738932  0.669727  0.596543  0.240257
    C   C30  0.908448  0.734309  0.647068  0.347758
    C   C31  0.048102  0.732689  0.647234  -0.071726
    H   H19  0.103711  0.791097  0.683779  0.095008
    C   C32  0.121963  0.657314  0.597740  -0.217255
    H   H20  0.229197  0.664296  0.600063  0.175340
    C   C33  0.060388  0.577958  0.548602  0.177080
    C   C34  0.919248  0.580168  0.547472  0.227618
    N   N1   0.854329  0.504361  0.500296  -0.125531
    C   C35  0.929686  0.427380  0.454850  -0.057952
    H   H21  0.129144  0.363479  0.418544  0.119863
    C   C36  0.070842  0.425579  0.455766  0.011448
    N   N2   0.135868  0.500354  0.502419  -0.118196
    N   N3   0.825763  0.808353  0.697854  -0.236687
    C   C37  0.766730  0.909873  0.659987  0.023030
    C   C38  0.883433  0.841797  0.768646  -0.191977
    H   H22  0.816280  0.920016  0.601568  0.056415
    H   H23  0.781833  0.994847  0.692514  0.047329
    H   H24  0.655776  0.894110  0.656318  0.021400
    H   H25  0.926898  0.760305  0.795443  0.078046
    H   H26  0.801680  0.878823  0.808908  0.108132
    H   H27  0.963091  0.912583  0.758460  0.060437
