# Generated by REPEAT Assigner based on pymatgen
data_DB0-m2_o2_o15_f0_nbo.sym.10
_audit_creation_date              2022-05-24
_audit_creation_method            REPEAT_Assigner
_cell_length_a                    30.293184
_cell_length_b                    30.293184
_cell_length_c                    21.807938
_cell_angle_alpha                 90.000000
_cell_angle_beta                  90.000000
_cell_angle_gamma                 90.000000
_cell_volume                      20012.643510
_symmetry_space_group_name_H-M    P1
_symmetry_Int_Tables_number       1
loop_
    _symmetry_equiv_pos_site_id
    _symmetry_equiv_pos_as_xyz
    1  x,y,z
loop_
    _atom_site_type_symbol
    _atom_site_label
    _atom_site_fract_x
    _atom_site_fract_y
    _atom_site_fract_z
    _atom_type_partial_charge
    O   O1    0.463766  0.063106  0.016223  -0.440834
    O   O2    0.063105  0.536235  0.016223  -0.440837
    O   O3    0.536235  0.936895  0.016223  -0.440931
    O   O4    0.936895  0.463766  0.016223  -0.440888
    O   O5    0.536235  0.063106  0.983777  -0.440838
    O   O6    0.936895  0.536235  0.983777  -0.440929
    O   O7    0.463766  0.936895  0.983777  -0.440874
    O   O8    0.063105  0.463766  0.983777  -0.440842
    O   O9    0.963766  0.563106  0.516223  -0.440869
    O   O10   0.563106  0.036235  0.516223  -0.440871
    O   O11   0.036234  0.436895  0.516223  -0.440843
    O   O12   0.436895  0.963766  0.516223  -0.440847
    O   O13   0.036234  0.563106  0.483777  -0.440848
    O   O14   0.436895  0.036235  0.483777  -0.440863
    O   O15   0.963766  0.436895  0.483777  -0.440853
    O   O16   0.563106  0.963766  0.483777  -0.440866
    C   C1    0.500000  0.084656  0.000000  0.514178
    C   C2    0.084656  0.500000  0.000000  0.514186
    C   C3    0.500000  0.915344  0.000000  0.514423
    C   C4    0.915344  0.500000  0.000000  0.514428
    C   C5    0.000000  0.584656  0.500000  0.514217
    C   C6    0.584656  0.000000  0.500000  0.514229
    C   C7    0.000000  0.415344  0.500000  0.514177
    C   C8    0.415344  0.000000  0.500000  0.514176
    O   O17   0.463711  0.988061  0.087616  -0.665134
    O   O18   0.988060  0.536290  0.087616  -0.665099
    O   O19   0.536290  0.011940  0.087616  -0.665136
    O   O20   0.011940  0.463711  0.087616  -0.665086
    O   O21   0.536290  0.988061  0.912384  -0.665104
    O   O22   0.011940  0.536290  0.912384  -0.665129
    O   O23   0.463711  0.011940  0.912384  -0.665077
    O   O24   0.988060  0.463711  0.912384  -0.665141
    O   O25   0.963710  0.488061  0.587616  -0.665125
    O   O26   0.488061  0.036290  0.587616  -0.665139
    O   O27   0.036290  0.511940  0.587616  -0.665111
    O   O28   0.511940  0.963711  0.587616  -0.665117
    O   O29   0.036290  0.488061  0.412384  -0.665100
    O   O30   0.511940  0.036290  0.412384  -0.665125
    O   O31   0.963710  0.511940  0.412384  -0.665100
    O   O32   0.488061  0.963711  0.412384  -0.665120
    C   C9    0.500000  0.000000  0.117049  0.946959
    C   C10   0.000000  0.500000  0.117049  0.946826
    C   C11   0.500000  0.000000  0.882952  0.946799
    C   C12   0.000000  0.500000  0.882951  0.946909
    C   C13   0.000000  0.500000  0.617049  0.946946
    C   C14   0.500000  0.000000  0.617049  0.946933
    C   C15   0.000000  0.500000  0.382951  0.946876
    C   C16   0.500000  0.000000  0.382951  0.946946
    Cu  Cu1   0.456997  0.000000  0.000000  0.869738
    Cu  Cu2   0.000000  0.543003  0.000000  0.869786
    Cu  Cu3   0.543003  0.000000  0.000000  0.869760
    Cu  Cu4   0.000000  0.456997  0.000000  0.869683
    Cu  Cu5   0.956997  0.500000  0.500000  0.869703
    Cu  Cu6   0.500000  0.043003  0.500000  0.869650
    Cu  Cu7   0.043003  0.500000  0.500000  0.869661
    Cu  Cu8   0.500000  0.956997  0.500000  0.869735
    H   H1    0.387139  0.098920  0.195823  0.117061
    H   H2    0.098920  0.612861  0.195823  0.117074
    H   H3    0.612861  0.901080  0.195823  0.117062
    H   H4    0.901080  0.387140  0.195823  0.117076
    H   H5    0.612861  0.098920  0.804177  0.117071
    H   H6    0.901080  0.612861  0.804177  0.117063
    H   H7    0.387139  0.901080  0.804177  0.117080
    H   H8    0.098920  0.387139  0.804177  0.117069
    H   H9    0.887139  0.598920  0.695823  0.117050
    H   H10   0.598920  0.112861  0.695823  0.117064
    H   H11   0.112861  0.401080  0.695823  0.117072
    H   H12   0.401080  0.887139  0.695823  0.117069
    H   H13   0.112861  0.598920  0.304177  0.117063
    H   H14   0.401080  0.112861  0.304177  0.117070
    H   H15   0.887139  0.401080  0.304177  0.117073
    H   H16   0.598920  0.887139  0.304177  0.117053
    C   C17   0.562612  0.950066  0.188603  -0.215619
    C   C18   0.950066  0.437388  0.188603  -0.215815
    C   C19   0.437388  0.049934  0.188603  -0.215815
    C   C20   0.049934  0.562612  0.188603  -0.215827
    C   C21   0.437388  0.950066  0.811397  -0.215791
    C   C22   0.049934  0.437388  0.811397  -0.215777
    C   C23   0.562612  0.049934  0.811397  -0.215815
    C   C24   0.950066  0.562612  0.811397  -0.215585
    C   C25   0.062612  0.450066  0.688603  -0.215855
    C   C26   0.450066  0.937388  0.688603  -0.215824
    C   C27   0.937388  0.549934  0.688603  -0.216141
    C   C28   0.549934  0.062612  0.688603  -0.215862
    C   C29   0.937388  0.450066  0.311397  -0.215831
    C   C30   0.549934  0.937388  0.311397  -0.216119
    C   C31   0.062612  0.549934  0.311397  -0.215862
    C   C32   0.450066  0.062612  0.311397  -0.215850
    C   C33   0.587841  0.919801  0.219635  -0.103540
    C   C34   0.919801  0.412159  0.219635  -0.103435
    C   C35   0.412159  0.080199  0.219635  -0.103420
    C   C36   0.080199  0.587841  0.219635  -0.103445
    C   C37   0.412159  0.919801  0.780365  -0.103446
    C   C38   0.080199  0.412159  0.780365  -0.103430
    C   C39   0.587841  0.080199  0.780365  -0.103446
    C   C40   0.919801  0.587841  0.780365  -0.103553
    C   C41   0.087841  0.419801  0.719635  -0.103435
    C   C42   0.419801  0.912159  0.719635  -0.103431
    C   C43   0.912159  0.580199  0.719635  -0.103263
    C   C44   0.580199  0.087841  0.719635  -0.103415
    C   C45   0.912159  0.419801  0.280365  -0.103433
    C   C46   0.580199  0.912159  0.280365  -0.103270
    C   C47   0.087841  0.580199  0.280365  -0.103409
    C   C48   0.419801  0.087841  0.280365  -0.103432
    C   C49   0.526025  0.970186  0.281698  0.197492
    C   C50   0.970186  0.473975  0.281698  0.197092
    C   C51   0.473975  0.029814  0.281698  0.197191
    C   C52   0.029814  0.526025  0.281698  0.197090
    C   C53   0.473975  0.970186  0.718302  0.197088
    C   C54   0.029814  0.473975  0.718302  0.197214
    C   C55   0.526025  0.029814  0.718302  0.197096
    C   C56   0.970186  0.526025  0.718302  0.197526
    C   C57   0.026025  0.470186  0.781698  0.196893
    C   C58   0.470186  0.973975  0.781698  0.197017
    C   C59   0.973975  0.529814  0.781698  0.196687
    C   C60   0.529814  0.026025  0.781698  0.197042
    C   C61   0.973975  0.470186  0.218302  0.197036
    C   C62   0.529814  0.973975  0.218302  0.196734
    C   C63   0.026025  0.529814  0.218302  0.197056
    C   C64   0.470186  0.026025  0.218302  0.196946
    C   C65   0.500000  0.000000  0.314560  -0.395084
    C   C66   0.000000  0.500000  0.314560  -0.394894
    C   C67   0.500000  0.000000  0.685440  -0.394896
    C   C68   0.000000  0.500000  0.685440  -0.395105
    C   C69   0.000000  0.500000  0.814560  -0.394692
    C   C70   0.500000  0.000000  0.814560  -0.394799
    C   C71   0.000000  0.500000  0.185440  -0.394835
    C   C72   0.500000  0.000000  0.185440  -0.394747
    H   H17   0.569858  0.953976  0.140776  0.160659
    H   H18   0.953976  0.430142  0.140776  0.160689
    H   H19   0.430142  0.046024  0.140776  0.160702
    H   H20   0.046024  0.569859  0.140776  0.160715
    H   H21   0.430142  0.953976  0.859224  0.160680
    H   H22   0.046024  0.430142  0.859224  0.160689
    H   H23   0.569859  0.046024  0.859224  0.160709
    H   H24   0.953976  0.569859  0.859224  0.160645
    H   H25   0.069858  0.453976  0.640776  0.160706
    H   H26   0.453976  0.930142  0.640776  0.160686
    H   H27   0.930142  0.546024  0.640776  0.160776
    H   H28   0.546024  0.069859  0.640776  0.160719
    H   H29   0.930142  0.453976  0.359224  0.160694
    H   H30   0.546024  0.930142  0.359224  0.160763
    H   H31   0.069858  0.546024  0.359224  0.160719
    H   H32   0.453976  0.069858  0.359224  0.160705
    C   C73   0.528536  0.204520  0.963217  -0.204594
    C   C74   0.204520  0.471464  0.963217  -0.204851
    C   C75   0.471464  0.795480  0.963217  -0.204823
    C   C76   0.795480  0.528536  0.963217  -0.204567
    C   C77   0.471464  0.204520  0.036783  -0.204797
    C   C78   0.795480  0.471464  0.036783  -0.204782
    C   C79   0.528536  0.795480  0.036783  -0.204800
    C   C80   0.204520  0.528536  0.036783  -0.204831
    C   C81   0.028536  0.704520  0.463217  -0.204811
    C   C82   0.704520  0.971464  0.463217  -0.204849
    C   C83   0.971464  0.295480  0.463217  -0.204849
    C   C84   0.295480  0.028536  0.463217  -0.204822
    C   C85   0.971464  0.704520  0.536783  -0.204827
    C   C86   0.295480  0.971464  0.536783  -0.204839
    C   C87   0.028536  0.295480  0.536783  -0.204823
    C   C88   0.704520  0.028536  0.536783  -0.204796
    H   H33   0.551871  0.222209  0.934970  0.130806
    H   H34   0.222209  0.448129  0.934970  0.130877
    H   H35   0.448129  0.777791  0.934970  0.130873
    H   H36   0.777791  0.551871  0.934970  0.130765
    H   H37   0.448129  0.222209  0.065030  0.130874
    H   H38   0.777791  0.448129  0.065030  0.130876
    H   H39   0.551871  0.777791  0.065030  0.130830
    H   H40   0.222209  0.551871  0.065030  0.130872
    H   H41   0.051871  0.722209  0.434970  0.130869
    H   H42   0.722209  0.948129  0.434970  0.130877
    H   H43   0.948129  0.277792  0.434970  0.130883
    H   H44   0.277792  0.051871  0.434970  0.130877
    H   H45   0.948129  0.722209  0.565030  0.130870
    H   H46   0.277791  0.948129  0.565030  0.130878
    H   H47   0.051871  0.277791  0.565030  0.130874
    H   H48   0.722209  0.051871  0.565030  0.130863
    C   C89   0.528489  0.158948  0.961920  -0.020245
    C   C90   0.158948  0.471511  0.961920  -0.020017
    C   C91   0.471511  0.841052  0.961920  -0.019785
    C   C92   0.841052  0.528489  0.961920  -0.020135
    C   C93   0.471511  0.158948  0.038081  -0.020133
    C   C94   0.841052  0.471511  0.038080  -0.019865
    C   C95   0.528489  0.841052  0.038080  -0.019927
    C   C96   0.158948  0.528489  0.038080  -0.020033
    C   C97   0.028489  0.658948  0.461920  -0.020066
    C   C98   0.658948  0.971511  0.461920  -0.020013
    C   C99   0.971511  0.341052  0.461920  -0.020025
    C   C100  0.341052  0.028489  0.461920  -0.020064
    C   C101  0.971511  0.658948  0.538081  -0.020048
    C   C102  0.341052  0.971511  0.538080  -0.020031
    C   C103  0.028489  0.341052  0.538080  -0.020043
    C   C104  0.658948  0.028489  0.538081  -0.020087
    C   C105  0.500000  0.134507  0.000000  -0.053693
    C   C106  0.134507  0.500000  0.000000  -0.053807
    C   C107  0.500000  0.865493  0.000000  -0.054287
    C   C108  0.865493  0.500000  0.000000  -0.054194
    C   C109  0.000000  0.634507  0.500000  -0.053798
    C   C110  0.634507  0.000000  0.500000  -0.053800
    C   C111  0.000000  0.365493  0.500000  -0.053791
    C   C112  0.365493  0.000000  0.500000  -0.053774
    C   C113  0.500000  0.227624  0.000000  0.068597
    C   C114  0.227624  0.500000  0.000000  0.068654
    C   C115  0.500000  0.772376  0.000000  0.068456
    C   C116  0.772376  0.500000  0.000000  0.068403
    C   C117  0.000000  0.727624  0.500000  0.068642
    C   C118  0.727624  0.000000  0.500000  0.068644
    C   C119  0.000000  0.272376  0.500000  0.068647
    C   C120  0.272376  0.000000  0.500000  0.068647
    C   C121  0.493651  0.299344  0.053949  -0.168190
    C   C122  0.299344  0.506349  0.053949  -0.168233
    C   C123  0.506349  0.700656  0.053949  -0.168261
    C   C124  0.700656  0.493651  0.053949  -0.168224
    C   C125  0.506349  0.299344  0.946051  -0.168181
    C   C126  0.700656  0.506349  0.946051  -0.168209
    C   C127  0.493651  0.700656  0.946051  -0.168282
    C   C128  0.299344  0.493651  0.946051  -0.168245
    C   C129  0.993651  0.799344  0.553949  -0.168233
    C   C130  0.799344  0.006349  0.553949  -0.168238
    C   C131  0.006349  0.200656  0.553949  -0.168232
    C   C132  0.200656  0.993651  0.553949  -0.168223
    C   C133  0.006349  0.799344  0.446051  -0.168250
    C   C134  0.200656  0.006349  0.446051  -0.168251
    C   C135  0.993651  0.200656  0.446051  -0.168244
    C   C136  0.799344  0.993651  0.446051  -0.168251
    H   H49   0.489692  0.282235  0.097061  0.112207
    H   H50   0.282234  0.510308  0.097061  0.112213
    H   H51   0.510308  0.717766  0.097061  0.112228
    H   H52   0.717766  0.489692  0.097061  0.112212
    H   H53   0.510308  0.282235  0.902939  0.112202
    H   H54   0.717766  0.510308  0.902939  0.112215
    H   H55   0.489692  0.717766  0.902939  0.112224
    H   H56   0.282235  0.489692  0.902939  0.112219
    H   H57   0.989692  0.782235  0.597061  0.112215
    H   H58   0.782235  0.010308  0.597061  0.112215
    H   H59   0.010308  0.217766  0.597061  0.112209
    H   H60   0.217766  0.989692  0.597061  0.112208
    H   H61   0.010308  0.782235  0.402939  0.112219
    H   H62   0.217766  0.010308  0.402939  0.112216
    H   H63   0.989692  0.217766  0.402939  0.112214
    H   H64   0.782235  0.989692  0.402939  0.112222
    C   C137  0.493451  0.344842  0.053912  -0.090353
    C   C138  0.344841  0.506549  0.053912  -0.090318
    C   C139  0.506549  0.655159  0.053912  -0.090330
    C   C140  0.655159  0.493451  0.053912  -0.090336
    C   C141  0.506549  0.344842  0.946088  -0.090361
    C   C142  0.655159  0.506549  0.946088  -0.090356
    C   C143  0.493451  0.655159  0.946088  -0.090310
    C   C144  0.344841  0.493451  0.946088  -0.090314
    C   C145  0.993451  0.844842  0.553912  -0.090332
    C   C146  0.844842  0.006549  0.553912  -0.090328
    C   C147  0.006549  0.155159  0.553912  -0.090304
    C   C148  0.155159  0.993451  0.553912  -0.090315
    C   C149  0.006549  0.844842  0.446088  -0.090315
    C   C150  0.155159  0.006549  0.446088  -0.090291
    C   C151  0.993451  0.155159  0.446088  -0.090298
    C   C152  0.844842  0.993451  0.446088  -0.090324
    H   H65   0.488683  0.362008  0.096827  0.118375
    H   H66   0.362007  0.511317  0.096827  0.118366
    H   H67   0.511317  0.637993  0.096827  0.118375
    H   H68   0.637993  0.488683  0.096827  0.118374
    H   H69   0.511317  0.362008  0.903173  0.118378
    H   H70   0.637993  0.511317  0.903173  0.118378
    H   H71   0.488683  0.637993  0.903173  0.118374
    H   H72   0.362008  0.488683  0.903173  0.118365
    H   H73   0.988683  0.862007  0.596827  0.118377
    H   H74   0.862007  0.011317  0.596827  0.118374
    H   H75   0.011317  0.137993  0.596827  0.118364
    H   H76   0.137993  0.988683  0.596827  0.118367
    H   H77   0.011317  0.862007  0.403173  0.118370
    H   H78   0.137993  0.011317  0.403173  0.118362
    H   H79   0.988683  0.137993  0.403173  0.118362
    H   H80   0.862007  0.988683  0.403173  0.118375
    C   C153  0.500000  0.367865  0.000000  -0.038487
    C   C154  0.367865  0.500000  0.000000  -0.038535
    C   C155  0.500000  0.632135  0.000000  -0.038550
    C   C156  0.632135  0.500000  0.000000  -0.038529
    C   C157  0.000000  0.867865  0.500000  -0.038515
    C   C158  0.867865  0.000000  0.500000  -0.038508
    C   C159  0.000000  0.132135  0.500000  -0.038564
    C   C160  0.132135  0.000000  0.500000  -0.038556
    C   C161  0.500000  0.276192  0.000000  0.140189
    C   C162  0.276192  0.500000  0.000000  0.140279
    C   C163  0.500000  0.723808  0.000000  0.140406
    C   C164  0.723808  0.500000  0.000000  0.140327
    C   C165  0.000000  0.776192  0.500000  0.140268
    C   C166  0.776192  0.000000  0.500000  0.140265
    C   C167  0.000000  0.223808  0.500000  0.140271
    C   C168  0.223808  0.000000  0.500000  0.140267
    O   O33   0.563013  0.488065  0.050628  -0.583217
    O   O34   0.488065  0.436988  0.050628  -0.583201
    O   O35   0.436987  0.511935  0.050628  -0.583205
    O   O36   0.511935  0.563013  0.050628  -0.583221
    O   O37   0.436987  0.488065  0.949372  -0.583225
    O   O38   0.511935  0.436988  0.949372  -0.583218
    O   O39   0.563013  0.511935  0.949372  -0.583236
    O   O40   0.488065  0.563013  0.949372  -0.583240
    O   O41   0.063013  0.988065  0.550628  -0.583194
    O   O42   0.988065  0.936988  0.550628  -0.583215
    O   O43   0.936987  0.011936  0.550628  -0.583193
    O   O44   0.011935  0.063013  0.550628  -0.583198
    O   O45   0.936987  0.988065  0.449372  -0.583218
    O   O46   0.011935  0.936988  0.449372  -0.583226
    O   O47   0.063013  0.011935  0.449372  -0.583215
    O   O48   0.988065  0.063013  0.449372  -0.583222
    C   C169  0.583757  0.500000  0.000000  0.665949
    C   C170  0.500000  0.416244  0.000000  0.665898
    C   C171  0.416243  0.500000  0.000000  0.665921
    C   C172  0.500000  0.583757  0.000000  0.665956
    C   C173  0.083757  0.000000  0.500000  0.665927
    C   C174  0.000000  0.916244  0.500000  0.665898
    C   C175  0.916244  0.000000  0.500000  0.665891
    C   C176  0.000000  0.083757  0.500000  0.665936
    Cu  Cu9   0.500000  0.500000  0.059927  0.940494
    Cu  Cu10  0.500000  0.500000  0.940073  0.940536
    Cu  Cu11  0.000000  0.000000  0.559927  0.940619
    Cu  Cu12  0.000000  0.000000  0.440073  0.940572
    C   C177  0.558407  0.138847  0.915645  0.224347
    C   C178  0.603705  0.130988  0.943431  -0.147163
    H   H81   0.621227  0.162978  0.947655  0.028357
    H   H82   0.600640  0.116185  0.989677  0.024873
    H   H83   0.623081  0.108663  0.913534  0.016030
    H   H84   0.543370  0.108874  0.896730  -0.051132
    H   H85   0.562226  0.161640  0.876235  -0.034056
    C   C179  0.138847  0.441594  0.915645  0.224256
    C   C180  0.130988  0.396296  0.943431  -0.147095
    H   H86   0.162978  0.378773  0.947655  0.028343
    H   H87   0.116185  0.399360  0.989677  0.024853
    H   H88   0.108663  0.376919  0.913534  0.016020
    H   H89   0.108873  0.456631  0.896730  -0.051141
    H   H90   0.161640  0.437774  0.876235  -0.034039
    C   C181  0.441594  0.861153  0.915645  0.224187
    C   C182  0.396296  0.869012  0.943431  -0.147046
    H   H91   0.378773  0.837022  0.947655  0.028325
    H   H92   0.399360  0.883815  0.989677  0.024848
    H   H93   0.376919  0.891337  0.913534  0.016009
    H   H94   0.456631  0.891127  0.896730  -0.051119
    H   H95   0.437774  0.838360  0.876235  -0.034048
    C   C183  0.861153  0.558407  0.915645  0.225220
    C   C184  0.869012  0.603705  0.943431  -0.146727
    H   H96   0.837022  0.621227  0.947655  0.028184
    H   H97   0.883815  0.600640  0.989677  0.024696
    H   H98   0.891337  0.623081  0.913534  0.015871
    H   H99   0.891126  0.543370  0.896730  -0.051473
    H   H100  0.838360  0.562226  0.876235  -0.034360
    C   C185  0.441594  0.138847  0.084355  0.224346
    C   C186  0.396296  0.130988  0.056569  -0.147125
    H   H101  0.378773  0.162978  0.052345  0.028347
    H   H102  0.399360  0.116185  0.010323  0.024858
    H   H103  0.376919  0.108663  0.086466  0.016026
    H   H104  0.456631  0.108874  0.103270  -0.051149
    H   H105  0.437774  0.161640  0.123765  -0.034060
    C   C187  0.861153  0.441594  0.084355  0.224220
    C   C188  0.869012  0.396296  0.056569  -0.147056
    H   H106  0.837022  0.378773  0.052345  0.028325
    H   H107  0.883815  0.399360  0.010323  0.024848
    H   H108  0.891337  0.376919  0.086466  0.016015
    H   H109  0.891127  0.456631  0.103270  -0.051121
    H   H110  0.838360  0.437774  0.123765  -0.034055
    C   C189  0.558406  0.861153  0.084355  0.225119
    C   C190  0.603705  0.869012  0.056569  -0.146650
    H   H111  0.621227  0.837022  0.052345  0.028173
    H   H112  0.600640  0.883815  0.010323  0.024671
    H   H113  0.623081  0.891337  0.086466  0.015856
    H   H114  0.543370  0.891127  0.103270  -0.051463
    H   H115  0.562226  0.838360  0.123765  -0.034349
    C   C191  0.138847  0.558407  0.084355  0.224267
    C   C192  0.130988  0.603705  0.056569  -0.147097
    H   H116  0.162978  0.621227  0.052345  0.028345
    H   H117  0.116185  0.600640  0.010323  0.024850
    H   H118  0.108663  0.623081  0.086466  0.016019
    H   H119  0.108873  0.543370  0.103270  -0.051131
    H   H120  0.161640  0.562227  0.123765  -0.034047
    C   C193  0.058406  0.638847  0.415645  0.224305
    C   C194  0.103705  0.630988  0.443431  -0.147140
    H   H121  0.121227  0.662979  0.447655  0.028353
    H   H122  0.100640  0.616185  0.489677  0.024863
    H   H123  0.123081  0.608663  0.413534  0.016029
    H   H124  0.043370  0.608874  0.396730  -0.051138
    H   H125  0.062226  0.661640  0.376235  -0.034052
    C   C195  0.638847  0.941594  0.415645  0.224256
    C   C196  0.630988  0.896296  0.443431  -0.147106
    H   H126  0.662978  0.878773  0.447655  0.028350
    H   H127  0.616185  0.899360  0.489677  0.024856
    H   H128  0.608663  0.876919  0.413534  0.016020
    H   H129  0.608874  0.956631  0.396730  -0.051137
    H   H130  0.661640  0.937774  0.376235  -0.034043
    C   C197  0.941594  0.361153  0.415645  0.224251
    C   C198  0.896295  0.369012  0.443431  -0.147105
    H   H131  0.878773  0.337022  0.447655  0.028351
    H   H132  0.899360  0.383815  0.489677  0.024851
    H   H133  0.876919  0.391337  0.413534  0.016027
    H   H134  0.956631  0.391127  0.396730  -0.051125
    H   H135  0.937774  0.338360  0.376235  -0.034044
    C   C199  0.361153  0.058407  0.415645  0.224308
    C   C200  0.369012  0.103705  0.443431  -0.147122
    H   H136  0.337022  0.121227  0.447655  0.028349
    H   H137  0.383815  0.100640  0.489677  0.024859
    H   H138  0.391337  0.123081  0.413534  0.016025
    H   H139  0.391127  0.043370  0.396730  -0.051140
    H   H140  0.338360  0.062226  0.376235  -0.034056
    C   C201  0.941594  0.638847  0.584355  0.224327
    C   C202  0.896295  0.630988  0.556569  -0.147167
    H   H141  0.878773  0.662979  0.552345  0.028362
    H   H142  0.899360  0.616185  0.510323  0.024866
    H   H143  0.876919  0.608663  0.586466  0.016040
    H   H144  0.956631  0.608874  0.603270  -0.051155
    H   H145  0.937774  0.661640  0.623765  -0.034060
    C   C203  0.361153  0.941594  0.584355  0.224250
    C   C204  0.369012  0.896296  0.556569  -0.147082
    H   H146  0.337022  0.878773  0.552345  0.028343
    H   H147  0.383815  0.899360  0.510323  0.024845
    H   H148  0.391337  0.876919  0.586466  0.016021
    H   H149  0.391127  0.956631  0.603270  -0.051128
    H   H150  0.338360  0.937774  0.623765  -0.034043
    C   C205  0.058406  0.361153  0.584355  0.224265
    C   C206  0.103705  0.369012  0.556569  -0.147106
    H   H151  0.121227  0.337022  0.552345  0.028350
    H   H152  0.100640  0.383815  0.510323  0.024850
    H   H153  0.123081  0.391337  0.586466  0.016026
    H   H154  0.043369  0.391127  0.603270  -0.051129
    H   H155  0.062226  0.338360  0.623765  -0.034047
    C   C207  0.638847  0.058407  0.584355  0.224338
    C   C208  0.630988  0.103705  0.556569  -0.147144
    H   H156  0.662978  0.121227  0.552345  0.028354
    H   H157  0.616185  0.100640  0.510323  0.024863
    H   H158  0.608663  0.123081  0.586466  0.016031
    H   H159  0.608873  0.043370  0.603270  -0.051147
    H   H160  0.661640  0.062226  0.623765  -0.034060
