# generated using pymatgen
data_Cu3H26(C15O4)3
_symmetry_space_group_name_H-M   'P 1'
_cell_length_a   43.56679600
_cell_length_b   30.18179700
_cell_length_c   29.95091100
_cell_angle_alpha   90.00000000
_cell_angle_beta   46.92880700
_cell_angle_gamma   90.00000000
_symmetry_Int_Tables_number   1
_chemical_formula_structural   Cu3H26(C15O4)3
_chemical_formula_sum   'Cu12 H104 C180 O48'
_cell_volume   28769.63636116
_cell_formula_units_Z   4
loop_
 _symmetry_equiv_pos_site_id
 _symmetry_equiv_pos_as_xyz
  1  'x, y, z'
loop_
 _atom_site_type_symbol
 _atom_site_label
 _atom_site_symmetry_multiplicity
 _atom_site_fract_x
 _atom_site_fract_y
 _atom_site_fract_z
 _atom_site_occupancy
  Cu  Cu1  1  0.50000000  0.95591400  0.00000100  1
  Cu  Cu2  1  0.00000000  0.45591400  0.00000100  1
  Cu  Cu3  1  0.50000000  0.04236100  0.00000100  1
  Cu  Cu4  1  0.00000000  0.54236100  0.00000100  1
  Cu  Cu5  1  0.00100300  0.99685400  0.54344100  1
  Cu  Cu6  1  0.99899800  0.99685400  0.45656200  1
  Cu  Cu7  1  0.50100300  0.49685400  0.54344100  1
  Cu  Cu8  1  0.49899800  0.49685400  0.45656200  1
  Cu  Cu9  1  0.45814800  0.99761300  0.54123800  1
  Cu  Cu10  1  0.54185300  0.99761300  0.45876500  1
  Cu  Cu11  1  0.95814800  0.49761300  0.54123800  1
  Cu  Cu12  1  0.04185300  0.49761300  0.45876500  1
  H  H1  1  0.27626200  0.03648300  0.28790500  1
  H  H2  1  0.72373900  0.03648200  0.71209700  1
  H  H3  1  0.77626200  0.53648300  0.28790500  1
  H  H4  1  0.22373900  0.53648200  0.71209700  1
  H  H5  1  0.22455900  0.96046000  0.33912000  1
  H  H6  1  0.77544100  0.96045900  0.66088400  1
  H  H7  1  0.72455900  0.46046000  0.33912000  1
  H  H8  1  0.27544100  0.46045900  0.66088400  1
  H  H9  1  0.22389500  0.07389900  0.27379800  1
  H  H10  1  0.77610600  0.07389900  0.72620300  1
  H  H11  1  0.72389500  0.57389900  0.27379800  1
  H  H12  1  0.27610600  0.57389900  0.72620300  1
  H  H13  1  0.27654400  0.03650200  0.15562900  1
  H  H14  1  0.72345600  0.03650300  0.84437300  1
  H  H15  1  0.77654400  0.53650200  0.15562900  1
  H  H16  1  0.22345600  0.53650300  0.84437300  1
  H  H17  1  0.22482500  0.96047000  0.20686500  1
  H  H18  1  0.77517600  0.96047100  0.79313800  1
  H  H19  1  0.72482500  0.46047000  0.20686500  1
  H  H20  1  0.27517600  0.46047100  0.79313800  1
  H  H21  1  0.27719000  0.92306300  0.22097900  1
  H  H22  1  0.72281100  0.92306300  0.77902500  1
  H  H23  1  0.77719000  0.42306300  0.22097900  1
  H  H24  1  0.22281100  0.42306300  0.77902500  1
  H  H25  1  0.53709900  0.05884000  0.18264300  1
  H  H26  1  0.46290100  0.05884000  0.81736000  1
  H  H27  1  0.03709900  0.55884000  0.18264300  1
  H  H28  1  0.96290100  0.55884000  0.81736000  1
  H  H29  1  0.53691000  0.05885100  0.10181000  1
  H  H30  1  0.46309000  0.05885100  0.89819200  1
  H  H31  1  0.03691000  0.55885100  0.10181000  1
  H  H32  1  0.96309000  0.55885100  0.89819200  1
  H  H33  1  0.46431400  0.93940100  0.17439900  1
  H  H34  1  0.53568600  0.93940000  0.82560400  1
  H  H35  1  0.96431400  0.43940100  0.17439900  1
  H  H36  1  0.03568600  0.43940000  0.82560400  1
  H  H37  1  0.46468400  0.93968500  0.25503400  1
  H  H38  1  0.53531700  0.93968500  0.74496900  1
  H  H39  1  0.96468400  0.43968500  0.25503400  1
  H  H40  1  0.03531700  0.43968500  0.74496900  1
  H  H41  1  0.43466900  0.98686400  0.34363600  1
  H  H42  1  0.56533100  0.98686400  0.65636700  1
  H  H43  1  0.93466900  0.48686400  0.34363600  1
  H  H44  1  0.06533100  0.48686400  0.65636700  1
  H  H45  1  0.43411900  0.98656000  0.42505700  1
  H  H46  1  0.56588100  0.98656000  0.57494600  1
  H  H47  1  0.93411900  0.48656000  0.42505700  1
  H  H48  1  0.06588100  0.48656000  0.57494600  1
  H  H49  1  0.56649500  0.01217000  0.29442100  1
  H  H50  1  0.43350600  0.01216900  0.70558100  1
  H  H51  1  0.06649500  0.51217000  0.29442100  1
  H  H52  1  0.93350600  0.51216900  0.70558100  1
  H  H53  1  0.56667300  0.01240500  0.21319500  1
  H  H54  1  0.43332700  0.01240500  0.78680800  1
  H  H55  1  0.06667300  0.51240500  0.21319500  1
  H  H56  1  0.93332700  0.51240500  0.78680800  1
  H  H57  1  0.97908100  0.77690700  0.45307200  1
  H  H58  1  0.02091900  0.77690500  0.54693000  1
  H  H59  1  0.47908100  0.27690700  0.45307200  1
  H  H60  1  0.52091900  0.27690500  0.54693000  1
  H  H61  1  0.97940800  0.85751000  0.45249000  1
  H  H62  1  0.02059300  0.85750900  0.54751200  1
  H  H63  1  0.47940800  0.35751000  0.45249000  1
  H  H64  1  0.52059300  0.35750900  0.54751200  1
  H  H65  1  0.56159200  0.21751400  0.46702300  1
  H  H66  1  0.43841000  0.21751600  0.53297800  1
  H  H67  1  0.06159200  0.71751400  0.46702300  1
  H  H68  1  0.93841000  0.71751600  0.53297800  1
  H  H69  1  0.56185800  0.13690700  0.46643800  1
  H  H70  1  0.43814200  0.13690800  0.53356500  1
  H  H71  1  0.06185800  0.63690700  0.46643800  1
  H  H72  1  0.93814200  0.63690800  0.53356500  1
  H  H73  1  0.99417200  0.21659700  0.43465200  1
  H  H74  1  0.00582800  0.21659700  0.56535100  1
  H  H75  1  0.49417200  0.71659700  0.43465200  1
  H  H76  1  0.50582800  0.71659700  0.56535100  1
  H  H77  1  0.99499100  0.13648500  0.43373200  1
  H  H78  1  0.00500900  0.13648600  0.56627100  1
  H  H79  1  0.49499100  0.63648500  0.43373200  1
  H  H80  1  0.50500900  0.63648600  0.56627100  1
  H  H81  1  0.46106000  0.77641500  0.59621200  1
  H  H82  1  0.53894000  0.77641500  0.40379100  1
  H  H83  1  0.96106000  0.27641500  0.59621200  1
  H  H84  1  0.03894000  0.27641500  0.40379100  1
  H  H85  1  0.43620000  0.83827600  0.65168600  1
  H  H86  1  0.43641700  0.89009000  0.62342200  1
  H  H87  1  0.52185200  0.87582200  0.57473700  1
  H  H88  1  0.44316400  0.89415600  0.70846500  1
  H  H89  1  0.49947500  0.90237900  0.66899900  1
  H  H90  1  0.56380000  0.83827600  0.34831700  1
  H  H91  1  0.56358400  0.89009000  0.37658100  1
  H  H92  1  0.47814900  0.87582300  0.42526600  1
  H  H93  1  0.55683700  0.89415600  0.29153800  1
  H  H94  1  0.50052600  0.90237900  0.33100400  1
  H  H95  1  0.93620000  0.33827600  0.65168600  1
  H  H96  1  0.93641700  0.39009000  0.62342200  1
  H  H97  1  0.02185200  0.37582200  0.57473700  1
  H  H98  1  0.94316400  0.39415600  0.70846500  1
  H  H99  1  0.99947500  0.40237900  0.66899900  1
  H  H100  1  0.06380000  0.33827600  0.34831700  1
  H  H101  1  0.06358400  0.39009000  0.37658100  1
  H  H102  1  0.97814900  0.37582300  0.42526600  1
  H  H103  1  0.05683700  0.39415600  0.29153800  1
  H  H104  1  0.00052600  0.40237900  0.33100400  1
  C  C1  1  0.50026300  0.99914000  0.08412400  1
  C  C2  1  0.49973800  0.99914000  0.91587800  1
  C  C3  1  0.00026300  0.49914000  0.08412400  1
  C  C4  1  0.99973800  0.49914000  0.91587800  1
  C  C5  1  0.42037500  0.99915000  0.07921700  1
  C  C6  1  0.57962600  0.99915000  0.92078600  1
  C  C7  1  0.92037500  0.49915000  0.07921700  1
  C  C8  1  0.07962600  0.49915000  0.92078600  1
  C  C9  1  0.23690300  0.97772900  0.29693100  1
  C  C10  1  0.76309800  0.97772800  0.70307200  1
  C  C11  1  0.73690300  0.47772900  0.29693100  1
  C  C12  1  0.26309800  0.47772800  0.70307200  1
  C  C13  1  0.26404700  0.01922900  0.27004300  1
  C  C14  1  0.73595300  0.01922900  0.72995900  1
  C  C15  1  0.76404700  0.51922900  0.27004300  1
  C  C16  1  0.23595300  0.51922900  0.72995900  1
  C  C17  1  0.37508900  0.99916000  0.12409900  1
  C  C18  1  0.62491200  0.99916000  0.87590400  1
  C  C19  1  0.87508900  0.49916000  0.12409900  1
  C  C20  1  0.12491200  0.49916000  0.87590400  1
  C  C21  1  0.12600700  0.99728100  0.37153000  1
  C  C22  1  0.87399400  0.99728100  0.62847300  1
  C  C23  1  0.62600700  0.49728100  0.37153000  1
  C  C24  1  0.37399400  0.49728100  0.62847300  1
  C  C25  1  0.26455100  0.95729800  0.23349800  1
  C  C26  1  0.73545000  0.95729800  0.76650600  1
  C  C27  1  0.76455100  0.45729800  0.23349800  1
  C  C28  1  0.23545000  0.45729800  0.76650600  1
  C  C29  1  0.29093700  0.99879300  0.20736200  1
  C  C30  1  0.70906300  0.99879300  0.79264100  1
  C  C31  1  0.79093700  0.49879300  0.20736200  1
  C  C32  1  0.20906300  0.49879300  0.79264100  1
  C  C33  1  0.23703900  0.97772700  0.22472600  1
  C  C34  1  0.76296200  0.97772800  0.77527700  1
  C  C35  1  0.73703900  0.47772700  0.22472600  1
  C  C36  1  0.26296200  0.47772800  0.77527700  1
  C  C37  1  0.21015400  0.99816500  0.28740700  1
  C  C38  1  0.78984700  0.99816500  0.71259600  1
  C  C39  1  0.71015400  0.49816500  0.28740700  1
  C  C40  1  0.28984700  0.49816500  0.71259600  1
  C  C41  1  0.26419900  0.01923300  0.19781900  1
  C  C42  1  0.73580100  0.01923400  0.80218400  1
  C  C43  1  0.76419900  0.51923300  0.19781900  1
  C  C44  1  0.23580100  0.51923400  0.80218400  1
  C  C45  1  0.23653500  0.03966500  0.26127600  1
  C  C46  1  0.76346600  0.03966500  0.73872600  1
  C  C47  1  0.73653500  0.53966500  0.26127600  1
  C  C48  1  0.26346600  0.53966500  0.73872600  1
  C  C49  1  0.33711000  0.99905200  0.16167700  1
  C  C50  1  0.66289000  0.99905200  0.83832600  1
  C  C51  1  0.83711000  0.49905200  0.16167700  1
  C  C52  1  0.16289000  0.49905200  0.83832600  1
  C  C53  1  0.16398100  0.99772200  0.33339600  1
  C  C54  1  0.83601900  0.99772200  0.66666667  1
  C  C55  1  0.66398100  0.49772200  0.33339600  1
  C  C56  1  0.33601900  0.49772200  0.66666667  1
  C  C57  1  0.52138000  0.03233200  0.18066800  1
  C  C58  1  0.47862100  0.03233200  0.81933400  1
  C  C59  1  0.02138000  0.53233200  0.18066800  1
  C  C60  1  0.97862100  0.53233200  0.81933400  1
  C  C61  1  0.52087400  0.03252700  0.13526600  1
  C  C62  1  0.47912600  0.03252700  0.86473700  1
  C  C63  1  0.02087400  0.53252700  0.13526600  1
  C  C64  1  0.97912600  0.53252700  0.86473700  1
  C  C65  1  0.50054800  0.99914300  0.13250200  1
  C  C66  1  0.49945200  0.99914300  0.86750100  1
  C  C67  1  0.00054800  0.49914300  0.13250200  1
  C  C68  1  0.99945200  0.49914300  0.86750100  1
  C  C69  1  0.48049400  0.96576700  0.17563800  1
  C  C70  1  0.51950600  0.96576700  0.82436500  1
  C  C71  1  0.98049400  0.46576700  0.17563800  1
  C  C72  1  0.01950600  0.46576700  0.82436500  1
  C  C73  1  0.48032600  0.96611200  0.22170300  1
  C  C74  1  0.51967400  0.96611200  0.77830000  1
  C  C75  1  0.98032600  0.46611200  0.22170300  1
  C  C76  1  0.01967400  0.46611200  0.77830000  1
  C  C77  1  0.50087700  0.99929600  0.22420700  1
  C  C78  1  0.49912300  0.99929600  0.77579600  1
  C  C79  1  0.00087700  0.49929600  0.22420700  1
  C  C80  1  0.99912300  0.49929600  0.77579600  1
  C  C81  1  0.46376100  0.99213600  0.33257100  1
  C  C82  1  0.53623900  0.99213700  0.66743200  1
  C  C83  1  0.96376100  0.49213600  0.33257100  1
  C  C84  1  0.03623900  0.49213700  0.66743200  1
  C  C85  1  0.46345000  0.99241900  0.37875800  1
  C  C86  1  0.53655100  0.99241900  0.62124500  1
  C  C87  1  0.96345000  0.49241900  0.37875800  1
  C  C88  1  0.03655100  0.49241900  0.62124500  1
  C  C89  1  0.50033000  0.99923300  0.36541900  1
  C  C90  1  0.49967100  0.99923300  0.63458300  1
  C  C91  1  0.00033000  0.49923300  0.36541900  1
  C  C92  1  0.99967100  0.49923300  0.63458300  1
  C  C93  1  0.53733300  0.00662300  0.30579000  1
  C  C94  1  0.46266700  0.00662300  0.69421300  1
  C  C95  1  0.03733300  0.50662300  0.30579000  1
  C  C96  1  0.96266700  0.50662300  0.69421300  1
  C  C97  1  0.53742600  0.00712700  0.25979000  1
  C  C98  1  0.46257500  0.00712700  0.74021300  1
  C  C99  1  0.03742600  0.50712700  0.25979000  1
  C  C100  1  0.96257500  0.50712700  0.74021300  1
  C  C101  1  0.50071000  0.99953900  0.27302500  1
  C  C102  1  0.49929100  0.99953900  0.72697800  1
  C  C103  1  0.00071000  0.49953900  0.27302500  1
  C  C104  1  0.99929100  0.49953900  0.72697800  1
  C  C105  1  0.00000000  0.91169300  0.50000100  1
  C  C106  1  0.50000000  0.41169300  0.50000100  1
  C  C107  1  0.08073100  0.99666400  0.41746300  1
  C  C108  1  0.91927000  0.99666400  0.58254000  1
  C  C109  1  0.58073100  0.49666400  0.41746300  1
  C  C110  1  0.41927000  0.49666400  0.58254000  1
  C  C111  1  0.00000000  0.08201700  0.50000100  1
  C  C112  1  0.50000000  0.58201700  0.50000100  1
  C  C113  1  0.50000000  0.08273700  0.50000100  1
  C  C114  1  0.00000000  0.58273700  0.50000100  1
  C  C115  1  0.50016800  0.99836700  0.41421900  1
  C  C116  1  0.49983300  0.99836700  0.58578300  1
  C  C117  1  0.00016800  0.49836700  0.41421900  1
  C  C118  1  0.99983300  0.49836700  0.58578300  1
  C  C119  1  0.50000000  0.91235300  0.50000100  1
  C  C120  1  0.00000000  0.41235300  0.50000100  1
  C  C121  1  0.98804600  0.79448100  0.47413000  1
  C  C122  1  0.01195400  0.79448100  0.52587300  1
  C  C123  1  0.48804600  0.29448100  0.47413000  1
  C  C124  1  0.51195400  0.29448100  0.52587300  1
  C  C125  1  0.98861900  0.84014500  0.47333200  1
  C  C126  1  0.01138100  0.84014500  0.52667000  1
  C  C127  1  0.48861900  0.34014500  0.47333200  1
  C  C128  1  0.51138100  0.34014500  0.52667000  1
  C  C129  1  0.00000000  0.86319200  0.50000100  1
  C  C130  1  0.50000000  0.36319200  0.50000100  1
  C  C131  1  0.00000000  0.77146100  0.50000100  1
  C  C132  1  0.50000000  0.27146100  0.50000100  1
  C  C133  1  0.53431100  0.19994000  0.48195100  1
  C  C134  1  0.46569000  0.19994000  0.51805200  1
  C  C135  1  0.03431100  0.69994000  0.48195100  1
  C  C136  1  0.96569000  0.69994000  0.51805200  1
  C  C137  1  0.53457500  0.15427700  0.48110000  1
  C  C138  1  0.46542500  0.15427700  0.51890300  1
  C  C139  1  0.03457500  0.65427700  0.48110000  1
  C  C140  1  0.96542500  0.65427700  0.51890300  1
  C  C141  1  0.50000000  0.13123300  0.50000200  1
  C  C142  1  0.00000000  0.63123300  0.50000200  1
  C  C143  1  0.50000000  0.22296000  0.50000100  1
  C  C144  1  0.00000000  0.72296000  0.50000100  1
  C  C145  1  0.99729800  0.19936000  0.46298500  1
  C  C146  1  0.00270200  0.19936000  0.53701800  1
  C  C147  1  0.49729800  0.69936000  0.46298500  1
  C  C148  1  0.50270200  0.69936000  0.53701800  1
  C  C149  1  0.99740100  0.15369600  0.46286100  1
  C  C150  1  0.00259900  0.15369600  0.53714200  1
  C  C151  1  0.49740100  0.65369600  0.46286100  1
  C  C152  1  0.50259900  0.65369600  0.53714200  1
  C  C153  1  0.00000000  0.13058200  0.50000100  1
  C  C154  1  0.50000000  0.63058200  0.50000100  1
  C  C155  1  0.00000000  0.22256500  0.50000100  1
  C  C156  1  0.50000000  0.72256500  0.50000100  1
  C  C157  1  0.47833300  0.79435500  0.55383600  1
  C  C158  1  0.52166800  0.79435500  0.44616700  1
  C  C159  1  0.97833300  0.29435500  0.55383600  1
  C  C160  1  0.02166800  0.29435500  0.44616700  1
  C  C161  1  0.47831700  0.84012000  0.55439000  1
  C  C162  1  0.52168300  0.84012000  0.44561300  1
  C  C163  1  0.97831700  0.34012000  0.55439000  1
  C  C164  1  0.02168300  0.34012000  0.44561300  1
  C  C165  1  0.50000000  0.86357400  0.50000100  1
  C  C166  1  0.00000000  0.36357400  0.50000100  1
  C  C167  1  0.50000000  0.77127600  0.50000100  1
  C  C168  1  0.00000000  0.27127600  0.50000100  1
  C  C169  1  0.45681000  0.86247800  0.61407200  1
  C  C170  1  0.48863000  0.87802000  0.61540000  1
  C  C171  1  0.47631800  0.89247000  0.66743900  1
  C  C172  1  0.54319000  0.86247800  0.38593100  1
  C  C173  1  0.51137000  0.87802000  0.38460200  1
  C  C174  1  0.52368200  0.89247000  0.33256400  1
  C  C175  1  0.95681000  0.36247800  0.61407200  1
  C  C176  1  0.98863000  0.37802000  0.61540000  1
  C  C177  1  0.97631800  0.39247000  0.66743900  1
  C  C178  1  0.04319000  0.36247800  0.38593100  1
  C  C179  1  0.01137000  0.37802000  0.38460200  1
  C  C180  1  0.02368200  0.39247000  0.33256400  1
  O  O1  1  0.48822100  0.96269500  0.07531900  1
  O  O2  1  0.51178000  0.96269500  0.92468400  1
  O  O3  1  0.98822100  0.46269500  0.07531900  1
  O  O4  1  0.01178000  0.46269500  0.92468400  1
  O  O5  1  0.51208400  0.03558500  0.05148100  1
  O  O6  1  0.48791600  0.03558500  0.94852200  1
  O  O7  1  0.01208400  0.53558500  0.05148100  1
  O  O8  1  0.98791600  0.53558500  0.94852200  1
  O  O9  1  0.44007700  0.96266300  0.04702900  1
  O  O10  1  0.55992300  0.96266300  0.95297400  1
  O  O11  1  0.94007700  0.46266300  0.04702900  1
  O  O12  1  0.05992300  0.46266300  0.95297400  1
  O  O13  1  0.44011800  0.03562200  0.07222800  1
  O  O14  1  0.55988300  0.03562200  0.92777400  1
  O  O15  1  0.94011800  0.53562200  0.07222800  1
  O  O16  1  0.05988300  0.53562200  0.92777400  1
  O  O17  1  0.99939600  0.93244700  0.53903200  1
  O  O18  1  0.00060500  0.93244700  0.46097100  1
  O  O19  1  0.49939600  0.43244700  0.53903200  1
  O  O20  1  0.50060500  0.43244700  0.46097100  1
  O  O21  1  0.06191400  0.99874400  0.47507800  1
  O  O22  1  0.93808700  0.99874400  0.52492500  1
  O  O23  1  0.56191400  0.49874400  0.47507800  1
  O  O24  1  0.43808700  0.49874400  0.52492500  1
  O  O25  1  0.06025100  0.99834500  0.39980600  1
  O  O26  1  0.93975000  0.99834500  0.60019700  1
  O  O27  1  0.56025100  0.49834500  0.39980600  1
  O  O28  1  0.43975000  0.49834500  0.60019700  1
  O  O29  1  0.99890900  0.06125400  0.53957800  1
  O  O30  1  0.00109200  0.06125400  0.46042400  1
  O  O31  1  0.49890900  0.56125400  0.53957800  1
  O  O32  1  0.50109200  0.56125400  0.46042400  1
  O  O33  1  0.46388000  0.06199700  0.53328000  1
  O  O34  1  0.53612000  0.06199700  0.46672300  1
  O  O35  1  0.96388000  0.56199700  0.53328000  1
  O  O36  1  0.03612000  0.56199700  0.46672300  1
  O  O37  1  0.46391700  0.99560200  0.47067200  1
  O  O38  1  0.53608400  0.99560200  0.52933000  1
  O  O39  1  0.96391700  0.49560200  0.47067200  1
  O  O40  1  0.03608400  0.49560200  0.52933000  1
  O  O41  1  0.53625400  0.99642300  0.39935700  1
  O  O42  1  0.46374600  0.99642300  0.60064600  1
  O  O43  1  0.03625400  0.49642300  0.39935700  1
  O  O44  1  0.96374600  0.49642300  0.60064600  1
  O  O45  1  0.46380700  0.93318700  0.53423100  1
  O  O46  1  0.53619300  0.93318700  0.46577100  1
  O  O47  1  0.96380700  0.43318700  0.53423100  1
  O  O48  1  0.03619300  0.43318700  0.46577100  1
