# Generated by REPEAT Assigner based on pymatgen
data_DB0-m3_o2_o25_f0_nbo.sym.23
_audit_creation_date              2022-05-24
_audit_creation_method            REPEAT_Assigner
_cell_length_a                    44.151191
_cell_length_b                    30.400289
_cell_length_c                    30.281004
_cell_angle_alpha                 90.000000
_cell_angle_beta                  46.779996
_cell_angle_gamma                 90.000000
_cell_volume                      29618.073445
_symmetry_space_group_name_H-M    P1
_symmetry_Int_Tables_number       1
loop_
    _symmetry_equiv_pos_site_id
    _symmetry_equiv_pos_as_xyz
    1  x,y,z
loop_
    _atom_site_type_symbol
    _atom_site_label
    _atom_site_fract_x
    _atom_site_fract_y
    _atom_site_fract_z
    _atom_type_partial_charge
    O   O1    0.500462  0.960492  0.065441  -0.698045
    O   O2    0.501453  0.962757  0.932884  -0.717602
    O   O3    0.000462  0.460492  0.065441  -0.698064
    O   O4    0.001453  0.462757  0.932884  -0.717542
    O   O5    0.498855  0.036326  0.066798  -0.670607
    O   O6    0.499210  0.038574  0.935000  -0.662224
    O   O7    0.998855  0.536326  0.066798  -0.670591
    O   O8    0.999210  0.538574  0.935000  -0.662189
    C   C1    0.499503  0.998457  0.086911  0.727422
    C   C2    0.500499  0.000647  0.913140  0.740639
    C   C3    0.999503  0.498457  0.086911  0.727418
    C   C4    0.000499  0.500647  0.913140  0.740496
    O   O9    0.438135  0.962480  0.062289  -0.653095
    O   O10   0.562131  0.960663  0.939485  -0.640722
    O   O11   0.938135  0.462480  0.062289  -0.653055
    O   O12   0.062131  0.460663  0.939485  -0.640752
    O   O13   0.437885  0.038419  0.060802  -0.640398
    O   O14   0.561819  0.036592  0.937548  -0.655746
    O   O15   0.937885  0.538419  0.060802  -0.640388
    O   O16   0.061819  0.536592  0.937548  -0.655747
    C   C5    0.418625  0.000391  0.080826  0.618438
    C   C6    0.581359  0.998707  0.919230  0.624421
    C   C7    0.918625  0.500391  0.080826  0.618407
    C   C8    0.081359  0.498707  0.919230  0.624429
    Zn  Zn1   0.499995  0.949726  0.999918  1.354810
    Zn  Zn2   0.999995  0.449726  0.999918  1.354809
    Zn  Zn3   0.499995  0.049345  0.000136  1.329334
    Zn  Zn4   0.999995  0.549345  0.000136  1.329328
    C   C9    0.236623  0.979975  0.298930  0.192276
    C   C10   0.763426  0.979297  0.701035  0.198741
    C   C11   0.736623  0.479975  0.298930  0.192306
    C   C12   0.263426  0.479297  0.701035  0.198768
    C   C13   0.263870  0.020597  0.271501  0.043578
    C   C14   0.736036  0.019812  0.728608  0.037025
    C   C15   0.763870  0.520597  0.271501  0.043675
    C   C16   0.236036  0.519812  0.728608  0.036848
    C   C17   0.373903  0.000261  0.125557  0.168948
    C   C18   0.626080  0.998914  0.874491  0.163314
    C   C19   0.873903  0.500261  0.125557  0.168920
    C   C20   0.126080  0.498914  0.874491  0.163336
    C   C21   0.126074  0.000419  0.374789  0.103834
    C   C22   0.873904  0.000104  0.625244  0.105512
    C   C23   0.626074  0.500419  0.374789  0.103841
    C   C24   0.373904  0.500104  0.625244  0.105563
    C   C25   0.263546  0.959616  0.236475  0.114201
    C   C26   0.736580  0.958834  0.763417  0.109601
    C   C27   0.763546  0.459616  0.236475  0.114034
    C   C28   0.236580  0.458834  0.763417  0.109516
    C   C29   0.290789  0.000239  0.209047  0.651359
    C   C30   0.709192  0.999348  0.790990  0.652185
    C   C31   0.790789  0.500239  0.209047  0.651283
    C   C32   0.209192  0.499348  0.790990  0.652365
    C   C33   0.236106  0.979985  0.228753  0.137565
    C   C34   0.763948  0.979312  0.771207  0.144725
    C   C35   0.736106  0.479985  0.228753  0.137727
    C   C36   0.263948  0.479312  0.771207  0.144790
    C   C37   0.209188  0.000344  0.291207  0.524637
    C   C38   0.790792  0.999776  0.708826  0.519491
    C   C39   0.709188  0.500344  0.291207  0.524549
    C   C40   0.290792  0.499776  0.708826  0.519521
    C   C41   0.263354  0.020609  0.201323  0.093477
    C   C42   0.736557  0.019827  0.798782  0.088781
    C   C43   0.763354  0.520609  0.201323  0.093441
    C   C44   0.236557  0.519827  0.798782  0.088618
    C   C45   0.236433  0.040966  0.263778  0.182208
    C   C46   0.763405  0.040291  0.736397  0.186644
    C   C47   0.736433  0.540966  0.263778  0.182173
    C   C48   0.263405  0.540291  0.736397  0.186814
    C   C49   0.336381  0.000221  0.163202  -0.552778
    C   C50   0.663601  0.999106  0.836840  -0.547438
    C   C51   0.836381  0.500221  0.163202  -0.552706
    C   C52   0.163601  0.499106  0.836840  -0.547494
    C   C53   0.163596  0.000397  0.337085  -0.480188
    C   C54   0.836383  0.999979  0.662947  -0.481280
    C   C55   0.663596  0.500397  0.337085  -0.480158
    C   C56   0.336383  0.499979  0.662947  -0.481356
    C   C57   0.514685  0.033923  0.188642  -0.391440
    C   C58   0.483549  0.034542  0.812978  -0.386898
    C   C59   0.014685  0.533923  0.188642  -0.391437
    C   C60   0.983549  0.534542  0.812978  -0.386803
    H   H1    0.527373  0.061740  0.193646  0.190726
    H   H2    0.469427  0.061470  0.809245  0.188708
    H   H3    0.027373  0.561740  0.193646  0.190726
    H   H4    0.969427  0.561470  0.809245  0.188700
    C   C61   0.515021  0.034014  0.142867  0.391756
    C   C62   0.483199  0.034872  0.858767  0.385873
    C   C63   0.015021  0.534014  0.142867  0.391773
    C   C64   0.983199  0.534872  0.858767  0.385678
    C   C65   0.498965  0.998598  0.135775  -0.239927
    C   C66   0.501070  0.000579  0.864245  -0.249023
    C   C67   0.998965  0.498598  0.135775  -0.239962
    C   C68   0.001070  0.500579  0.864245  -0.248671
    C   C69   0.482378  0.963327  0.175271  0.403206
    C   C70   0.519488  0.966208  0.823124  0.401315
    C   C71   0.982378  0.463327  0.175271  0.403233
    C   C72   0.019488  0.466208  0.823124  0.400950
    C   C73   0.481474  0.963808  0.221602  -0.365958
    C   C74   0.520376  0.966481  0.776808  -0.362090
    C   C75   0.981474  0.463808  0.221602  -0.365982
    C   C76   0.020376  0.466481  0.776808  -0.361913
    H   H5    0.468682  0.935944  0.251883  0.171803
    H   H6    0.534607  0.939308  0.745250  0.168328
    H   H7    0.968682  0.435944  0.251883  0.171800
    H   H8    0.034607  0.439308  0.745250  0.168303
    C   C77   0.497566  0.999080  0.228457  0.216111
    C   C78   0.502466  0.000622  0.771567  0.214618
    C   C79   0.997566  0.499080  0.228457  0.216124
    C   C80   0.002466  0.500622  0.771567  0.214593
    C   C81   0.461261  0.990757  0.335981  0.382171
    C   C82   0.539146  0.993998  0.663706  0.376810
    C   C83   0.961261  0.490757  0.335981  0.382186
    C   C84   0.039146  0.493998  0.663706  0.376863
    C   C85   0.461469  0.991183  0.381226  -0.362118
    C   C86   0.538914  0.994130  0.618483  -0.356480
    C   C87   0.961469  0.491183  0.381226  -0.362111
    C   C88   0.038914  0.494130  0.618483  -0.356526
    H   H9    0.432805  0.984719  0.427262  0.208848
    H   H10   0.567871  0.989258  0.572181  0.206362
    H   H11   0.932805  0.484719  0.427262  0.208833
    H   H12   0.067871  0.489258  0.572181  0.206364
    C   C89   0.497910  0.999417  0.367493  0.272883
    C   C90   0.502097  0.000084  0.632555  0.269969
    C   C91   0.997910  0.499417  0.367493  0.272980
    C   C92   0.002097  0.500084  0.632555  0.270037
    C   C93   0.534046  0.007754  0.308265  -0.278984
    C   C94   0.465582  0.006430  0.692127  -0.275294
    C   C95   0.034046  0.507754  0.308265  -0.279136
    C   C96   0.965582  0.506430  0.692127  -0.275335
    H   H13   0.562882  0.014497  0.296455  0.165891
    H   H14   0.436435  0.011373  0.704221  0.164659
    H   H15   0.062882  0.514497  0.296455  0.165962
    H   H16   0.936435  0.511373  0.704221  0.164669
    C   C97   0.533654  0.008047  0.263232  -0.104495
    C   C98   0.465960  0.007024  0.737171  -0.106317
    C   C99   0.033654  0.508047  0.263232  -0.104432
    C   C100  0.965960  0.507024  0.737171  -0.106270
    H   H17   0.562180  0.014366  0.216998  0.133886
    H   H18   0.437149  0.011772  0.783663  0.133992
    H   H19   0.062180  0.514366  0.216998  0.133865
    H   H20   0.937149  0.511772  0.783663  0.133980
    C   C101  0.497406  0.999212  0.276805  -0.077556
    C   C102  0.502616  0.000470  0.723228  -0.073595
    C   C103  0.997406  0.499212  0.276805  -0.077577
    C   C104  0.002616  0.500470  0.723228  -0.073679
    O   O17   0.001149  0.934753  0.535708  -0.668022
    O   O18   0.999051  0.934583  0.461856  -0.650219
    O   O19   0.501149  0.434753  0.535708  -0.667970
    O   O20   0.499051  0.434583  0.461856  -0.650152
    C   C105  0.000166  0.913911  0.498748  0.723210
    C   C106  0.500166  0.413911  0.498748  0.723130
    O   O21   0.062086  0.001503  0.477041  -0.664121
    O   O22   0.937895  0.999335  0.522988  -0.663252
    O   O23   0.562086  0.501503  0.477041  -0.664087
    O   O24   0.437895  0.499335  0.522988  -0.663214
    O   O25   0.061842  0.999407  0.401062  -0.677047
    O   O26   0.938132  0.001170  0.598980  -0.676974
    O   O27   0.561842  0.499407  0.401062  -0.677054
    O   O28   0.438132  0.501170  0.598980  -0.676978
    C   C107  0.081352  0.000401  0.419634  0.694912
    C   C108  0.918626  0.000190  0.580403  0.693770
    C   C109  0.581352  0.500401  0.419634  0.694880
    C   C110  0.418626  0.500190  0.580403  0.693723
    Zn  Zn5   0.999964  0.000104  0.549973  1.313072
    Zn  Zn6   0.000017  0.000317  0.450006  1.311527
    Zn  Zn7   0.499964  0.500104  0.549973  1.313037
    Zn  Zn8   0.500017  0.500317  0.450006  1.311502
    O   O29   0.000714  0.065893  0.538448  -0.651352
    O   O30   0.999042  0.065728  0.463953  -0.668333
    O   O31   0.500714  0.565893  0.538448  -0.651303
    O   O32   0.499042  0.565728  0.463953  -0.668328
    C   C111  0.999818  0.086397  0.501230  0.620666
    C   C112  0.499818  0.586397  0.501230  0.620541
    O   O33   0.465264  0.065125  0.533692  -0.657775
    O   O34   0.536782  0.065333  0.463905  -0.641657
    O   O35   0.965264  0.565125  0.533692  -0.657782
    O   O36   0.036782  0.565333  0.463905  -0.641636
    C   C113  0.500984  0.085976  0.498741  0.778981
    C   C114  0.000984  0.585976  0.498741  0.779034
    O   O37   0.462593  0.998255  0.471881  -0.676246
    O   O38   0.537431  0.000622  0.528151  -0.673911
    O   O39   0.962593  0.498255  0.471881  -0.676245
    O   O40   0.037431  0.500622  0.528151  -0.673905
    O   O41   0.534231  0.000692  0.399713  -0.658246
    O   O42   0.465771  0.999031  0.600337  -0.655620
    O   O43   0.034231  0.500692  0.399713  -0.658272
    O   O44   0.965771  0.499031  0.600337  -0.655635
    C   C115  0.498244  0.999453  0.415386  0.513391
    C   C116  0.501768  0.999865  0.584658  0.509706
    C   C117  0.998244  0.499453  0.415386  0.513357
    C   C118  0.001768  0.499865  0.584658  0.509683
    Zn  Zn9   0.452998  0.999738  0.547536  1.305994
    Zn  Zn10  0.547015  0.999566  0.452497  1.305670
    Zn  Zn11  0.952998  0.499738  0.547536  1.305997
    Zn  Zn12  0.047015  0.499566  0.452497  1.305672
    O   O45   0.463179  0.933988  0.536682  -0.653673
    O   O46   0.534803  0.934192  0.465797  -0.668042
    O   O47   0.963179  0.433988  0.536682  -0.653686
    O   O48   0.034803  0.434192  0.465797  -0.668089
    C   C119  0.499031  0.913429  0.501278  0.782858
    C   C120  0.999031  0.413429  0.501278  0.782898
    C   C121  0.988611  0.796814  0.473302  -0.500118
    C   C122  0.012305  0.797040  0.524107  -0.507203
    C   C123  0.488611  0.296814  0.473302  -0.500082
    C   C124  0.512305  0.297040  0.524107  -0.507164
    H   H21   0.979715  0.779217  0.452646  0.219642
    H   H22   0.021289  0.779620  0.544751  0.221307
    H   H23   0.479715  0.279217  0.452646  0.219634
    H   H24   0.521289  0.279620  0.544751  0.221300
    C   C125  0.988583  0.842149  0.473015  0.383779
    C   C126  0.012110  0.842375  0.524422  0.389863
    C   C127  0.488583  0.342149  0.473015  0.383754
    C   C128  0.512110  0.342375  0.524422  0.389827
    C   C129  0.000288  0.865458  0.498727  -0.209759
    C   C130  0.500288  0.365458  0.498727  -0.209716
    C   C131  0.000516  0.774048  0.498696  0.509151
    C   C132  0.500516  0.274048  0.498696  0.509098
    C   C133  0.535753  0.203075  0.476388  0.192138
    C   C134  0.465646  0.202810  0.520962  0.190379
    C   C135  0.035753  0.703075  0.476388  0.192156
    C   C136  0.965646  0.702810  0.520962  0.190398
    C   C137  0.536022  0.157739  0.476098  0.185760
    C   C138  0.465605  0.157473  0.521269  0.187723
    C   C139  0.036022  0.657739  0.476098  0.185757
    C   C140  0.965605  0.657473  0.521269  0.187736
    C   C141  0.500870  0.134424  0.498695  -0.224757
    C   C142  0.000870  0.634424  0.498695  -0.224796
    C   C143  0.500641  0.225850  0.498678  -0.260490
    C   C144  0.000641  0.725850  0.498678  -0.260525
    C   C145  0.005249  0.202804  0.456630  0.448634
    C   C146  0.993801  0.202930  0.545945  0.449770
    C   C147  0.505249  0.702804  0.456630  0.448664
    C   C148  0.493801  0.702930  0.545945  0.449809
    C   C149  0.005020  0.157466  0.456895  -0.452638
    C   C150  0.994254  0.157594  0.545639  -0.452379
    C   C151  0.505020  0.657466  0.456895  -0.452720
    C   C152  0.494254  0.657594  0.545639  -0.452461
    H   H25   0.009336  0.140290  0.421689  0.209312
    H   H26   0.990023  0.140517  0.580829  0.207522
    H   H27   0.509336  0.640290  0.421689  0.209338
    H   H28   0.490023  0.640517  0.580829  0.207538
    C   C153  0.999696  0.134604  0.501255  0.273628
    C   C154  0.499696  0.634604  0.501255  0.273773
    C   C155  0.999469  0.225732  0.501296  -0.335590
    C   C156  0.499469  0.725732  0.501296  -0.335619
    C   C157  0.466027  0.796661  0.551768  -0.477523
    C   C158  0.532590  0.796752  0.450845  -0.478750
    C   C159  0.966027  0.296661  0.551768  -0.477539
    C   C160  0.032590  0.296752  0.450845  -0.478768
    H   H29   0.439684  0.779051  0.591415  0.219283
    H   H30   0.559013  0.779216  0.411198  0.219419
    H   H31   0.939684  0.279051  0.591415  0.219288
    H   H32   0.059013  0.279216  0.411198  0.219421
    C   C161  0.465653  0.841996  0.551753  0.423320
    C   C162  0.532754  0.842089  0.450851  0.425572
    C   C163  0.965653  0.341996  0.551753  0.423330
    C   C164  0.032754  0.342089  0.450851  0.425581
    C   C165  0.499149  0.865108  0.501299  -0.317808
    C   C166  0.999149  0.365108  0.501299  -0.317813
    C   C167  0.499361  0.773874  0.501306  0.407896
    C   C168  0.999361  0.273874  0.501306  0.407904
    F   F1    0.278463  0.042006  0.294079  -0.196607
    F   F2    0.721364  0.041162  0.706109  -0.195162
    F   F3    0.778463  0.542006  0.294079  -0.196627
    F   F4    0.221364  0.541162  0.706109  -0.195127
    F   F5    0.425022  0.983611  0.350500  -0.223671
    F   F6    0.575705  0.989119  0.648895  -0.221728
    F   F7    0.925022  0.483611  0.350500  -0.223673
    F   F8    0.075705  0.489119  0.648895  -0.221730
    F   F9    0.976097  0.863087  0.448263  -0.168892
    F   F10   0.024493  0.863541  0.549185  -0.169259
    F   F11   0.476097  0.363087  0.448263  -0.168888
    F   F12   0.524493  0.363541  0.549185  -0.169255
    F   F13   0.570815  0.225015  0.452798  -0.151937
    F   F14   0.430474  0.224492  0.544550  -0.151963
    F   F15   0.070815  0.725015  0.452798  -0.151940
    F   F16   0.930474  0.724492  0.544550  -0.151970
    F   F17   0.571054  0.136785  0.454349  -0.128804
    F   F18   0.430679  0.136248  0.543031  -0.128376
    F   F19   0.071054  0.636785  0.454349  -0.128806
    F   F20   0.930679  0.636248  0.543031  -0.128383
    F   F21   0.009829  0.224620  0.413328  -0.204534
    F   F22   0.989112  0.224877  0.589266  -0.204303
    F   F23   0.509829  0.724620  0.413328  -0.204538
    F   F24   0.489112  0.724877  0.589266  -0.204307
    F   F25   0.222581  0.958562  0.350336  -0.220649
    F   F26   0.777541  0.957938  0.649557  -0.221323
    F   F27   0.722581  0.458562  0.350336  -0.220647
    F   F28   0.277541  0.457938  0.649557  -0.221316
    F   F29   0.432614  0.863303  0.602443  -0.181639
    F   F30   0.565692  0.863479  0.400151  -0.182136
    F   F31   0.932614  0.363303  0.602443  -0.181640
    F   F32   0.065692  0.363479  0.400151  -0.182131
    F   F33   0.222189  0.083848  0.278128  -0.210122
    F   F34   0.777498  0.083228  0.722195  -0.210097
    F   F35   0.722189  0.583848  0.278128  -0.210106
    F   F36   0.277498  0.583228  0.722195  -0.210130
    F   F37   0.277397  0.042022  0.149917  -0.203162
    F   F38   0.722441  0.041186  0.850261  -0.202972
    F   F39   0.777397  0.542022  0.149917  -0.203152
    F   F40   0.222441  0.541186  0.850261  -0.202950
    F   F41   0.221514  0.958576  0.206175  -0.217664
    F   F42   0.778619  0.957961  0.793706  -0.218763
    F   F43   0.721514  0.458576  0.206175  -0.217686
    F   F44   0.278619  0.457961  0.793706  -0.218770
    F   F45   0.277789  0.916735  0.222126  -0.206024
    F   F46   0.722488  0.915897  0.777617  -0.205997
    F   F47   0.777789  0.416735  0.222126  -0.205970
    F   F48   0.222488  0.415897  0.777617  -0.205986
    F   F49   0.532469  0.068554  0.104064  -0.187609
    F   F50   0.463966  0.068454  0.899163  -0.181235
    F   F51   0.032469  0.568554  0.104064  -0.187617
    F   F52   0.963966  0.568454  0.899163  -0.181216
    F   F53   0.465686  0.928498  0.170347  -0.168455
    F   F54   0.537972  0.932534  0.826457  -0.164024
    F   F55   0.965686  0.428498  0.170347  -0.168450
    F   F56   0.037972  0.432534  0.826457  -0.163951
