# generated using pymatgen
data_Fe2H19C54N2ClO20
_symmetry_space_group_name_H-M   'P 1'
_cell_length_a   15.78082200
_cell_length_b   9.30521200
_cell_length_c   24.45390600
_cell_angle_alpha   94.60144800
_cell_angle_beta   101.76779300
_cell_angle_gamma   100.29463900
_symmetry_Int_Tables_number   1
_chemical_formula_structural   Fe2H19C54N2ClO20
_chemical_formula_sum   'Fe2 H19 C54 N2 Cl1 O20'
_cell_volume   3433.37450895
_cell_formula_units_Z   1
loop_
 _symmetry_equiv_pos_site_id
 _symmetry_equiv_pos_as_xyz
  1  'x, y, z'
loop_
 _atom_site_type_symbol
 _atom_site_label
 _atom_site_symmetry_multiplicity
 _atom_site_fract_x
 _atom_site_fract_y
 _atom_site_fract_z
 _atom_site_occupancy
  Fe  Fe1  1  0.48768300  0.97392000  0.87540100  1
  Fe  Fe2  1  0.50762200  0.99411100  0.12529600  1
  H  H1  1  0.20605300  0.93240200  0.86850000  1
  H  H2  1  0.06230200  0.92985200  0.89181300  1
  H  H3  1  0.18465300  0.02358400  0.06524900  1
  H  H4  1  0.81157300  0.95208000  0.93561000  1
  H  H5  1  0.78838400  0.03899400  0.13207500  1
  H  H6  1  0.67646800  0.33354400  0.47001400  1
  H  H7  1  0.67215100  0.32299200  0.56780400  1
  H  H8  1  0.31907800  0.63468800  0.53079800  1
  H  H9  1  0.32338300  0.64521100  0.43300300  1
  H  H10  1  0.49662500  0.68881700  0.71714500  1
  H  H11  1  0.47589700  0.22419500  0.68856000  1
  H  H12  1  0.49904400  0.27936000  0.28369300  1
  H  H13  1  0.51949700  0.74394800  0.31220000  1
  H  H14  1  0.49077200  0.42849000  0.85285600  1
  H  H15  1  0.50498100  0.53962400  0.14797100  1
  H  H16  1  0.02346000  0.23039200  0.08456200  1
  H  H17  1  0.15539600  0.28115300  0.16123800  1
  H  H18  1  0.03373600  0.95176300  0.24759000  1
  H  H19  1  0.90206300  0.89729400  0.17052000  1
  C  C1  1  0.20239500  0.95023700  0.91211000  1
  C  C2  1  0.12141900  0.95013900  0.92501000  1
  C  C3  1  0.11625000  0.97984800  0.98008100  1
  C  C4  1  0.19142200  0.00476400  0.02232600  1
  C  C5  1  0.27328300  0.00383600  0.01013000  1
  C  C6  1  0.27882400  0.98055300  0.95401300  1
  C  C7  1  0.03271100  0.98522400  0.99394600  1
  C  C8  1  0.96307200  0.99103300  0.00613600  1
  C  C9  1  0.80471100  0.97061000  0.97852400  1
  C  C10  1  0.72252500  0.96802900  0.99061700  1
  C  C11  1  0.71674300  0.98934500  0.04669600  1
  C  C12  1  0.79304100  0.02090800  0.08867000  1
  C  C13  1  0.87485100  0.02661800  0.07607700  1
  C  C14  1  0.88013400  0.99820800  0.02069400  1
  C  C15  1  0.47754200  0.17070800  0.79493000  1
  C  C16  1  0.36330900  0.99758500  0.93677500  1
  C  C17  1  0.64588800  0.95205900  0.94302900  1
  C  C18  1  0.49304200  0.70255800  0.82774700  1
  C  C19  1  0.50282900  0.26564000  0.17311500  1
  C  C20  1  0.34977500  0.01822100  0.05768200  1
  C  C21  1  0.63222800  0.97103500  0.06392000  1
  C  C22  1  0.51789600  0.79735000  0.20582000  1
  C  C23  1  0.44070800  0.55133500  0.38195200  1
  C  C24  1  0.56495500  0.44171500  0.39487400  1
  C  C25  1  0.56312100  0.43427000  0.45093600  1
  C  C26  1  0.49899500  0.48706800  0.47246200  1
  C  C27  1  0.43733000  0.54588100  0.43782900  1
  C  C28  1  0.62531800  0.37558100  0.48573000  1
  C  C29  1  0.62286800  0.36964000  0.54153900  1
  C  C30  1  0.55820200  0.42231700  0.56297800  1
  C  C31  1  0.49654000  0.48114000  0.52834600  1
  C  C32  1  0.43241800  0.53394800  0.54987500  1
  C  C33  1  0.37022400  0.59264300  0.51508100  1
  C  C34  1  0.37266700  0.59856700  0.45927000  1
  C  C35  1  0.55481700  0.41684300  0.61885200  1
  C  C36  1  0.43058900  0.52650800  0.60593800  1
  C  C37  1  0.49225800  0.58316300  0.73293800  1
  C  C38  1  0.49249800  0.57306400  0.78911100  1
  C  C39  1  0.49055200  0.43807400  0.80910500  1
  C  C40  1  0.48389400  0.31286600  0.77303900  1
  C  C41  1  0.48136900  0.32251900  0.71684200  1
  C  C42  1  0.48793900  0.45802400  0.69690000  1
  C  C43  1  0.50337200  0.38499800  0.26788900  1
  C  C44  1  0.50324400  0.39509200  0.21173000  1
  C  C45  1  0.50515200  0.53005100  0.19171600  1
  C  C46  1  0.51164900  0.65524200  0.22774700  1
  C  C47  1  0.51411100  0.64561900  0.28394000  1
  C  C48  1  0.50759500  0.51013700  0.30390400  1
  C  C49  1  0.95442000  0.05792300  0.12170300  1
  C  C50  1  0.02580400  0.16615500  0.11955800  1
  C  C51  1  0.09984200  0.19621500  0.16301700  1
  C  C52  1  0.10285300  0.11891200  0.20890000  1
  C  C53  1  0.03151500  0.01215000  0.21152800  1
  C  C54  1  0.95731100  0.98217400  0.16819800  1
  N  N1  1  0.50420600  0.50002300  0.36139700  1
  N  N2  1  0.49132500  0.46816600  0.63940800  1
  Cl  Cl1  1  0.19691400  0.15722500  0.26404100  1
  O  O1  1  0.51837500  0.16524800  0.84698700  1
  O  O2  1  0.42544900  0.11397900  0.95765600  1
  O  O3  1  0.42641500  0.05280400  0.76433900  1
  O  O4  1  0.37225800  0.90836000  0.89482100  1
  O  O5  1  0.57076900  0.98357400  0.95019400  1
  O  O6  1  0.65586600  0.92269400  0.89162300  1
  O  O7  1  0.49332300  0.83256800  0.81041800  1
  O  O8  1  0.49014600  0.68793100  0.88030300  1
  O  O9  1  0.50187700  0.13538500  0.19032900  1
  O  O10  1  0.50628900  0.28046300  0.12065300  1
  O  O11  1  0.42432600  0.98425900  0.05051700  1
  O  O12  1  0.34012100  0.04901600  0.10907100  1
  O  O13  1  0.56892800  0.91535500  0.23639800  1
  O  O14  1  0.62293600  0.06013800  0.10580100  1
  O  O15  1  0.47707200  0.80267100  0.15374600  1
  O  O16  1  0.57046800  0.85411800  0.04306700  1
  O  O17  1  0.37934400  0.60525400  0.34755800  1
  O  O18  1  0.62885800  0.39440200  0.37394700  1
  O  O19  1  0.61616800  0.36289200  0.65324400  1
  O  O20  1  0.36670400  0.57386300  0.62687300  1
