# Generated by REPEAT Assigner based on pymatgen
data_DB0-m3_o90_o6_f0_fsc.sym.22_sqe
_audit_creation_date              2022-05-24
_audit_creation_method            REPEAT_Assigner
_cell_length_a                    6.709222
_cell_length_b                    14.424869
_cell_length_c                    15.859101
_cell_angle_alpha                 96.165297
_cell_angle_beta                  81.277813
_cell_angle_gamma                 89.911688
_cell_volume                      1508.065529
_symmetry_space_group_name_H-M    P1
_symmetry_Int_Tables_number       1
loop_
    _symmetry_equiv_pos_site_id
    _symmetry_equiv_pos_as_xyz
    1  x,y,z
loop_
    _atom_site_type_symbol
    _atom_site_label
    _atom_site_fract_x
    _atom_site_fract_y
    _atom_site_fract_z
    _atom_type_partial_charge
    C   C1   0.328565  0.009381  0.692102  -0.121319
    C   C2   0.674043  0.989413  0.300405  -0.124170
    C   C3   0.199429  0.004629  0.767902  0.122904
    C   C4   0.803186  0.994166  0.224608  0.123710
    H   H1   0.040758  0.994384  0.766359  0.020285
    H   H2   0.961856  0.004411  0.226154  0.020653
    C   C5   0.269734  0.012758  0.845355  -0.407306
    C   C6   0.732887  0.986035  0.147154  -0.414455
    C   C7   0.471514  0.026893  0.847692  0.112080
    C   C8   0.531104  0.971904  0.144816  0.122511
    H   H3   0.527815  0.033667  0.908375  -0.009022
    H   H4   0.474804  0.965132  0.084133  -0.014507
    C   C9   0.602494  0.030255  0.772243  -0.158875
    C   C10  0.400120  0.968544  0.220265  -0.165033
    H   H5   0.761351  0.039101  0.774293  0.130739
    H   H6   0.241263  0.959699  0.218215  0.131202
    C   C11  0.533901  0.020325  0.693952  -0.041778
    C   C12  0.468714  0.978469  0.298555  -0.032855
    N   N1   0.197140  0.013520  0.000327  -0.194834
    N   N2   0.805489  0.985270  0.992181  -0.192049
    N   N3   0.069843  0.006900  0.071643  -0.262505
    N   N4   0.932786  0.991890  0.920865  -0.268714
    C   C13  0.872952  0.992658  0.068218  0.683146
    C   C14  0.129675  0.006133  0.924291  0.682394
    O   O1   0.762640  0.930064  0.586859  -0.728668
    O   O2   0.239958  0.068705  0.405648  -0.704525
    O   O3   0.763553  0.090189  0.589593  -0.660997
    O   O4   0.239053  0.908627  0.402917  -0.681000
    C   C15  0.686153  0.013144  0.616625  0.849484
    C   C16  0.316480  0.985649  0.375886  0.843094
    O   O5   0.177834  0.084595  0.590576  -0.721223
    O   O6   0.824781  0.914220  0.401931  -0.701960
    O   O7   0.178479  0.924027  0.582133  -0.633038
    O   O8   0.824126  0.074744  0.410376  -0.661855
    C   C17  0.236386  0.005533  0.613982  0.788006
    C   C18  0.766192  0.993261  0.378531  0.796041
    Zn  Zn1  0.005937  0.103043  0.499690  1.094723
    Zn  Zn2  0.996672  0.895750  0.492813  1.082368
    H   H7   0.319565  0.415052  0.492616  0.188191
    H   H8   0.687772  0.581971  0.487701  0.190723
    C   C19  0.175105  0.548727  0.497665  -0.075583
    C   C20  0.825544  0.451196  0.501265  -0.075675
    C   C21  0.000093  0.594066  0.489519  0.345980
    C   C22  0.005281  0.403792  0.496246  0.341621
    C   C23  0.824841  0.545050  0.491136  -0.297326
    C   C24  0.180732  0.452709  0.494057  -0.294415
    C   C25  0.995131  0.693502  0.489367  -0.015016
    C   C26  0.008547  0.304949  0.500534  -0.008014
    N   N5   0.010809  0.225063  0.502839  -0.022893
    N   N6   0.991834  0.773722  0.489579  -0.012570
    C   C27  0.345151  0.603297  0.520343  0.377218
    H   H9   0.438311  0.575612  0.562049  0.009921
    O   O9   0.361779  0.684023  0.504531  -0.371746
    C   C28  0.637932  0.404239  0.527123  0.381132
    H   H10  0.515174  0.444690  0.566199  0.006527
    O   O10  0.630920  0.319398  0.517016  -0.370728
