# generated using pymatgen
data_FeH14C25O9
_symmetry_space_group_name_H-M   'P 1'
_cell_length_a   15.29825400
_cell_length_b   9.30207500
_cell_length_c   18.39184000
_cell_angle_alpha   90.11741600
_cell_angle_beta   103.91370700
_cell_angle_gamma   107.82217000
_symmetry_Int_Tables_number   1
_chemical_formula_structural   FeH14C25O9
_chemical_formula_sum   'Fe2 H28 C50 O18'
_cell_volume   2410.43550178
_cell_formula_units_Z   2
loop_
 _symmetry_equiv_pos_site_id
 _symmetry_equiv_pos_as_xyz
  1  'x, y, z'
loop_
 _atom_site_type_symbol
 _atom_site_label
 _atom_site_symmetry_multiplicity
 _atom_site_fract_x
 _atom_site_fract_y
 _atom_site_fract_z
 _atom_site_occupancy
  Fe  Fe1  1  0.48481100  0.97501900  0.83932300  1
  Fe  Fe2  1  0.49909900  0.97456100  0.16253700  1
  H  H1  1  0.82365900  0.98186000  0.92873000  1
  H  H2  1  0.05178600  0.08036200  0.06679000  1
  H  H3  1  0.92908800  0.85790700  0.93105300  1
  H  H4  1  0.02726700  0.87433700  0.83916800  1
  H  H5  1  0.17991600  0.89105900  0.81437300  1
  H  H6  1  0.16042300  0.97180900  0.07284100  1
  H  H7  1  0.49151000  0.72127500  0.62990400  1
  H  H8  1  0.47010700  0.25636900  0.59359900  1
  H  H9  1  0.49910400  0.23190900  0.37337100  1
  H  H10  1  0.52037500  0.69684000  0.40993400  1
  H  H11  1  0.50091000  0.43957200  0.81255600  1
  H  H12  1  0.48941100  0.51398900  0.19092000  1
  H  H13  1  0.45909500  0.61308800  0.50219300  1
  H  H14  1  0.53165300  0.33996100  0.50129100  1
  H  H15  1  0.79254900  0.24539800  0.21543900  1
  H  H16  1  0.78658900  0.24563700  0.34752300  1
  H  H17  1  0.79391200  0.94394900  0.53427900  1
  H  H18  1  0.86634600  0.88868600  0.48257000  1
  H  H19  1  0.73746800  0.80838500  0.45352400  1
  H  H20  1  0.81019600  0.79851900  0.35353100  1
  H  H21  1  0.81516500  0.80043400  0.22293100  1
  H  H22  1  0.97753800  0.23619600  0.23076300  1
  H  H23  1  0.11171400  0.24432700  0.33658500  1
  H  H24  1  0.30426100  0.97477600  0.42147500  1
  H  H25  1  0.27759500  0.93304900  0.32129700  1
  H  H26  1  0.19628200  0.82857500  0.37497200  1
  H  H27  1  0.11978700  0.82566600  0.24580100  1
  H  H28  1  0.98579300  0.81752000  0.14272800  1
  C  C1  1  0.80710700  0.02028300  0.13205300  1
  C  C2  1  0.89112200  0.01865800  0.11730900  1
  C  C3  1  0.89643900  0.00083500  0.04408700  1
  C  C4  1  0.81755900  0.98703800  0.98581300  1
  C  C5  1  0.73197300  0.98412500  0.99965500  1
  C  C6  1  0.72640700  0.99880200  0.07371200  1
  C  C7  1  0.98769800  0.00725000  0.02898900  1
  C  C8  1  0.99311000  0.92766800  0.97039700  1
  C  C9  1  0.09014400  0.90048400  0.88533700  1
  C  C10  1  0.17614100  0.90860300  0.87150800  1
  C  C11  1  0.25789000  0.94727700  0.92931300  1
  C  C12  1  0.25209200  0.96857400  0.00266400  1
  C  C13  1  0.16552900  0.96081300  0.01579600  1
  C  C14  1  0.08500700  0.93193100  0.95717600  1
  C  C15  1  0.48028200  0.18765700  0.73437600  1
  C  C16  1  0.34906900  0.97574300  0.91037700  1
  C  C17  1  0.65131400  0.97144500  0.93430300  1
  C  C18  1  0.49638900  0.71620500  0.77805500  1
  C  C19  1  0.49384300  0.23742000  0.22504000  1
  C  C20  1  0.33333333  0.98808300  0.06798400  1
  C  C21  1  0.63494200  0.97131400  0.09207800  1
  C  C22  1  0.50840300  0.76481900  0.26883600  1
  C  C23  1  0.49604400  0.59431800  0.72688500  1
  C  C24  1  0.49109700  0.61321200  0.65155200  1
  C  C25  1  0.48612200  0.49443100  0.60343900  1
  C  C26  1  0.48071900  0.35391700  0.63042300  1
  C  C27  1  0.48803000  0.33605700  0.70570700  1
  C  C28  1  0.49763400  0.45658500  0.75400700  1
  C  C29  1  0.48265900  0.51968900  0.52389600  1
  C  C30  1  0.50812900  0.43340400  0.47958800  1
  C  C31  1  0.49956500  0.34006000  0.35181500  1
  C  C32  1  0.49468400  0.35922600  0.27649600  1
  C  C33  1  0.49308800  0.49697600  0.24951800  1
  C  C34  1  0.50240900  0.61721200  0.29784800  1
  C  C35  1  0.50998400  0.59937100  0.37314000  1
  C  C36  1  0.50470400  0.45881300  0.40005500  1
  C  C37  1  0.80124100  0.02083800  0.21024900  1
  C  C38  1  0.79484900  0.14659700  0.24574100  1
  C  C39  1  0.79215100  0.14706400  0.32011800  1
  C  C40  1  0.79698600  0.02300300  0.35998500  1
  C  C41  1  0.79812500  0.91136800  0.47749100  1
  C  C42  1  0.80541700  0.89781800  0.32463700  1
  C  C43  1  0.80820500  0.89792600  0.25022000  1
  C  C44  1  0.97243700  0.02573000  0.18007400  1
  C  C45  1  0.00779800  0.14481000  0.23486500  1
  C  C46  1  0.08400700  0.15022000  0.29405000  1
  C  C47  1  0.12548800  0.03689500  0.29930200  1
  C  C48  1  0.24629200  0.94032400  0.36914100  1
  C  C49  1  0.08998100  0.91723900  0.24413400  1
  C  C50  1  0.01391100  0.91241000  0.18483600  1
  O  O1  1  0.52515100  0.17986000  0.80394800  1
  O  O2  1  0.41847000  0.10098600  0.93794300  1
  O  O3  1  0.42210400  0.06476700  0.69327700  1
  O  O4  1  0.35832900  0.88689300  0.85911100  1
  O  O5  1  0.57027900  0.98205800  0.94175900  1
  O  O6  1  0.66243100  0.95885700  0.86628100  1
  O  O7  1  0.48955200  0.84597000  0.75367100  1
  O  O8  1  0.49903200  0.69308100  0.84880500  1
  O  O9  1  0.49545200  0.10464700  0.24832300  1
  O  O10  1  0.49464900  0.26265600  0.15498500  1
  O  O11  1  0.41081100  0.96328900  0.06091400  1
  O  O12  1  0.32438600  0.01329100  0.13562000  1
  O  O13  1  0.56618300  0.88885500  0.30920800  1
  O  O14  1  0.62384300  0.06471200  0.14011900  1
  O  O15  1  0.46192300  0.77061100  0.19953200  1
  O  O16  1  0.56682500  0.84337800  0.06692100  1
  O  O17  1  0.79382000  0.02800500  0.43263300  1
  O  O18  1  0.19978400  0.04646800  0.35830900  1
