# generated using pymatgen
data_CuH22C23N7O8
_symmetry_space_group_name_H-M   'P 1'
_cell_length_a   11.32178900
_cell_length_b   15.61298000
_cell_length_c   17.06059200
_cell_angle_alpha   96.36039100
_cell_angle_beta   90.76820500
_cell_angle_gamma   80.47354100
_symmetry_Int_Tables_number   1
_chemical_formula_structural   CuH22C23N7O8
_chemical_formula_sum   'Cu2 H44 C46 N14 O16'
_cell_volume   2955.81396716
_cell_formula_units_Z   2
loop_
 _symmetry_equiv_pos_site_id
 _symmetry_equiv_pos_as_xyz
  1  'x, y, z'
loop_
 _atom_site_type_symbol
 _atom_site_label
 _atom_site_symmetry_multiplicity
 _atom_site_fract_x
 _atom_site_fract_y
 _atom_site_fract_z
 _atom_site_occupancy
  Cu  Cu1  1  0.49153600  0.41351900  0.50381100  1
  Cu  Cu2  1  0.49485300  0.58483500  0.50935800  1
  H  H1  1  0.89448900  0.38244000  0.49979200  1
  H  H2  1  0.09267500  0.61614400  0.52049800  1
  H  H3  1  0.51166800  0.37718100  0.74555100  1
  H  H4  1  0.44684400  0.62078000  0.26857000  1
  H  H5  1  0.49433200  0.33994200  0.10321900  1
  H  H6  1  0.50702500  0.65461300  0.91115700  1
  H  H7  1  0.59724400  0.27061100  0.59944800  1
  H  H8  1  0.35644800  0.73542400  0.43314600  1
  H  H9  1  0.66927900  0.85756400  0.58547700  1
  H  H10  1  0.34704300  0.13401100  0.40386700  1
  H  H11  1  0.64713400  0.70467400  0.58868800  1
  H  H12  1  0.36972200  0.28702800  0.40370700  1
  H  H13  1  0.89312300  0.64295900  0.55118300  1
  H  H14  1  0.85326100  0.76642900  0.48716100  1
  H  H15  1  0.77837600  0.75110000  0.39372400  1
  H  H16  1  0.93894200  0.74364000  0.39656100  1
  H  H17  1  0.09849800  0.35413400  0.51717000  1
  H  H18  1  0.12455500  0.23405500  0.42437200  1
  H  H19  1  0.17805400  0.25180400  0.32935200  1
  H  H20  1  0.01961300  0.26286200  0.34744000  1
  H  H21  1  0.59469500  0.34923100  0.93881100  1
  H  H22  1  0.53722500  0.22076900  0.96392400  1
  H  H23  1  0.44442700  0.17423900  0.88963200  1
  H  H24  1  0.37622200  0.24270000  0.97490500  1
  H  H25  1  0.36011500  0.64054800  0.07226900  1
  H  H26  1  0.46377300  0.76168400  0.02495200  1
  H  H27  1  0.53412000  0.81995700  0.10504800  1
  H  H28  1  0.37557100  0.81587700  0.10907400  1
  H  H29  1  0.47966400  0.27317400  0.22457000  1
  H  H30  1  0.61223000  0.16170100  0.26863400  1
  H  H31  1  0.73666800  0.19386600  0.32501300  1
  H  H32  1  0.74870800  0.17138500  0.21887500  1
  H  H33  1  0.42820400  0.72142500  0.78075100  1
  H  H34  1  0.52192700  0.83597600  0.76211900  1
  H  H35  1  0.67412200  0.80870500  0.72591200  1
  H  H36  1  0.64512300  0.82155700  0.83056100  1
  H  H37  1  0.53777900  0.06803300  0.64750300  1
  H  H38  1  0.74267000  0.97299000  0.67789000  1
  H  H39  1  0.73051700  0.06956800  0.74875300  1
  H  H40  1  0.86179100  0.03746300  0.68645000  1
  H  H41  1  0.26954500  0.88390800  0.40895300  1
  H  H42  1  0.26804700  0.99612900  0.29437000  1
  H  H43  1  0.27269300  0.88139600  0.25971500  1
  H  H44  1  0.38503500  0.93985300  0.22725100  1
  C  C1  1  0.49038800  0.48749600  0.35479700  1
  C  C2  1  0.49668100  0.51067600  0.65855100  1
  C  C3  1  0.26260200  0.52887100  0.50831600  1
  C  C4  1  0.72353200  0.46951600  0.50346300  1
  C  C5  1  0.13086600  0.54781300  0.50954700  1
  C  C6  1  0.85560000  0.45062300  0.50100600  1
  C  C7  1  0.05964200  0.48643700  0.49736800  1
  C  C8  1  0.92673100  0.51189300  0.50028300  1
  C  C9  1  0.48570500  0.48172500  0.26790000  1
  C  C10  1  0.50066200  0.51575700  0.74554300  1
  C  C11  1  0.46286300  0.55851500  0.23269700  1
  C  C12  1  0.50667000  0.43941800  0.78089700  1
  C  C13  1  0.45459100  0.55793300  0.15170100  1
  C  C14  1  0.51180500  0.43935100  0.86200400  1
  C  C15  1  0.46565500  0.47824200  0.10483700  1
  C  C16  1  0.51026200  0.51797100  0.90960200  1
  C  C17  1  0.48505100  0.40178900  0.13980500  1
  C  C18  1  0.50634900  0.59367400  0.87444200  1
  C  C19  1  0.49870000  0.40231000  0.22010600  1
  C  C20  1  0.50228100  0.59365400  0.79356700  1
  C  C21  1  0.42248900  0.76371000  0.46900100  1
  C  C22  1  0.54674200  0.23864100  0.55425500  1
  C  C23  1  0.43245700  0.85041000  0.46562200  1
  C  C24  1  0.53690200  0.15149200  0.55646900  1
  C  C25  1  0.52051000  0.88597900  0.51033300  1
  C  C26  1  0.46393400  0.11315200  0.50126200  1
  C  C27  1  0.59766100  0.83178200  0.55325100  1
  C  C28  1  0.40496800  0.16278700  0.44647600  1
  C  C29  1  0.58504000  0.74576500  0.55459300  1
  C  C30  1  0.41832300  0.24865600  0.44607300  1
  C  C31  1  0.87286100  0.63356900  0.43248300  1
  C  C32  1  0.86006600  0.72957000  0.42766000  1
  C  C33  1  0.10095300  0.36869100  0.40078400  1
  C  C34  1  0.10635700  0.27366300  0.37431500  1
  C  C35  1  0.44494000  0.31061500  0.88820500  1
  C  C36  1  0.45134900  0.23240200  0.93198600  1
  C  C37  1  0.49066300  0.69799400  0.12985700  1
  C  C38  1  0.46435500  0.77889800  0.08963100  1
  C  C39  1  0.64171600  0.29327800  0.26119800  1
  C  C40  1  0.68723100  0.19925900  0.26873700  1
  C  C41  1  0.60584200  0.70276900  0.76877800  1
  C  C42  1  0.61159000  0.79806400  0.77201200  1
  C  C43  1  0.70541400  0.09482600  0.62866000  1
  C  C44  1  0.76354700  0.04017000  0.68925300  1
  C  C45  1  0.40499300  0.90787500  0.34534400  1
  C  C46  1  0.32752000  0.93290100  0.27753200  1
  N  N1  1  0.45993200  0.47178600  0.02154000  1
  N  N2  1  0.51431100  0.52433300  0.99317600  1
  N  N3  1  0.49653200  0.71326600  0.51425000  1
  N  N4  1  0.48929800  0.28524500  0.49907200  1
  N  N5  1  0.53764400  0.97432100  0.51282700  1
  N  N6  1  0.44509100  0.02556200  0.49942000  1
  N  N7  1  0.87552600  0.60138400  0.50294300  1
  N  N8  1  0.11076900  0.39750500  0.47793400  1
  N  N9  1  0.53517800  0.35783500  0.89309800  1
  N  N10  1  0.41681800  0.63800200  0.11992300  1
  N  N11  1  0.52361500  0.32120400  0.25123900  1
  N  N12  1  0.49960400  0.67396000  0.76231800  1
  N  N13  1  0.58490100  0.10875500  0.62173000  1
  N  N14  1  0.35485600  0.89836500  0.41455700  1
  O  O1  1  0.49420200  0.41648600  0.38965200  1
  O  O2  1  0.49302900  0.58190600  0.62386900  1
  O  O3  1  0.48777000  0.56459500  0.39482100  1
  O  O4  1  0.49761700  0.43384200  0.61862900  1
  O  O5  1  0.31789900  0.44847700  0.50848600  1
  O  O6  1  0.66827300  0.55009800  0.50418600  1
  O  O7  1  0.32029200  0.59516400  0.50884000  1
  O  O8  1  0.66596500  0.40323400  0.50496600  1
  O  O9  1  0.88091600  0.58389300  0.37174600  1
  O  O10  1  0.08621400  0.42073700  0.35187600  1
  O  O11  1  0.35665800  0.33216500  0.84879900  1
  O  O12  1  0.57943500  0.68625800  0.17102700  1
  O  O13  1  0.71204300  0.34483700  0.26393100  1
  O  O14  1  0.69825600  0.65072600  0.77237800  1
  O  O15  1  0.76725000  0.12624600  0.58527100  1
  O  O16  1  0.51360500  0.89598000  0.33787200  1
