# generated using pymatgen
data_CoH13C20NO4
_symmetry_space_group_name_H-M   'P 1'
_cell_length_a   9.14515400
_cell_length_b   10.99820500
_cell_length_c   15.75966300
_cell_angle_alpha   90.00000000
_cell_angle_beta   96.01976200
_cell_angle_gamma   90.00000000
_symmetry_Int_Tables_number   1
_chemical_formula_structural   CoH13C20NO4
_chemical_formula_sum   'Co2 H26 C40 N2 O8'
_cell_volume   1576.37064531
_cell_formula_units_Z   2
loop_
 _symmetry_equiv_pos_site_id
 _symmetry_equiv_pos_as_xyz
  1  'x, y, z'
loop_
 _atom_site_type_symbol
 _atom_site_label
 _atom_site_symmetry_multiplicity
 _atom_site_fract_x
 _atom_site_fract_y
 _atom_site_fract_z
 _atom_site_occupancy
  Co  Co1  1  0.84677500  0.99636900  0.99868400  1
  Co  Co2  1  0.14078000  0.00437200  0.00133000  1
  H  H1  1  0.35893200  0.81625900  0.02918500  1
  H  H2  1  0.39287300  0.19208000  0.99410600  1
  H  H3  1  0.41154300  0.91720900  0.11803000  1
  H  H4  1  0.38801700  0.13175900  0.10048300  1
  H  H5  1  0.63676000  0.86553200  0.09748800  1
  H  H6  1  0.62127100  0.08154100  0.11774300  1
  H  H7  1  0.58988600  0.80856200  0.99065700  1
  H  H8  1  0.63779500  0.18395000  0.02919600  1
  H  H9  1  0.37147800  0.89667400  0.89038900  1
  H  H10  1  0.33622300  0.05531000  0.86977200  1
  H  H11  1  0.60272600  0.94783200  0.86822600  1
  H  H12  1  0.57514600  0.10619200  0.89071600  1
  H  H13  1  0.00186900  0.72023000  0.49925000  1
  H  H14  1  0.90376700  0.29530700  0.48933600  1
  H  H15  1  0.96736300  0.59661500  0.13420600  1
  H  H16  1  0.02314200  0.41157300  0.13352000  1
  H  H17  1  0.12661300  0.90132400  0.27726800  1
  H  H18  1  0.00597500  0.08720600  0.27318100  1
  H  H19  1  0.12845400  0.79054600  0.40756800  1
  H  H20  1  0.01141400  0.19477800  0.40348000  1
  H  H21  1  0.97104300  0.19329800  0.59564400  1
  H  H22  1  0.09916200  0.79092800  0.61299400  1
  H  H23  1  0.95484300  0.08679600  0.72391200  1
  H  H24  1  0.07977400  0.89965200  0.74075600  1
  H  H25  1  0.90263100  0.59564900  0.85582100  1
  H  H26  1  0.95971500  0.41138000  0.86446300  1
  C  C1  1  0.97943200  0.82843100  0.88018000  1
  C  C2  1  0.96622300  0.17088700  0.87858700  1
  C  C3  1  0.00826500  0.17108000  0.11957000  1
  C  C4  1  0.02246700  0.83304200  0.12260200  1
  C  C5  1  0.41753300  0.90159500  0.04893600  1
  C  C6  1  0.42232600  0.11340700  0.03653900  1
  C  C7  1  0.57773900  0.88615100  0.03435400  1
  C  C8  1  0.58788400  0.09796100  0.04897900  1
  C  C9  1  0.39617700  0.99007100  0.91414000  1
  C  C10  1  0.55957900  0.01220700  0.91348800  1
  C  C11  1  0.01940400  0.56221900  0.42418800  1
  C  C12  1  0.99327800  0.43921900  0.42191500  1
  C  C13  1  0.01144100  0.62333200  0.50081300  1
  C  C14  1  0.95692600  0.38196900  0.49540700  1
  C  C15  1  0.99831300  0.56216300  0.57716500  1
  C  C16  1  0.97114000  0.43912100  0.57441400  1
  C  C17  1  0.01582000  0.56436000  0.27062600  1
  C  C18  1  0.00638500  0.43728000  0.26947800  1
  C  C19  1  0.00445000  0.63393000  0.19587800  1
  C  C20  1  0.01339500  0.37017800  0.19451900  1
  C  C21  1  0.03815100  0.75624300  0.19893300  1
  C  C22  1  0.01322100  0.24484400  0.19655700  1
  C  C23  1  0.09024600  0.80796100  0.27518400  1
  C  C24  1  0.00693200  0.18522000  0.27198600  1
  C  C25  1  0.08767400  0.74401800  0.34971500  1
  C  C26  1  0.00402900  0.24872100  0.34618800  1
  C  C27  1  0.04015500  0.62386200  0.34873400  1
  C  C28  1  0.99959300  0.37510800  0.34601200  1
  C  C29  1  0.95723200  0.24823200  0.65067800  1
  C  C30  1  0.04776200  0.74409000  0.66199500  1
  C  C31  1  0.95159300  0.18482600  0.72488500  1
  C  C32  1  0.03959800  0.80737200  0.73587900  1
  C  C33  1  0.95106500  0.24440900  0.80078900  1
  C  C34  1  0.97916100  0.75545400  0.80286400  1
  C  C35  1  0.95112300  0.36990300  0.80232300  1
  C  C36  1  0.94386500  0.63348000  0.80000900  1
  C  C37  1  0.95296000  0.43711900  0.72676800  1
  C  C38  1  0.96375000  0.56428700  0.72744800  1
  C  C39  1  0.95760000  0.37493000  0.64994200  1
  C  C40  1  0.00131900  0.62393600  0.65476000  1
  N  N1  1  0.35230900  0.00382800  0.00005900  1
  N  N2  1  0.63506900  0.99659300  0.99881700  1
  O  O1  1  0.85626100  0.86889600  0.90613900  1
  O  O2  1  0.84821900  0.12599900  0.90764400  1
  O  O3  1  0.88255100  0.12150400  0.09175200  1
  O  O4  1  0.89108300  0.86671700  0.08945800  1
  O  O5  1  0.13021400  0.13450600  0.09050200  1
  O  O6  1  0.13978400  0.88287100  0.09644000  1
  O  O7  1  0.10602700  0.87297500  0.91192900  1
  O  O8  1  0.09705800  0.13035700  0.90748600  1
