# generated using pymatgen
data_Cu2H33C46N3O8
_symmetry_space_group_name_H-M   'P 1'
_cell_length_a   10.68044600
_cell_length_b   14.48541000
_cell_length_c   15.13881200
_cell_angle_alpha   65.06741500
_cell_angle_beta   103.11539300
_cell_angle_gamma   103.71034000
_symmetry_Int_Tables_number   1
_chemical_formula_structural   Cu2H33C46N3O8
_chemical_formula_sum   'Cu2 H33 C46 N3 O8'
_cell_volume   2041.78948461
_cell_formula_units_Z   1
loop_
 _symmetry_equiv_pos_site_id
 _symmetry_equiv_pos_as_xyz
  1  'x, y, z'
loop_
 _atom_site_type_symbol
 _atom_site_label
 _atom_site_symmetry_multiplicity
 _atom_site_fract_x
 _atom_site_fract_y
 _atom_site_fract_z
 _atom_site_occupancy
  Cu  Cu1  1  0.46674400  0.91712600  0.47799400  1
  Cu  Cu2  1  0.53419000  0.08163100  0.52638500  1
  H  H1  1  0.05419500  0.94861400  0.38063000  1
  H  H2  1  0.07765800  0.08515600  0.34820700  1
  H  H3  1  0.86261700  0.07086000  0.34503600  1
  H  H4  1  0.84389400  0.93188200  0.39516700  1
  H  H5  1  0.85762400  0.83270800  0.57741100  1
  H  H6  1  0.16027200  0.08157900  0.59948400  1
  H  H7  1  0.15073500  0.16184700  0.46944800  1
  H  H8  1  0.94001200  0.16419700  0.46013900  1
  H  H9  1  0.95363300  0.09165900  0.59193200  1
  H  H10  1  0.12005900  0.89557700  0.65689800  1
  H  H11  1  0.91379600  0.90104800  0.65771000  1
  H  H12  1  0.40147400  0.34062600  0.86489200  1
  H  H13  1  0.47703100  0.67740700  0.76120400  1
  H  H14  1  0.59664700  0.93540900  0.84102800  1
  H  H15  1  0.60710500  0.65808300  0.13935000  1
  H  H16  1  0.38749400  0.17627300  0.99070100  1
  H  H17  1  0.40735400  0.06334000  0.16326700  1
  H  H18  1  0.52210500  0.32139100  0.24313500  1
  H  H19  1  0.44371100  0.52082900  0.80714600  1
  H  H20  1  0.56533800  0.47787500  0.19710500  1
  H  H21  1  0.61891900  0.82244300  0.01357000  1
  H  H22  1  0.77918400  0.46289500  0.68595100  1
  H  H23  1  0.56196700  0.72316700  0.54629000  1
  H  H24  1  0.26808900  0.85818800  0.32862100  1
  H  H25  1  0.24228300  0.54694300  0.30146400  1
  H  H26  1  0.80767300  0.29734700  0.70970700  1
  H  H27  1  0.74115700  0.14516900  0.66894000  1
  H  H28  1  0.43841900  0.27533400  0.45827700  1
  H  H29  1  0.67095100  0.60659100  0.60757900  1
  H  H30  1  0.35082900  0.40340100  0.37960900  1
  H  H31  1  0.21062700  0.71088100  0.28035700  1
  H  H32  1  0.00278400  0.79675400  0.51527300  1
  H  H33  1  0.05495000  0.74326200  0.63714900  1
  C  C1  1  0.47910700  0.11909200  0.31854300  1
  C  C2  1  0.25940400  0.99736800  0.50364100  1
  C  C3  1  0.52188000  0.87969600  0.68577600  1
  C  C4  1  0.74154300  0.00012000  0.50269000  1
  C  C5  1  0.04206300  0.00892700  0.40345200  1
  C  C6  1  0.89914400  0.00251800  0.40574900  1
  C  C7  1  0.06348700  0.89866200  0.58483000  1
  C  C8  1  0.10836600  0.08867400  0.52512900  1
  C  C9  1  0.11923200  0.99718700  0.50419400  1
  C  C10  1  0.88152400  0.99918300  0.50386400  1
  C  C11  1  0.92250900  0.90144200  0.58592500  1
  C  C12  1  0.96643800  0.09206100  0.52105300  1
  C  C13  1  0.46699200  0.18743700  0.21361900  1
  C  C14  1  0.53508200  0.81133400  0.79068900  1
  C  C15  1  0.41762600  0.20977100  0.04539800  1
  C  C16  1  0.42885400  0.14579900  0.14319600  1
  C  C17  1  0.49371400  0.29362900  0.18505300  1
  C  C18  1  0.48312000  0.35997200  0.08555500  1
  C  C19  1  0.44432600  0.31545400  0.01682800  1
  C  C20  1  0.50963800  0.46865500  0.05271500  1
  C  C21  1  0.49548500  0.53008200  0.95157300  1
  C  C22  1  0.45638400  0.48110200  0.88568500  1
  C  C23  1  0.43159000  0.37583100  0.91827800  1
  C  C24  1  0.55045800  0.51761900  0.11858700  1
  C  C25  1  0.57555000  0.62288900  0.08598300  1
  C  C26  1  0.56113600  0.68328200  0.98744700  1
  C  C27  1  0.52111600  0.63877600  0.91873500  1
  C  C28  1  0.58765300  0.78896500  0.95887900  1
  C  C29  1  0.57500900  0.85295100  0.86109500  1
  C  C30  1  0.50812700  0.70514200  0.81925800  1
  C  C31  1  0.72520700  0.29484400  0.65366500  1
  C  C32  1  0.68774700  0.20916400  0.63097900  1
  C  C33  1  0.51880400  0.28504600  0.51243900  1
  C  C34  1  0.55364800  0.37438700  0.53254000  1
  C  C35  1  0.65795900  0.37689200  0.60509500  1
  C  C36  1  0.48782600  0.46031300  0.48329100  1
  C  C37  1  0.52601500  0.54548100  0.51032800  1
  C  C38  1  0.63227300  0.54418100  0.58360100  1
  C  C39  1  0.69690000  0.46124000  0.62956100  1
  C  C40  1  0.38511000  0.46349700  0.40714300  1
  C  C41  1  0.32133800  0.54689900  0.36047800  1
  C  C42  1  0.35622000  0.62909900  0.38825100  1
  C  C43  1  0.45765800  0.63005700  0.46313000  1
  C  C44  1  0.28893000  0.71114000  0.33977700  1
  C  C45  1  0.32100600  0.79392500  0.36689800  1
  C  C46  1  0.48616700  0.71599800  0.48839300  1
  N  N1  1  0.58428200  0.20475000  0.56250000  1
  N  N2  1  0.41625700  0.79392800  0.44199100  1
  N  N3  1  0.07355000  0.80653900  0.57212300  1
  O  O1  1  0.45154900  0.01918000  0.34274300  1
  O  O2  1  0.51710200  0.16028300  0.38428400  1
  O  O3  1  0.28954400  0.92593700  0.48430900  1
  O  O4  1  0.34767600  0.06659600  0.52672200  1
  O  O5  1  0.48266100  0.83834300  0.62005900  1
  O  O6  1  0.55044900  0.97970500  0.66166900  1
  O  O7  1  0.65406100  0.92748400  0.48468800  1
  O  O8  1  0.71205300  0.06942500  0.52541400  1
