# Generated by REPEAT Assigner based on pymatgen
data_DB0-m3_o16_o52_f0_fsc.sym.29
_audit_creation_date              2022-05-24
_audit_creation_method            REPEAT_Assigner
_cell_length_a                    12.152965
_cell_length_b                    8.551728
_cell_length_c                    14.960489
_cell_angle_alpha                 90.000000
_cell_angle_beta                  109.676291
_cell_angle_gamma                 90.000000
_cell_volume                      1464.040074
_symmetry_space_group_name_H-M    P1
_symmetry_Int_Tables_number       1
loop_
    _symmetry_equiv_pos_site_id
    _symmetry_equiv_pos_as_xyz
    1  x,y,z
loop_
    _atom_site_type_symbol
    _atom_site_label
    _atom_site_fract_x
    _atom_site_fract_y
    _atom_site_fract_z
    _atom_type_partial_charge
    H   H1   0.064616  0.001046  0.581759  0.102065
    C   C1   0.033255  0.140231  0.687897  -0.087140
    C   C2   0.034080  0.861510  0.688109  -0.121091
    C   C3   0.016178  0.141078  0.774421  0.083727
    C   C4   0.016944  0.860520  0.774623  0.044245
    H   H2   0.006751  0.251534  0.806172  0.004191
    H   H3   0.007971  0.749993  0.806494  0.020462
    C   C5   0.013880  0.000789  0.820277  -0.427111
    C   C6   0.048992  0.000954  0.648361  -0.037420
    N   N1   0.010251  0.864821  0.962279  -0.329680
    N   N2   0.009470  0.136835  0.962021  -0.313360
    N   N3   0.010535  0.864874  0.050708  -0.328596
    N   N4   0.009754  0.136887  0.050449  -0.340399
    C   C7   0.010779  0.000909  0.095918  0.848094
    C   C8   0.009250  0.000801  0.916818  0.857353
    C   C9   0.003744  0.141285  0.238271  0.030773
    C   C10  0.004489  0.860605  0.238499  0.033687
    H   H4   0.012346  0.251772  0.206204  0.028326
    H   H5   0.013531  0.750163  0.206570  0.024054
    C   C11  0.987412  0.140487  0.325090  -0.107659
    C   C12  0.988218  0.861331  0.325332  -0.110375
    C   C13  0.973110  0.000847  0.365141  -0.049577
    H   H6   0.958060  0.000790  0.431973  0.107639
    C   C14  0.006541  0.000939  0.192581  -0.379209
    O   O1   0.121857  0.670157  0.618691  -0.771458
    O   O2   0.121084  0.331274  0.618527  -0.735252
    O   O3   0.922373  0.665216  0.584921  -0.732193
    O   O4   0.921688  0.336979  0.584855  -0.738261
    C   C15  0.026664  0.719717  0.632187  0.909999
    C   C16  0.025870  0.282080  0.632054  0.869839
    O   O5   0.899890  0.669585  0.394236  -0.748747
    O   O6   0.899204  0.332506  0.394085  -0.742192
    O   O7   0.100194  0.663785  0.427917  -0.713204
    O   O8   0.099463  0.337671  0.427752  -0.717089
    C   C17  0.995594  0.718997  0.381004  0.897344
    C   C18  0.994810  0.282803  0.380797  0.889305
    Zn  Zn1  0.880707  0.501154  0.482086  1.071235
    Zn  Zn2  0.140166  0.500586  0.531126  1.037120
    C   C19  0.469131  0.491486  0.693491  0.263427
    H   H7   0.296581  0.499260  0.702421  0.243764
    H   H8   0.701688  0.500668  0.741269  0.119217
    N   N5   0.292814  0.499874  0.562715  0.242613
    C   C20  0.674649  0.502251  0.356329  -0.020502
    C   C21  0.555286  0.502018  0.317071  -0.122745
    C   C22  0.487670  0.500999  0.374125  -0.127007
    C   C23  0.540264  0.500367  0.472212  0.011676
    C   C24  0.662436  0.500810  0.509431  0.215883
    C   C25  0.474223  0.498883  0.533781  0.178887
    C   C26  0.532022  0.496216  0.631317  -0.055234
    C   C27  0.652545  0.498732  0.666425  -0.087260
    C   C28  0.716161  0.500711  0.606632  -0.286826
    C   C29  0.351831  0.499922  0.501008  -0.345126
    C   C30  0.348780  0.496349  0.656855  -0.362975
    N   N6   0.727802  0.501695  0.451163  -0.031459
    H   H9   0.300043  0.502045  0.427115  0.204719
    H   H10  0.725731  0.502626  0.309636  0.140541
    H   H11  0.394989  0.500200  0.338108  0.147867
    H   H12  0.514272  0.502307  0.240762  0.118539
    H   H13  0.808787  0.502214  0.639837  0.242431
    C   C31  0.531817  0.483100  0.799029  -0.296636
    C   C32  0.451839  0.457573  0.854464  0.259609
    C   C33  0.435940  0.573256  0.913406  -0.282856
    C   C34  0.363001  0.547508  0.965354  -0.041495
    C   C35  0.306281  0.406161  0.958879  -0.109618
    C   C36  0.322610  0.290270  0.900534  -0.145605
    C   C37  0.395491  0.315806  0.848541  -0.170218
    H   H14  0.581396  0.593079  0.822734  0.104393
    H   H15  0.593567  0.383158  0.815044  0.092716
    H   H16  0.480005  0.684511  0.919103  0.130479
    H   H17  0.350358  0.638239  0.011268  0.097562
    H   H18  0.249173  0.386125  0.999666  0.104176
    H   H19  0.278359  0.179299  0.895611  0.133308
    H   H20  0.408300  0.224645  0.802953  0.104310
