# Generated by REPEAT Assigner based on pymatgen
data_DB0-m3_o25_o115_f0_fsc.sym.10
_audit_creation_date              2022-05-24
_audit_creation_method            REPEAT_Assigner
_cell_length_a                    14.230436
_cell_length_b                    16.519801
_cell_length_c                    16.683148
_cell_angle_alpha                 90.067784
_cell_angle_beta                  98.803655
_cell_angle_gamma                 90.696398
_cell_volume                      3875.430263
_symmetry_space_group_name_H-M    P1
_symmetry_Int_Tables_number       1
loop_
    _symmetry_equiv_pos_site_id
    _symmetry_equiv_pos_as_xyz
    1  x,y,z
loop_
    _atom_site_type_symbol
    _atom_site_label
    _atom_site_fract_x
    _atom_site_fract_y
    _atom_site_fract_z
    _atom_type_partial_charge
    H   H1   0.072623  0.920846  0.722424  0.150847
    H   H2   0.927379  0.079139  0.277584  0.150864
    C   C1   0.999212  0.256797  0.958467  -0.301825
    C   C2   0.000790  0.743188  0.041541  -0.301687
    C   C3   0.999113  0.256858  0.040822  -0.302890
    C   C4   0.000889  0.743127  0.959187  -0.302894
    C   C5   0.998871  0.176638  0.064208  0.452085
    C   C6   0.001131  0.823347  0.935801  0.452085
    N   N1   0.999805  0.127732  0.999689  -0.576224
    N   N2   0.000197  0.872253  0.000320  -0.576106
    C   C7   0.000282  0.176570  0.935139  0.447749
    C   C8   0.999720  0.823415  0.064869  0.447445
    C   C9   0.995088  0.151506  0.139924  -0.291495
    C   C10  0.004914  0.848480  0.860085  -0.291593
    C   C11  0.985796  0.065668  0.162751  0.198682
    C   C12  0.014206  0.934317  0.837257  0.198691
    C   C13  0.951489  0.041350  0.232076  -0.229546
    C   C14  0.048513  0.958636  0.767932  -0.229460
    C   C15  0.951842  0.958127  0.232263  -0.231664
    C   C16  0.048161  0.041858  0.767746  -0.231859
    C   C17  0.986421  0.934358  0.163102  0.200993
    C   C18  0.013581  0.065627  0.836907  0.201209
    N   N3   0.008676  0.000196  0.121560  -0.165679
    N   N4   0.991326  0.999789  0.878449  -0.165733
    C   C19  0.996044  0.848642  0.140601  -0.291831
    C   C20  0.003958  0.151343  0.859407  -0.292205
    H   H3   0.999393  0.310264  0.921186  0.149348
    H   H4   0.000610  0.689721  0.078823  0.149340
    H   H5   0.998077  0.310388  0.078003  0.151207
    H   H6   0.001925  0.689597  0.922005  0.151196
    H   H7   0.927965  0.919869  0.277839  0.148293
    H   H8   0.072038  0.080116  0.722170  0.148330
    H   H9   0.042897  0.000556  0.070834  0.218741
    H   H10  0.957105  0.999429  0.929174  0.218748
    C   C21  0.091405  0.756705  0.780733  -0.193246
    C   C22  0.908597  0.243281  0.219276  -0.193167
    H   H11  0.157694  0.777780  0.815275  0.099428
    H   H12  0.842308  0.222205  0.184733  0.099392
    C   C23  0.091954  0.699327  0.720638  -0.068752
    C   C24  0.908049  0.300658  0.279371  -0.068702
    C   C25  0.007204  0.671893  0.676629  -0.150996
    C   C26  0.992798  0.328092  0.323380  -0.151280
    C   C27  0.922204  0.702748  0.693128  -0.022545
    C   C28  0.077799  0.297237  0.306881  -0.022459
    H   H13  0.854911  0.682589  0.659681  0.097474
    H   H14  0.145092  0.317396  0.340327  0.097469
    C   C29  0.922034  0.760517  0.752659  -0.287167
    C   C30  0.077968  0.239468  0.247349  -0.287016
    H   H15  0.855443  0.784540  0.765149  0.127085
    H   H16  0.144559  0.215445  0.234860  0.127015
    C   C31  0.006417  0.787462  0.796626  0.344126
    C   C32  0.993585  0.212524  0.203382  0.343974
    C   C33  0.089869  0.248152  0.782976  -0.201762
    C   C34  0.910133  0.751833  0.217032  -0.201868
    H   H17  0.155729  0.231547  0.820233  0.099805
    H   H18  0.844273  0.768439  0.179776  0.099842
    C   C35  0.090439  0.305305  0.722751  -0.070894
    C   C36  0.909563  0.694681  0.277258  -0.070747
    H   H19  0.157261  0.333011  0.713958  0.106726
    H   H20  0.842741  0.666974  0.286051  0.106681
    C   C37  0.006224  0.327176  0.675280  -0.133660
    C   C38  0.993779  0.672810  0.324728  -0.133630
    C   C39  0.921821  0.290705  0.688311  -0.039349
    C   C40  0.078181  0.709280  0.311698  -0.039245
    H   H21  0.855003  0.306321  0.652026  0.104363
    H   H22  0.144999  0.693664  0.347982  0.104321
    C   C41  0.921677  0.233167  0.747997  -0.281887
    C   C42  0.078325  0.766819  0.252012  -0.281868
    H   H23  0.855524  0.204855  0.757793  0.122807
    H   H24  0.144478  0.795131  0.242216  0.122801
    C   C43  0.005431  0.212097  0.795701  0.360504
    C   C44  0.994571  0.787888  0.204308  0.360246
    H   H25  0.159227  0.675977  0.709102  0.104845
    H   H26  0.840776  0.324008  0.290907  0.104867
    O   O1   0.924054  0.581490  0.578499  -0.706582
    O   O2   0.075948  0.418495  0.421510  -0.706700
    O   O3   0.087669  0.586276  0.593605  -0.672495
    O   O4   0.912333  0.413709  0.406403  -0.672513
    C   C45  0.006545  0.610268  0.613228  0.791575
    C   C46  0.993457  0.389717  0.386781  0.791788
    O   O5   0.086764  0.417917  0.595638  -0.672678
    O   O6   0.913238  0.582068  0.404370  -0.672619
    O   O7   0.922865  0.413397  0.574837  -0.660430
    O   O8   0.077137  0.586588  0.425172  -0.660436
    C   C47  0.005488  0.389028  0.612126  0.754670
    C   C48  0.994514  0.610957  0.387882  0.754540
    Zn  Zn1  0.105897  0.501008  0.511040  1.080809
    Zn  Zn2  0.894105  0.498978  0.488968  1.080718
    C   C49  0.509498  0.534526  0.429528  -0.235772
    C   C50  0.490504  0.465459  0.570481  -0.236049
    C   C51  0.449474  0.460383  0.441378  -0.017762
    C   C52  0.550528  0.539602  0.558630  -0.017503
    H   H27  0.518722  0.561900  0.370539  0.117365
    H   H28  0.481280  0.438085  0.629470  0.117415
    H   H29  0.553744  0.360389  0.499600  0.111113
    H   H30  0.446258  0.639596  0.500408  0.111194
    N   N5   0.230636  0.502179  0.521488  -0.044563
    N   N6   0.769366  0.497806  0.478521  -0.044614
    C   C53  0.471273  0.576355  0.499369  -0.215300
    C   C54  0.528729  0.423630  0.500639  -0.214985
    C   C55  0.412130  0.501560  0.510152  0.633559
    C   C56  0.587872  0.498425  0.489857  0.633268
    C   C57  0.311175  0.502057  0.517941  -0.217886
    C   C58  0.688828  0.497929  0.482068  -0.217777
    C   C59  0.386340  0.414659  0.374374  0.163827
    C   C60  0.445341  0.380147  0.314398  -0.258191
    H   H31  0.482236  0.429831  0.286624  0.061602
    H   H32  0.498514  0.337749  0.345717  0.059147
    H   H33  0.397920  0.346992  0.266034  0.079750
    H   H34  0.349157  0.364492  0.401208  0.004468
    H   H35  0.332988  0.456464  0.342235  0.000398
    C   C61  0.613663  0.585326  0.625634  0.163785
    C   C62  0.554662  0.619838  0.685611  -0.257988
    H   H36  0.501488  0.662237  0.654292  0.059092
    H   H37  0.517766  0.570154  0.713385  0.061536
    H   H38  0.602082  0.652993  0.733975  0.079704
    H   H39  0.667014  0.543521  0.657774  0.000375
    H   H40  0.650846  0.635494  0.598800  0.004445
