# Generated by REPEAT Assigner based on pymatgen
data_DB0-m3_o450_o23_f0_fsc.sym.73
_audit_creation_date              2022-05-24
_audit_creation_method            REPEAT_Assigner
_cell_length_a                    8.538138
_cell_length_b                    12.727709
_cell_length_c                    14.205716
_cell_angle_alpha                 90.888318
_cell_angle_beta                  90.071635
_cell_angle_gamma                 95.459136
_cell_volume                      1536.556109
_symmetry_space_group_name_H-M    P1
_symmetry_Int_Tables_number       1
loop_
    _symmetry_equiv_pos_site_id
    _symmetry_equiv_pos_as_xyz
    1  x,y,z
loop_
    _atom_site_type_symbol
    _atom_site_label
    _atom_site_fract_x
    _atom_site_fract_y
    _atom_site_fract_z
    _atom_type_partial_charge
    C   C1   0.161540  0.709914  0.027780  0.099217
    C   C2   0.174135  0.817247  0.012126  -0.526861
    H   H1   0.288699  0.859838  0.003137  0.206834
    C   C3   0.039940  0.870644  0.009604  0.581387
    C   C4   0.892731  0.814021  0.013283  -0.255026
    H   H2   0.784497  0.850395  0.004099  0.068129
    C   C5   0.881996  0.707037  0.028308  -0.060172
    C   C6   0.015738  0.656865  0.040564  -0.216256
    N   N1   0.055671  0.981727  0.000999  -0.297636
    N   N2   0.927746  0.020404  0.009421  -0.162437
    C   C7   0.806963  0.183239  0.996011  -0.058750
    C   C8   0.819070  0.291553  0.981966  0.017112
    C   C9   0.965178  0.344960  0.970105  -0.272608
    C   C10  0.099529  0.295457  0.982592  -0.010338
    C   C11  0.089121  0.188729  0.998599  -0.360466
    H   H3   0.196869  0.152452  0.009252  0.119597
    C   C12  0.942495  0.131499  0.000965  0.477164
    H   H4   0.005992  0.573023  0.052087  0.139393
    H   H5   0.974481  0.428851  0.958946  0.157240
    O   O1   0.675794  0.596002  0.097197  -0.788196
    O   O2   0.673337  0.622082  0.936722  -0.735327
    C   C13  0.732107  0.642590  0.021155  0.974387
    O   O3   0.644131  0.403992  0.913783  -0.755845
    O   O4   0.635163  0.378057  0.074129  -0.736109
    C   C14  0.686573  0.356212  0.989581  0.915497
    O   O5   0.305874  0.407049  0.913485  -0.718013
    O   O6   0.308666  0.380763  0.073853  -0.650657
    C   C15  0.249430  0.360391  0.989543  0.825788
    O   O7   0.337667  0.598925  0.096787  -0.759998
    O   O8   0.347084  0.625086  0.936457  -0.695657
    C   C16  0.295748  0.646936  0.020953  0.850065
    Zn  Zn1  0.492721  0.515213  0.901274  1.089273
    Zn  Zn2  0.489151  0.487734  0.109335  1.064827
    C   C17  0.472379  0.617801  0.550489  -0.201454
    C   C18  0.353410  0.434670  0.563501  -0.384426
    C   C19  0.381179  0.403089  0.462047  0.017209
    H   H6   0.324297  0.614471  0.428123  -0.002370
    H   H7   0.370314  0.653153  0.581884  0.059438
    H   H8   0.348991  0.363396  0.607712  0.106573
    H   H9   0.242538  0.471845  0.572625  0.102023
    H   H10  0.448520  0.333012  0.466097  0.088817
    N   N3   0.487448  0.475764  0.232241  0.077698
    C   C20  0.490812  0.512258  0.594219  0.757756
    C   C21  0.446399  0.601079  0.445617  0.005288
    C   C22  0.487973  0.491080  0.416380  0.658213
    C   C23  0.652373  0.481217  0.453398  -0.214385
    C   C24  0.644230  0.473581  0.559966  -0.130702
    C   C25  0.487509  0.480780  0.313634  -0.285272
    C   C26  0.493081  0.522286  0.696965  -0.263193
    N   N4   0.494338  0.527140  0.778365  0.010814
    H   H11  0.745403  0.522850  0.591719  0.047461
    H   H12  0.649500  0.390479  0.581115  0.029877
    H   H13  0.731082  0.551837  0.433911  0.039007
    H   H14  0.580659  0.671550  0.562995  0.038342
    H   H15  0.524205  0.661134  0.407868  0.017411
    H   H16  0.699737  0.409863  0.423198  0.069518
    N   N5   0.235734  0.371159  0.411444  -0.270492
    C   C27  0.252340  0.295595  0.336130  -0.023108
    C   C28  0.135504  0.451226  0.385617  -0.287929
    H   H17  0.377363  0.283239  0.323558  0.010620
    H   H18  0.202265  0.323594  0.270041  0.081437
    H   H19  0.187742  0.219035  0.354775  0.040341
    H   H20  0.108897  0.500756  0.447044  0.123550
    H   H21  0.021510  0.412216  0.359688  0.138655
    H   H22  0.188913  0.500252  0.328136  0.089381
    N   N6   0.659838  0.123012  0.004283  -0.246549
    C   C29  0.536520  0.155435  0.945336  -0.023618
    C   C30  0.612370  0.107541  0.100511  -0.151104
    H   H23  0.587083  0.192901  0.880787  0.047122
    H   H24  0.464930  0.209297  0.984754  0.077308
    H   H25  0.458159  0.084672  0.923652  0.017409
    H   H26  0.705842  0.071435  0.139391  0.052809
    H   H27  0.501880  0.054257  0.102843  0.083400
    H   H28  0.593274  0.184402  0.134177  0.071565
