# generated using pymatgen
data_CuH8C13NO6
_symmetry_space_group_name_H-M   'P 1'
_cell_length_a   10.86538200
_cell_length_b   9.52537400
_cell_length_c   11.82179400
_cell_angle_alpha   90.00000000
_cell_angle_beta   89.99804400
_cell_angle_gamma   90.00000000
_symmetry_Int_Tables_number   1
_chemical_formula_structural   CuH8C13NO6
_chemical_formula_sum   'Cu2 H16 C26 N2 O12'
_cell_volume   1223.51817013
_cell_formula_units_Z   2
loop_
 _symmetry_equiv_pos_site_id
 _symmetry_equiv_pos_as_xyz
  1  'x, y, z'
loop_
 _atom_site_type_symbol
 _atom_site_label
 _atom_site_symmetry_multiplicity
 _atom_site_fract_x
 _atom_site_fract_y
 _atom_site_fract_z
 _atom_site_occupancy
  Cu  Cu1  1  0.50152400  0.64074400  0.49822900  1
  Cu  Cu2  1  0.49859900  0.35868300  0.50281500  1
  H  H1  1  0.10871900  0.27797900  0.53574600  1
  H  H2  1  0.88643700  0.71745700  0.47035500  1
  H  H3  1  0.88691100  0.27842400  0.52976000  1
  H  H4  1  0.10788600  0.72144600  0.47343400  1
  H  H5  1  0.19882100  0.08858900  0.42347400  1
  H  H6  1  0.18759700  0.07342500  0.27031100  1
  H  H7  1  0.18577500  0.24225200  0.33596300  1
  H  H8  1  0.80025400  0.90120200  0.57257800  1
  H  H9  1  0.80702400  0.75101300  0.66879000  1
  H  H10  1  0.81049500  0.92549700  0.72443500  1
  H  H11  1  0.48514000  0.08789300  0.79387400  1
  H  H12  1  0.58263400  0.23808600  0.82880500  1
  H  H13  1  0.64398100  0.06454700  0.84486600  1
  H  H14  1  0.35647900  0.93250600  0.14952200  1
  H  H15  1  0.42760900  0.76474400  0.16486700  1
  H  H16  1  0.51139200  0.92039200  0.20216000  1
  C  C1  1  0.26411000  0.49928200  0.49323300  1
  C  C2  1  0.73746100  0.49964900  0.50437800  1
  C  C3  1  0.50918500  0.49916700  0.28345900  1
  C  C4  1  0.49332800  0.50065400  0.71738500  1
  C  C5  1  0.50678500  0.49727200  0.16203700  1
  C  C6  1  0.49443300  0.50203100  0.83885800  1
  C  C7  1  0.50183200  0.49775900  0.06016200  1
  C  C8  1  0.49675400  0.50076700  0.94079200  1
  C  C9  1  0.06307200  0.37552700  0.51666700  1
  C  C10  1  0.93549700  0.62102800  0.48477900  1
  C  C11  1  0.93598200  0.37561300  0.51692700  1
  C  C12  1  0.06230800  0.62210000  0.48297200  1
  C  C13  1  0.87192100  0.49878700  0.50370900  1
  C  C14  1  0.12800500  0.49877500  0.49706400  1
  C  C15  1  0.43860400  0.07326300  0.41944600  1
  C  C16  1  0.56061000  0.92527800  0.57862100  1
  C  C17  1  0.55911500  0.07102500  0.58153200  1
  C  C18  1  0.44084500  0.92755900  0.41635600  1
  C  C19  1  0.36254400  0.14206400  0.33227900  1
  C  C20  1  0.22554100  0.13598800  0.34149300  1
  C  C21  1  0.63609700  0.85659300  0.66558000  1
  C  C22  1  0.77198900  0.85878400  0.65612800  1
  C  C23  1  0.62791600  0.13481200  0.67531000  1
  C  C24  1  0.58063200  0.13008200  0.79323300  1
  C  C25  1  0.37352400  0.85947300  0.32252200  1
  C  C26  1  0.41991800  0.87004400  0.20320600  1
  N  N1  1  0.49931200  0.85189500  0.49785700  1
  N  N2  1  0.50000900  0.14740500  0.49999800  1
  O  O1  1  0.32178600  0.61979900  0.49531000  1
  O  O2  1  0.67953500  0.37874100  0.50133000  1
  O  O3  1  0.67917500  0.62091700  0.50805700  1
  O  O4  1  0.32195600  0.37918000  0.49247500  1
  O  O5  1  0.50543900  0.61984900  0.33508700  1
  O  O6  1  0.49905500  0.37946600  0.66468100  1
  O  O7  1  0.48976900  0.62057100  0.66330500  1
  O  O8  1  0.50994000  0.37945700  0.33636500  1
  O  O9  1  0.40870700  0.17416700  0.24161400  1
  O  O10  1  0.59045600  0.82765700  0.75657900  1
  O  O11  1  0.72902400  0.18458200  0.65850800  1
  O  O12  1  0.27398600  0.80423100  0.33948100  1
