# Generated by REPEAT Assigner based on pymatgen
data_DB0-m2_o9_o17_f0_nbo.sym.40
_audit_creation_date              2022-05-24
_audit_creation_method            REPEAT_Assigner
_cell_length_a                    21.141210
_cell_length_b                    21.415511
_cell_length_c                    21.312766
_cell_angle_alpha                 91.457831
_cell_angle_beta                  119.175901
_cell_angle_gamma                 119.018780
_cell_volume                      6920.359193
_symmetry_space_group_name_H-M    P1
_symmetry_Int_Tables_number       1
loop_
    _symmetry_equiv_pos_site_id
    _symmetry_equiv_pos_as_xyz
    1  x,y,z
loop_
    _atom_site_type_symbol
    _atom_site_label
    _atom_site_fract_x
    _atom_site_fract_y
    _atom_site_fract_z
    _atom_type_partial_charge
    O   O1    0.540815  0.491128  0.414694  -0.577171
    O   O2    0.473850  0.393322  0.453255  -0.616055
    C   C1    0.507340  0.420377  0.414015  0.757760
    O   O3    0.650811  0.547806  0.571711  -0.626021
    O   O4    0.550729  0.474860  0.600591  -0.581876
    C   C2    0.630675  0.513040  0.615928  0.773858
    Cu  Cu1   0.570114  0.567886  0.494442  0.924224
    Cu  Cu2   0.450361  0.451354  0.500267  0.970484
    O   O5    0.581058  0.626622  0.575197  -0.521568
    O   O6    0.445649  0.527386  0.546712  -0.609206
    O   O7    0.470951  0.570034  0.418209  -0.623695
    O   O8    0.368458  0.446066  0.399087  -0.589885
    C   C3    0.514836  0.598734  0.582442  0.651178
    C   C4    0.390177  0.507571  0.379522  0.746426
    H   H1    0.783733  0.834141  0.756042  0.103294
    C   C5    0.800484  0.754912  0.715860  -0.121411
    H   H2    0.824236  0.787365  0.685162  0.115060
    C   C6    0.793082  0.687414  0.715470  -0.062853
    H   H3    0.812572  0.668014  0.685262  0.093654
    C   C7    0.761830  0.644662  0.753633  0.042796
    C   C8    0.740762  0.672036  0.795314  -0.105340
    C   C9    0.749461  0.740460  0.795909  -0.110962
    H   H4    0.732339  0.762302  0.826895  0.112032
    C   C10   0.778128  0.781196  0.755716  -0.094089
    C   C11   0.814889  0.568900  0.816969  -0.081969
    H   H5    0.861741  0.616709  0.869841  0.100194
    C   C12   0.815681  0.504695  0.814384  -0.120461
    C   C13   0.758059  0.444794  0.745233  0.088309
    C   C14   0.699258  0.449518  0.680992  -0.173580
    H   H6    0.651440  0.401977  0.627821  0.117840
    C   C15   0.698953  0.513528  0.683769  -0.044611
    C   C16   0.757461  0.574035  0.751714  0.004270
    C   C17   0.756600  0.346431  0.680731  -0.140163
    H   H7    0.765200  0.377743  0.643322  0.094775
    C   C18   0.749396  0.278815  0.671550  -0.163883
    H   H8    0.752107  0.257446  0.627056  0.116794
    C   C19   0.738459  0.238332  0.718854  -0.085017
    H   H9    0.732602  0.185235  0.711517  0.104091
    C   C20   0.734433  0.265403  0.775197  -0.265835
    H   H10   0.725185  0.233492  0.812032  0.124367
    C   C21   0.741983  0.333139  0.784538  0.332122
    H   H11   0.737748  0.353557  0.828152  -0.025153
    C   C22   0.754044  0.374425  0.737971  -0.005606
    C   C23   0.437396  0.139295  0.111178  -0.301406
    C   C24   0.504841  0.129032  0.142369  0.074667
    C   C25   0.571984  0.165978  0.219511  -0.292914
    C   C26   0.572091  0.213540  0.264676  0.229684
    C   C27   0.504709  0.223637  0.233149  -0.076040
    C   C28   0.437055  0.186016  0.156549  0.271270
    C   C29   0.639789  0.251337  0.341412  -0.195964
    C   C30   0.640447  0.299557  0.386244  -0.253576
    C   C31   0.573224  0.309946  0.354577  0.248910
    C   C32   0.505105  0.271588  0.278081  -0.021049
    C   C33   0.437319  0.281189  0.246479  0.188662
    C   C34   0.368891  0.242403  0.170181  -0.246439
    C   C35   0.368939  0.195198  0.125157  -0.250592
    C   C36   0.574070  0.358727  0.399146  -0.329004
    C   C37   0.506807  0.369034  0.367146  0.035964
    C   C38   0.437994  0.329567  0.291146  -0.237959
    H   H12   0.383943  0.110389  0.051203  0.143679
    H   H13   0.625409  0.158858  0.244724  0.138954
    H   H14   0.692829  0.243688  0.366686  0.130507
    H   H15   0.693960  0.329215  0.446204  0.158418
    H   H16   0.627403  0.389172  0.459096  0.139611
    H   H17   0.384637  0.336668  0.266961  0.121742
    H   H18   0.315299  0.249168  0.145283  0.207060
    H   H19   0.315364  0.165555  0.065220  0.144142
    H   H20   0.539554  0.507259  0.200563  0.107544
    C   C39   0.518486  0.569774  0.258489  -0.111202
    H   H21   0.583799  0.621268  0.285760  0.114513
    C   C40   0.459600  0.568292  0.270628  -0.073105
    H   H22   0.478487  0.619366  0.306128  0.093167
    C   C41   0.376223  0.502652  0.236649  0.157687
    C   C42   0.350602  0.438224  0.187596  -0.218877
    C   C43   0.409755  0.440951  0.174557  -0.055602
    H   H23   0.391595  0.391469  0.137260  0.085796
    C   C44   0.493554  0.506074  0.210492  -0.119771
    C   C45   0.244819  0.503269  0.184821  -0.063042
    H   H24   0.240057  0.501880  0.131888  0.073910
    C   C46   0.182636  0.503275  0.190455  -0.000925
    C   C47   0.188609  0.504777  0.258130  0.061878
    C   C48   0.257598  0.507308  0.319662  -0.217619
    H   H25   0.261441  0.506659  0.372083  0.113404
    C   C49   0.320273  0.508041  0.314169  0.028819
    C   C50   0.313678  0.505756  0.246201  -0.040516
    C   C51   0.138636  0.550695  0.319094  -0.153754
    H   H26   0.204956  0.601396  0.356179  0.106902
    C   C52   0.073606  0.540836  0.326764  -0.155349
    H   H27   0.088967  0.583860  0.369680  0.119456
    C   C53   0.989233  0.475741  0.280297  -0.083183
    H   H28   0.938422  0.467735  0.286735  0.091630
    C   C54   0.969886  0.420498  0.226135  -0.063599
    H   H29   0.904173  0.368826  0.190497  0.051001
    C   C55   0.034436  0.430871  0.217574  -0.137023
    H   H30   0.019086  0.386852  0.175687  0.092134
    C   C56   0.118869  0.496235  0.263743  0.151370
    C   C57   0.520618  0.809548  0.888203  -0.281812
    C   C58   0.511947  0.867598  0.870253  0.104064
    C   C59   0.505769  0.882304  0.805542  -0.273573
    C   C60   0.511028  0.840537  0.760210  0.279764
    C   C61   0.516879  0.781015  0.776871  -0.060428
    C   C62   0.520215  0.764751  0.840169  0.263643
    C   C63   0.510331  0.858145  0.698155  -0.289372
    C   C64   0.515592  0.816344  0.652922  -0.197953
    C   C65   0.519066  0.755498  0.668367  0.270889
    C   C66   0.518721  0.737387  0.729908  -0.101925
    C   C67   0.519249  0.675140  0.744031  0.263647
    C   C68   0.520784  0.657960  0.806451  -0.220053
    C   C69   0.522541  0.703353  0.855093  -0.243493
    C   C70   0.521659  0.712121  0.621804  -0.367715
    C   C71   0.518992  0.648366  0.634462  0.173375
    C   C72   0.517052  0.629553  0.695127  -0.331496
    H   H31   0.523982  0.797126  0.938148  0.126205
    H   H32   0.500391  0.928535  0.792037  0.121100
    H   H33   0.506298  0.905034  0.685014  0.159476
    H   H34   0.515417  0.830702  0.604613  0.143949
    H   H35   0.521835  0.725946  0.573442  0.136137
    H   H36   0.515621  0.579770  0.705027  0.138470
    H   H37   0.521061  0.609161  0.817707  0.154168
    H   H38   0.524349  0.689841  0.904208  0.132320
    O   O9    0.919677  0.453855  0.054181  -0.504948
    O   O10   0.890962  0.378505  0.950910  -0.570452
    C   C73   0.874987  0.387711  0.001820  0.555690
    O   O11   0.893791  0.526874  0.949235  -0.536506
    O   O12   0.927402  0.481550  0.878113  -0.583302
    C   C74   0.881849  0.504045  0.883868  0.670917
    Cu  Cu3   0.996276  0.547828  0.046415  0.892029
    Cu  Cu4   0.997915  0.458363  0.961629  0.930838
    O   O13   0.073177  0.628153  0.025835  -0.625039
    O   O14   0.104815  0.551933  0.985513  -0.600806
    O   O15   0.098980  0.555055  0.130596  -0.532002
    O   O16   0.068229  0.448819  0.058022  -0.547704
    C   C75   0.119633  0.618566  0.007096  0.803867
    C   C76   0.111878  0.501495  0.123680  0.607438
    O   O17   0.472887  0.905601  0.059343  -0.489374
    O   O18   0.363893  0.905965  0.954406  -0.559229
    C   C77   0.389540  0.876587  0.007077  0.513754
    O   O19   0.559389  0.059372  0.125009  -0.566892
    O   O20   0.451763  0.060094  0.018912  -0.575596
    C   C78   0.505266  0.080256  0.093206  0.655764
    Cu  Cu5   0.570254  0.996957  0.067733  0.961275
    Cu  Cu6   0.444217  0.996091  0.945113  0.947719
    O   O21   0.650535  0.084434  0.055759  -0.584526
    O   O22   0.541577  0.089751  0.956214  -0.537650
    O   O23   0.559037  0.929444  0.993845  -0.618922
    O   O24   0.458811  0.937535  0.887987  -0.619188
    C   C79   0.624634  0.115736  0.005316  0.578106
    C   C80   0.509702  0.913637  0.919769  0.796080
    H   H39   0.687454  0.526163  0.024430  0.061164
    C   C81   0.760500  0.480599  0.081848  -0.059993
    H   H40   0.795462  0.520048  0.137875  0.100588
    C   C82   0.774451  0.425391  0.074271  -0.272424
    H   H41   0.819514  0.421216  0.124749  0.154360
    C   C83   0.729214  0.373591  0.003374  0.232406
    C   C84   0.667988  0.377070  0.938391  -0.118235
    C   C85   0.655422  0.433676  0.946876  -0.140712
    H   H42   0.608193  0.437837  0.898007  0.093793
    C   C86   0.700338  0.484213  0.018211  -0.055477
    C   C87   0.680482  0.244131  0.001268  -0.158603
    H   H43   0.625866  0.238505  0.999359  0.113679
    C   C88   0.690705  0.185186  0.005563  0.058463
    C   C89   0.762991  0.194120  0.011157  -0.113015
    C   C90   0.821308  0.260564  0.009057  -0.117888
    H   H44   0.876562  0.266926  0.011648  0.087670
    C   C91   0.810974  0.319424  0.004665  0.127857
    C   C92   0.740618  0.311558  0.002041  -0.029305
    C   C93   0.857500  0.150742  0.080135  -0.209612
    H   H45   0.904308  0.205506  0.125286  0.116115
    C   C94   0.875903  0.096787  0.085642  -0.098389
    H   H46   0.936888  0.109288  0.134959  0.110066
    C   C95   0.816963  0.027204  0.027921  -0.115756
    H   H47   0.831687  0.985085  0.031863  0.097697
    C   C96   0.739716  0.011665  0.964693  -0.082188
    H   H48   0.694657  0.957641  0.918901  0.067483
    C   C97   0.720611  0.065223  0.959537  -0.199853
    H   H49   0.660537  0.053177  0.909312  0.102543
    C   C98   0.779327  0.134801  0.017612  0.299908
    H   H50   0.292081  0.733074  0.336037  0.118078
    C   C99   0.249139  0.771512  0.241900  -0.123839
    H   H51   0.226940  0.797133  0.263055  0.096760
    C   C100  0.240943  0.774767  0.174021  0.019167
    H   H52   0.212318  0.802917  0.141963  0.041304
    C   C101  0.269199  0.742017  0.146939  0.078790
    C   C102  0.305657  0.706043  0.187908  -0.132367
    H   H53   0.327662  0.680224  0.166696  0.071037
    C   C103  0.314161  0.703085  0.255938  -0.037028
    H   H54   0.342897  0.675033  0.288074  0.057861
    C   C104  0.285682  0.735630  0.282827  -0.165043
    C   C105  0.327308  0.806651  0.075258  -0.346058
    C   C106  0.321956  0.808649  0.007754  0.088291
    C   C107  0.249325  0.747705  0.940391  -0.060981
    C   C108  0.184375  0.686028  0.941368  -0.097798
    H   H55   0.128586  0.638198  0.889174  0.092504
    C   C109  0.189546  0.684699  0.008083  -0.163382
    C   C110  0.260700  0.745221  0.075022  0.175944
    C   C111  0.166802  0.738597  0.806252  -0.163259
    H   H56   0.119522  0.738466  0.813417  0.090276
    C   C112  0.154502  0.732726  0.736091  -0.101216
    H   H57   0.097814  0.728081  0.688543  0.109383
    C   C113  0.213916  0.731886  0.726337  -0.139314
    H   H58   0.203840  0.726496  0.671125  0.107632
    C   C114  0.285612  0.736955  0.786762  -0.063844
    H   H59   0.330923  0.734587  0.778382  0.066338
    C   C115  0.298873  0.744150  0.857386  -0.198957
    H   H60   0.354689  0.747228  0.904363  0.097275
    C   C116  0.239584  0.745340  0.867357  0.260563
    C   C117  0.262692  0.366288  0.149482  0.796066
    O   O25   0.220917  0.350267  0.177558  -0.561328
    O   O26   0.230101  0.315807  0.084884  -0.503762
    C   C118  0.149789  0.247380  0.049402  0.476020
    C   C119  0.130719  0.202542  0.979120  -0.317902
    H   H61   0.097479  0.257102  0.031927  -0.030423
    H   H62   0.150916  0.214608  0.088966  -0.064268
    H   H63   0.129493  0.234983  0.939300  0.089310
    H   H64   0.065847  0.147097  0.950306  0.069500
    H   H65   0.182913  0.192759  0.996311  0.078461
    C   C120  0.710635  0.632061  0.840268  0.718845
    O   O27   0.675785  0.563726  0.825286  -0.521465
    O   O28   0.721487  0.672067  0.898718  -0.513555
    C   C121  0.705549  0.639629  0.948353  0.606663
    C   C122  0.725404  0.698069  0.008948  -0.477563
    H   H66   0.749419  0.620458  0.976416  -0.044238
    H   H67   0.635545  0.590733  0.917050  -0.051410
    H   H68   0.795951  0.746052  0.041520  0.114015
    H   H69   0.711088  0.671532  0.048460  0.103078
    H   H70   0.683967  0.719549  0.981338  0.129554
    C   C123  0.614806  0.322837  0.860510  0.657327
    O   O29   0.611805  0.264988  0.849880  -0.527985
    O   O30   0.568689  0.337737  0.799896  -0.405232
    C   C124  0.518698  0.289178  0.726620  0.522961
    C   C125  0.476981  0.321903  0.671293  -0.331795
    H   H71   0.466164  0.232949  0.719223  -0.048092
    H   H72   0.561026  0.282713  0.714564  -0.130750
    H   H73   0.432121  0.326200  0.681136  0.063456
    H   H74   0.439219  0.284511  0.611741  0.066362
    H   H75   0.529549  0.379294  0.680909  0.120694
    C   C126  0.400263  0.870915  0.146970  0.931628
    O   O31   0.470525  0.878093  0.185642  -0.589578
    O   O32   0.387543  0.919160  0.172362  -0.542453
    C   C127  0.452854  0.977076  0.241499  0.496735
    C   C128  0.419386  0.020662  0.255408  -0.311157
    H   H76   0.511176  0.015961  0.241067  -0.034502
    H   H77   0.471437  0.953328  0.287871  -0.062924
    H   H78   0.396256  0.041132  0.207193  0.090401
    H   H79   0.473322  0.069898  0.309452  0.063147
    H   H80   0.363776  0.982665  0.259584  0.073877
