data_DB0-m29_o96_o86_f0_pts.sym.112_repeat
_audit_creation_date              2024-02-23
_audit_creation_method            'Materials Studio'
_symmetry_space_group_name_H-M    'P1'
_symmetry_Int_Tables_number       1
_symmetry_cell_setting            triclinic
loop_
_symmetry_equiv_pos_as_xyz
  x,y,z
_cell_length_a                    17.3698
_cell_length_b                    14.4648
_cell_length_c                    17.1154
_cell_angle_alpha                 90.4438
_cell_angle_beta                  91.0479
_cell_angle_gamma                 109.3595
loop_
_atom_site_label
_atom_site_type_symbol
_atom_site_fract_x
_atom_site_fract_y
_atom_site_fract_z
_atom_site_U_iso_or_equiv
_atom_site_adp_type
_atom_site_occupancy
C1     C     0.22350   0.00521   0.11854   0.00000  Uiso   1.00
C2     C     0.16959   0.98151   0.17800   0.00000  Uiso   1.00
C3     C     0.09468   0.97875   0.14842   0.00000  Uiso   1.00
N1     N     0.09972   0.99581   0.07098   0.00000  Uiso   1.00
C4     C     0.17825   0.01086   0.05188   0.00000  Uiso   1.00
C5     C     0.02839   0.96612   0.19137   0.00000  Uiso   1.00
C6     C     0.95067   0.97426   0.16223   0.00000  Uiso   1.00
C7     C     0.89444   0.99587   0.20844   0.00000  Uiso   1.00
C8     C     0.82961   0.99341   0.16184   0.00000  Uiso   1.00
C9     C     0.84766   0.97102   0.08684   0.00000  Uiso   1.00
N2     N     0.92131   0.95777   0.08809   0.00000  Uiso   1.00
C10    C     0.79543   0.96457   0.01665   0.00000  Uiso   1.00
C11    C     0.82378   0.97745   0.94388   0.00000  Uiso   1.00
C12    C     0.77905   0.98440   0.87794   0.00000  Uiso   1.00
C13    C     0.83191   0.00678   0.81791   0.00000  Uiso   1.00
C14    C     0.90683   0.00916   0.84708   0.00000  Uiso   1.00
N3     N     0.90215   0.99204   0.92461   0.00000  Uiso   1.00
C15    C     0.97261   0.02089   0.80375   0.00000  Uiso   1.00
C16    C     0.04975   0.01154   0.83298   0.00000  Uiso   1.00
C17    C     0.10548   0.98853   0.78702   0.00000  Uiso   1.00
C18    C     0.16978   0.98999   0.83390   0.00000  Uiso   1.00
C19    C     0.15196   0.01320   0.90868   0.00000  Uiso   1.00
N4     N     0.07900   0.02799   0.90718   0.00000  Uiso   1.00
C20    C     0.20484   0.02065   0.97832   0.00000  Uiso   1.00
H1     H     0.03338   0.95712   0.25359   0.00000  Uiso   1.00
H2     H     0.73246   0.95838   0.02564   0.00000  Uiso   1.00
H3     H     0.96738   0.02978   0.74151   0.00000  Uiso   1.00
H4     H     0.26643   0.02397   0.96723   0.00000  Uiso   1.00
H5     H     0.94824   0.93267   0.04251   0.00000  Uiso   1.00
H6     H     0.05277   0.05432   0.95263   0.00000  Uiso   1.00
C21    C     0.10334   0.96710   0.70856   0.00000  Uiso   1.00
C22    C     0.17023   0.94973   0.67739   0.00000  Uiso   1.00
C23    C     0.23786   0.95372   0.72422   0.00000  Uiso   1.00
C24    C     0.23734   0.97258   0.80417   0.00000  Uiso   1.00
C25    C     0.30572   0.01867   0.13252   0.00000  Uiso   1.00
C26    C     0.32864   0.99844   0.20699   0.00000  Uiso   1.00
C27    C     0.27150   0.96892   0.26533   0.00000  Uiso   1.00
C28    C     0.19175   0.96277   0.25197   0.00000  Uiso   1.00
C29    C     0.89687   0.01734   0.28689   0.00000  Uiso   1.00
C30    C     0.82987   0.03388   0.31847   0.00000  Uiso   1.00
C31    C     0.76172   0.02900   0.27212   0.00000  Uiso   1.00
C32    C     0.76181   0.00995   0.19204   0.00000  Uiso   1.00
C33    C     0.69750   0.97255   0.86657   0.00000  Uiso   1.00
C34    C     0.67235   0.98867   0.79216   0.00000  Uiso   1.00
C35    C     0.72779   0.01585   0.73203   0.00000  Uiso   1.00
C36    C     0.80814   0.02335   0.74400   0.00000  Uiso   1.00
H7     H     0.05185   0.96491   0.67137   0.00000  Uiso   1.00
H8     H     0.28927   0.97648   0.84133   0.00000  Uiso   1.00
H9     H     0.28985   0.95447   0.32335   0.00000  Uiso   1.00
H10    H     0.14889   0.94178   0.29881   0.00000  Uiso   1.00
H11    H     0.94880   0.02049   0.32379   0.00000  Uiso   1.00
H12    H     0.70958   0.00543   0.15508   0.00000  Uiso   1.00
H13    H     0.65442   0.95231   0.91334   0.00000  Uiso   1.00
H14    H     0.70781   0.02800   0.67404   0.00000  Uiso   1.00
H15    H     0.84991   0.04266   0.69619   0.00000  Uiso   1.00
H16    H     0.16962   0.93505   0.61535   0.00000  Uiso   1.00
H17    H     0.83091   0.04880   0.38050   0.00000  Uiso   1.00
O1     O     0.62051   0.02400   0.27044   0.00000  Uiso   1.00
C37    C     0.68865   0.03653   0.31043   0.00000  Uiso   1.00
O2     O     0.56706   0.83799   0.34037   0.00000  Uiso   1.00
O3     O     0.68793   0.04232   0.38696   0.00000  Uiso   1.00
O4     O     0.50741   0.90806   0.42786   0.00000  Uiso   1.00
C38    C     0.52639   0.83164   0.40505   0.00000  Uiso   1.00
Fe1    Fe    0.52827   0.00362   0.34205   0.00000  Uiso   1.00
O5     O     0.42520   0.94794   0.27783   0.00000  Uiso   1.00
O6     O     0.47083   0.09483   0.21773   0.00000  Uiso   1.00
C39    C     0.41299   0.01094   0.22889   0.00000  Uiso   1.00
O7     O     0.55542   0.13709   0.39170   0.00000  Uiso   1.00
O8     O     0.42100   0.07336   0.42134   0.00000  Uiso   1.00
C40    C     0.49041   0.14625   0.42500   0.00000  Uiso   1.00
C41    C     0.49512   0.23757   0.46623   0.00000  Uiso   1.00
C42    C     0.49509   0.24178   0.54762   0.00000  Uiso   1.00
C43    C     0.50765   0.33213   0.58500   0.00000  Uiso   1.00
C44    C     0.52510   0.34508   0.66473   0.00000  Uiso   1.00
C45    C     0.52984   0.43130   0.70175   0.00000  Uiso   1.00
C46    C     0.48657   0.31338   0.34277   0.00000  Uiso   1.00
C47    C     0.49431   0.31880   0.42363   0.00000  Uiso   1.00
C48    C     0.49695   0.40473   0.46192   0.00000  Uiso   1.00
C49    C     0.47974   0.39131   0.30147   0.00000  Uiso   1.00
C50    C     0.48223   0.47608   0.33976   0.00000  Uiso   1.00
C51    C     0.50533   0.41207   0.54214   0.00000  Uiso   1.00
C52    C     0.51024   0.49925   0.57973   0.00000  Uiso   1.00
C53    C     0.52026   0.50729   0.65977   0.00000  Uiso   1.00
C54    C     0.52286   0.59215   0.69805   0.00000  Uiso   1.00
C55    C     0.49221   0.48409   0.41981   0.00000  Uiso   1.00
C56    C     0.49708   0.57123   0.45740   0.00000  Uiso   1.00
C57    C     0.50550   0.57862   0.53763   0.00000  Uiso   1.00
C58    C     0.50816   0.66460   0.57590   0.00000  Uiso   1.00
C59    C     0.51605   0.67014   0.65676   0.00000  Uiso   1.00
C60    C     0.47262   0.55202   0.29775   0.00000  Uiso   1.00
C61    C     0.47727   0.63818   0.33478   0.00000  Uiso   1.00
C62    C     0.49467   0.65108   0.41451   0.00000  Uiso   1.00
C63    C     0.50709   0.74136   0.45184   0.00000  Uiso   1.00
C64    C     0.50723   0.74574   0.53323   0.00000  Uiso   1.00
H18    H     0.53806   0.29030   0.69992   0.00000  Uiso   1.00
H19    H     0.54167   0.43904   0.76410   0.00000  Uiso   1.00
H20    H     0.48345   0.24851   0.30971   0.00000  Uiso   1.00
H21    H     0.47197   0.38521   0.23862   0.00000  Uiso   1.00
H22    H     0.53070   0.59825   0.76089   0.00000  Uiso   1.00
H23    H     0.51933   0.73514   0.68981   0.00000  Uiso   1.00
H24    H     0.46085   0.54429   0.23540   0.00000  Uiso   1.00
H25    H     0.46433   0.69295   0.29957   0.00000  Uiso   1.00
O9     O     0.57420   0.03618   0.72213   0.00000  Uiso   1.00
O10    O     0.53010   0.89303   0.78824   0.00000  Uiso   1.00
C65    C     0.58749   0.97594   0.77311   0.00000  Uiso   1.00
O11    O     0.44630   0.84527   0.60802   0.00000  Uiso   1.00
O12    O     0.58025   0.91080   0.57713   0.00000  Uiso   1.00
C66    C     0.51141   0.83700   0.57433   0.00000  Uiso   1.00
O13    O     0.43542   0.14537   0.65937   0.00000  Uiso   1.00
O14    O     0.37869   0.95770   0.72772   0.00000  Uiso   1.00
C67    C     0.31122   0.94598   0.68678   0.00000  Uiso   1.00
O15    O     0.49279   0.07397   0.57086   0.00000  Uiso   1.00
C68    C     0.47535   0.15125   0.59427   0.00000  Uiso   1.00
O16    O     0.31310   0.94118   0.61027   0.00000  Uiso   1.00
Fe2    Fe    0.47185   0.97894   0.65705   0.00000  Uiso   1.00
N5     N     0.36472   0.05060   0.07407   0.00000  Uiso   1.00
C69    C     0.39159   0.14840   0.06338   0.00000  Uiso   1.00
O17    O     0.35252   0.19854   0.08732   0.00000  Uiso   1.00
C70    C     0.46954   0.19550   0.02246   0.00000  Uiso   1.00
H26    H     0.40921   0.01830   0.07086   0.00000  Uiso   1.00
H27    H     0.46513   0.16373   0.96269   0.00000  Uiso   1.00
H28    H     0.52058   0.18273   0.05540   0.00000  Uiso   1.00
H29    H     0.48098   0.27544   0.01873   0.00000  Uiso   1.00
