# generated using pymatgen
data_ZnH18C27(NO2)2
_symmetry_space_group_name_H-M   'P 1'
_cell_length_a   13.40948900
_cell_length_b   8.54506300
_cell_length_c   19.36845100
_cell_angle_alpha   90.00000000
_cell_angle_beta   91.03824700
_cell_angle_gamma   90.00000000
_symmetry_Int_Tables_number   1
_chemical_formula_structural   ZnH18C27(NO2)2
_chemical_formula_sum   'Zn2 H36 C54 N4 O8'
_cell_volume   2218.96820421
_cell_formula_units_Z   2
loop_
 _symmetry_equiv_pos_site_id
 _symmetry_equiv_pos_as_xyz
  1  'x, y, z'
loop_
 _atom_site_type_symbol
 _atom_site_label
 _atom_site_symmetry_multiplicity
 _atom_site_fract_x
 _atom_site_fract_y
 _atom_site_fract_z
 _atom_site_occupancy
  Zn  Zn1  1  0.88881500  0.49880900  0.50079400  1
  Zn  Zn2  1  0.11118600  0.49880900  0.49920600  1
  H  H1  1  0.03645600  0.99901100  0.54923900  1
  H  H2  1  0.96354400  0.99901100  0.45076100  1
  H  H3  1  0.98738500  0.25103500  0.73243900  1
  H  H4  1  0.02854000  0.74787800  0.26931400  1
  H  H5  1  0.01261500  0.25103500  0.26756100  1
  H  H6  1  0.97146000  0.74787800  0.73068600  1
  H  H7  1  0.94326500  0.76734000  0.04740200  1
  H  H8  1  0.93376300  0.22660100  0.95581700  1
  H  H9  1  0.05673500  0.76734000  0.95259700  1
  H  H10  1  0.06623700  0.22660100  0.04418300  1
  H  H11  1  0.94761400  0.76891500  0.17191800  1
  H  H12  1  0.91786200  0.22463100  0.83102900  1
  H  H13  1  0.05238600  0.76891500  0.82808200  1
  H  H14  1  0.08213800  0.22463100  0.16897000  1
  H  H15  1  0.41596700  0.52711700  0.67294700  1
  H  H16  1  0.52208700  0.67896900  0.37434200  1
  H  H17  1  0.58403300  0.52711700  0.32705200  1
  H  H18  1  0.47791400  0.67896900  0.62565700  1
  H  H19  1  0.53153600  0.33081000  0.62840100  1
  H  H20  1  0.40107800  0.48805800  0.32903300  1
  H  H21  1  0.46846500  0.33081000  0.37159900  1
  H  H22  1  0.59892200  0.48805800  0.67096700  1
  H  H23  1  0.24855300  0.47220900  0.39194200  1
  H  H24  1  0.75144700  0.47220900  0.60805800  1
  H  H25  1  0.25560600  0.61768700  0.65141000  1
  H  H26  1  0.22337300  0.50028400  0.75796200  1
  H  H27  1  0.23636900  0.26339200  0.82864100  1
  H  H28  1  0.26739200  0.00863100  0.77411600  1
  H  H29  1  0.28500300  0.99126600  0.64829300  1
  H  H30  1  0.27196000  0.22411600  0.57681700  1
  H  H31  1  0.74439500  0.61768700  0.34859000  1
  H  H32  1  0.77662800  0.50028400  0.24203800  1
  H  H33  1  0.76363200  0.26339200  0.17135900  1
  H  H34  1  0.73260800  0.00863100  0.22588400  1
  H  H35  1  0.71499800  0.99126600  0.35170700  1
  H  H36  1  0.72804000  0.22411600  0.42318300  1
  C  C1  1  0.00429600  0.13818400  0.63633600  1
  C  C2  1  0.99664800  0.85967600  0.36392500  1
  C  C3  1  0.99570400  0.13818400  0.36366400  1
  C  C4  1  0.00335200  0.85967600  0.63607500  1
  C  C5  1  0.98974100  0.13936600  0.70665100  1
  C  C6  1  0.01536100  0.85875900  0.29419300  1
  C  C7  1  0.01025900  0.13936600  0.29334900  1
  C  C8  1  0.98463900  0.85875900  0.70580700  1
  C  C9  1  0.98463700  0.99857700  0.74267300  1
  C  C10  1  0.01536400  0.99857700  0.25732600  1
  C  C11  1  0.01867800  0.99892700  0.60300900  1
  C  C12  1  0.98132200  0.99892700  0.39699100  1
  C  C13  1  0.97429900  0.86752400  0.07422600  1
  C  C14  1  0.95914800  0.12570300  0.92743400  1
  C  C15  1  0.02570200  0.86752400  0.92577300  1
  C  C16  1  0.04085200  0.12570300  0.07256600  1
  C  C17  1  0.97838000  0.86821300  0.14534100  1
  C  C18  1  0.95102200  0.12441000  0.85627400  1
  C  C19  1  0.02162100  0.86821300  0.85465900  1
  C  C20  1  0.04897800  0.12441000  0.14372600  1
  C  C21  1  0.01635000  0.99632000  0.18105300  1
  C  C22  1  0.98365100  0.99632000  0.81894700  1
  C  C23  1  0.00387000  0.99706000  0.03766900  1
  C  C24  1  0.99613000  0.99706000  0.96233000  1
  C  C25  1  0.00203300  0.71748600  0.59426300  1
  C  C26  1  0.99763200  0.28044800  0.40550100  1
  C  C27  1  0.99796700  0.71748600  0.40573700  1
  C  C28  1  0.00236900  0.28044800  0.59449900  1
  C  C29  1  0.29046200  0.48564500  0.43975200  1
  C  C30  1  0.70953800  0.48564500  0.56024800  1
  C  C31  1  0.29312100  0.51288000  0.56047700  1
  C  C32  1  0.70688000  0.51288000  0.43952300  1
  C  C33  1  0.39655500  0.52038900  0.56119300  1
  C  C34  1  0.60344500  0.52038900  0.43880700  1
  C  C35  1  0.44590500  0.50460900  0.50008300  1
  C  C36  1  0.55409500  0.50460900  0.49991700  1
  C  C37  1  0.39328800  0.48519700  0.43929700  1
  C  C38  1  0.60671300  0.48519700  0.56070300  1
  C  C39  1  0.45696700  0.55341700  0.62533700  1
  C  C40  1  0.54303400  0.55341700  0.37466300  1
  C  C41  1  0.55166000  0.45649000  0.62550100  1
  C  C42  1  0.44834000  0.45649000  0.37449900  1
  C  C43  1  0.24768200  0.38042200  0.66261400  1
  C  C44  1  0.23730200  0.38901800  0.73337700  1
  C  C45  1  0.24447100  0.25581200  0.77331300  1
  C  C46  1  0.26185500  0.11306900  0.74278500  1
  C  C47  1  0.27181200  0.10345900  0.67224400  1
  C  C48  1  0.26475500  0.23637400  0.63203500  1
  C  C49  1  0.75231800  0.38042200  0.33738600  1
  C  C50  1  0.76269900  0.38901800  0.26662300  1
  C  C51  1  0.75553000  0.25581200  0.22668700  1
  C  C52  1  0.73814600  0.11306900  0.25721500  1
  C  C53  1  0.72818800  0.10345900  0.32775600  1
  C  C54  1  0.73524500  0.23637400  0.36796500  1
  N  N1  1  0.24207000  0.49865700  0.49988200  1
  N  N2  1  0.75793000  0.49865700  0.50011700  1
  N  N3  1  0.24033600  0.51891100  0.62273200  1
  N  N4  1  0.75966400  0.51891100  0.37726800  1
  O  O1  1  0.08679600  0.66886500  0.56909100  1
  O  O2  1  0.91307000  0.32991700  0.43040500  1
  O  O3  1  0.91320400  0.66886500  0.43090900  1
  O  O4  1  0.08693000  0.32991700  0.56959500  1
  O  O5  1  0.91498400  0.66179800  0.57419100  1
  O  O6  1  0.08483000  0.33486500  0.42620400  1
  O  O7  1  0.08501700  0.66179800  0.42580900  1
  O  O8  1  0.91517100  0.33486500  0.57379600  1
