# generated using pymatgen
data_ZnH26C25NO4
_symmetry_space_group_name_H-M   'P 1'
_cell_length_a   8.43271600
_cell_length_b   14.31110200
_cell_length_c   15.08190800
_cell_angle_alpha   98.72710100
_cell_angle_beta   89.84883800
_cell_angle_gamma   89.72941100
_symmetry_Int_Tables_number   1
_chemical_formula_structural   ZnH26C25NO4
_chemical_formula_sum   'Zn2 H52 C50 N2 O8'
_cell_volume   1799.00345703
_cell_formula_units_Z   2
loop_
 _symmetry_equiv_pos_site_id
 _symmetry_equiv_pos_as_xyz
  1  'x, y, z'
loop_
 _atom_site_type_symbol
 _atom_site_label
 _atom_site_symmetry_multiplicity
 _atom_site_fract_x
 _atom_site_fract_y
 _atom_site_fract_z
 _atom_site_occupancy
  Zn  Zn1  1  0.49596700  0.89693300  0.50689300  1
  Zn  Zn2  1  0.49795700  0.10372400  0.49770300  1
  H  H1  1  0.99154500  0.05262400  0.56982900  1
  H  H2  1  0.00088200  0.94579000  0.43360100  1
  H  H3  1  0.74845300  0.01122800  0.80707500  1
  H  H4  1  0.24826000  0.98659200  0.19732700  1
  H  H5  1  0.00422400  0.13344700  0.12481800  1
  H  H6  1  0.98007000  0.86763400  0.87998100  1
  H  H7  1  0.26533400  0.54940900  0.42450900  1
  H  H8  1  0.72882800  0.45124100  0.58004500  1
  H  H9  1  0.50866900  0.42445900  0.34631400  1
  H  H10  1  0.48549700  0.57619400  0.65823800  1
  H  H11  1  0.37038500  0.96125000  0.76532900  1
  H  H12  1  0.31534400  0.16590900  0.78584900  1
  H  H13  1  0.48555400  0.09598100  0.74348800  1
  H  H14  1  0.46562600  0.13495200  0.86224000  1
  H  H15  1  0.27935400  0.05673200  0.95327500  1
  H  H16  1  0.45265300  0.99077400  0.91728400  1
  H  H17  1  0.27097200  0.92956000  0.90831900  1
  H  H18  1  0.59870600  0.96590600  0.23068100  1
  H  H19  1  0.73557800  0.13016200  0.14800300  1
  H  H20  1  0.69390500  0.13626700  0.26599900  1
  H  H21  1  0.53648300  0.11226200  0.18479500  1
  H  H22  1  0.71881700  0.99007700  0.04681500  1
  H  H23  1  0.54233600  0.93925400  0.08277900  1
  H  H24  1  0.72394100  0.87501200  0.08544900  1
  H  H25  1  0.90686900  0.23150900  0.02211200  1
  H  H26  1  0.23733400  0.21455200  0.93730400  1
  H  H27  1  0.19802000  0.22243300  0.05612900  1
  H  H28  1  0.14142600  0.31819400  0.99705900  1
  H  H29  1  0.02524000  0.19753100  0.82833800  1
  H  H30  1  0.91130300  0.29260500  0.88652700  1
  H  H31  1  0.81992500  0.17940100  0.86443500  1
  H  H32  1  0.90980800  0.76603800  0.99730700  1
  H  H33  1  0.26560700  0.80570900  0.01823900  1
  H  H34  1  0.16088300  0.76584400  0.91512600  1
  H  H35  1  0.17815500  0.68938900  0.99864500  1
  H  H36  1  0.12001000  0.80943900  0.16372100  1
  H  H37  1  0.01299000  0.70474700  0.12533100  1
  H  H38  1  0.90167600  0.80726100  0.16529900  1
  H  H39  1  0.14708200  0.50917400  0.60742000  1
  H  H40  1  0.19153700  0.31341100  0.49376200  1
  H  H41  1  0.09588600  0.41448200  0.45758900  1
  H  H42  1  0.01090600  0.36111900  0.54791900  1
  H  H43  1  0.32981400  0.33129700  0.64052300  1
  H  H44  1  0.15024500  0.37820700  0.69648800  1
  H  H45  1  0.33208400  0.44502800  0.71169200  1
  H  H46  1  0.84709600  0.49150000  0.39713700  1
  H  H47  1  0.66437700  0.66939900  0.36408200  1
  H  H48  1  0.66211500  0.55568700  0.29287800  1
  H  H49  1  0.84395400  0.62250600  0.30811400  1
  H  H50  1  0.80259600  0.68722500  0.51085700  1
  H  H51  1  0.98324500  0.63956200  0.45668300  1
  H  H52  1  0.89828900  0.58614400  0.54698500  1
  C  C1  1  0.85407400  0.03488100  0.68375800  1
  C  C2  1  0.14012500  0.96517200  0.32069800  1
  C  C3  1  0.85793000  0.02183600  0.77257700  1
  C  C4  1  0.13819200  0.97733300  0.23178000  1
  C  C5  1  0.00076200  0.02585200  0.81896400  1
  C  C6  1  0.99562600  0.97476900  0.18567400  1
  C  C7  1  0.14381400  0.02842400  0.77161000  1
  C  C8  1  0.85227300  0.97580800  0.23248100  1
  C  C9  1  0.13616300  0.03853300  0.68201100  1
  C  C10  1  0.85703600  0.96248000  0.32171200  1
  C  C11  1  0.99348600  0.04677700  0.64035700  1
  C  C12  1  0.99971700  0.95257500  0.36327400  1
  C  C13  1  0.99562600  0.09292700  0.98315000  1
  C  C14  1  0.99722700  0.90737400  0.02182200  1
  C  C15  1  0.00018800  0.07490000  0.07042000  1
  C  C16  1  0.98650400  0.92569800  0.93464700  1
  C  C17  1  0.99932000  0.98421400  0.09087300  1
  C  C18  1  0.99513800  0.01623600  0.91405000  1
  C  C19  1  0.70983500  0.02429500  0.62942900  1
  C  C20  1  0.28391100  0.97622300  0.37534600  1
  C  C21  1  0.27690200  0.02714100  0.62535000  1
  C  C22  1  0.71706100  0.97372500  0.37924300  1
  C  C23  1  0.50226200  0.45968700  0.41699500  1
  C  C24  1  0.49190200  0.54096500  0.58755700  1
  C  C25  1  0.37104600  0.52619900  0.45912000  1
  C  C26  1  0.62311700  0.47445200  0.54543300  1
  C  C27  1  0.62499900  0.52596800  0.46477600  1
  C  C28  1  0.36916500  0.47468700  0.53977700  1
  C  C29  1  0.49589000  0.59113300  0.50624100  1
  C  C30  1  0.49827000  0.40951800  0.49831200  1
  C  C31  1  0.49501800  0.69388100  0.50976000  1
  C  C32  1  0.49905600  0.30677100  0.49480500  1
  C  C33  1  0.30942300  0.02045000  0.80809700  1
  C  C34  1  0.39959400  0.11022800  0.79966700  1
  C  C35  1  0.32468500  0.99862800  0.90305100  1
  C  C36  1  0.69353800  0.99454300  0.19182200  1
  C  C37  1  0.66363100  0.10003400  0.19800500  1
  C  C38  1  0.67144000  0.94667400  0.09559600  1
  C  C39  1  0.99165400  0.19562700  0.97161000  1
  C  C40  1  0.15276600  0.24031000  0.99179900  1
  C  C41  1  0.93398400  0.21555300  0.88115100  1
  C  C42  1  0.01083800  0.80431700  0.03277600  1
  C  C43  1  0.16337500  0.76397300  0.98820500  1
  C  C44  1  0.01093200  0.78265900  0.12840200  1
  C  C45  1  0.21910000  0.44519900  0.58363800  1
  C  C46  1  0.12332400  0.37912900  0.51629000  1
  C  C47  1  0.26072000  0.39664600  0.66318500  1
  C  C48  1  0.77507400  0.55546900  0.42093300  1
  C  C49  1  0.73347100  0.60405400  0.34140300  1
  C  C50  1  0.87083500  0.62152300  0.48830300  1
  N  N1  1  0.49468700  0.77497700  0.51140900  1
  N  N2  1  0.49929800  0.22567500  0.49316700  1
  O  O1  1  0.65733200  0.09834600  0.59625000  1
  O  O2  1  0.33685300  0.90221400  0.40824300  1
  O  O3  1  0.66077700  0.93808200  0.60110400  1
  O  O4  1  0.33285900  0.06255900  0.40363000  1
  O  O5  1  0.33154800  0.94100300  0.60131100  1
  O  O6  1  0.66198700  0.05965000  0.40309300  1
  O  O7  1  0.32675300  0.10028100  0.59055300  1
  O  O8  1  0.66736400  0.90050000  0.41412700  1
