# generated using pymatgen
data_ZnH5C14Br(NO2)2
_symmetry_space_group_name_H-M   'P 1'
_cell_length_a   8.52638800
_cell_length_b   10.86212000
_cell_length_c   13.42201800
_cell_angle_alpha   90.50617300
_cell_angle_beta   90.09922700
_cell_angle_gamma   89.99827800
_symmetry_Int_Tables_number   1
_chemical_formula_structural   ZnH5C14Br(NO2)2
_chemical_formula_sum   'Zn2 H10 C28 Br2 N4 O8'
_cell_volume   1243.02512163
_cell_formula_units_Z   2
loop_
 _symmetry_equiv_pos_site_id
 _symmetry_equiv_pos_as_xyz
  1  'x, y, z'
loop_
 _atom_site_type_symbol
 _atom_site_label
 _atom_site_symmetry_multiplicity
 _atom_site_fract_x
 _atom_site_fract_y
 _atom_site_fract_z
 _atom_site_occupancy
  Zn  Zn1  1  0.50098700  0.49889400  0.11104600  1
  Zn  Zn2  1  0.50044500  0.50423200  0.88901600  1
  H  H1  1  0.38965300  0.89493800  0.00141100  1
  H  H2  1  0.00467900  0.58968100  0.03032800  1
  H  H3  1  0.00393900  0.41413700  0.96997500  1
  H  H4  1  0.74410100  0.90964800  0.98268600  1
  H  H5  1  0.74418000  0.09373700  0.01710900  1
  H  H6  1  0.50029700  0.80136700  0.41647000  1
  H  H7  1  0.50031100  0.29654100  0.57537300  1
  H  H8  1  0.49982000  0.29491100  0.42253200  1
  H  H9  1  0.49957300  0.69580600  0.74457500  1
  H  H10  1  0.50048700  0.30585900  0.24573800  1
  C  C1  1  0.00267800  0.68613500  0.01604200  1
  C  C2  1  0.86201600  0.74420500  0.00417500  1
  C  C3  1  0.85788500  0.86961200  0.99386800  1
  C  C4  1  0.14129500  0.74781000  0.00508900  1
  C  C5  1  0.13949100  0.87558000  0.00053900  1
  C  C6  1  0.99663600  0.93756000  0.99924800  1
  C  C7  1  0.99664000  0.06600000  0.00054400  1
  C  C8  1  0.85788600  0.13383300  0.00600300  1
  C  C9  1  0.86192100  0.25928500  0.99595100  1
  C  C10  1  0.27794100  0.94185600  0.00027300  1
  C  C11  1  0.13924800  0.12851600  0.99932900  1
  C  C12  1  0.14076200  0.25599500  0.99493400  1
  C  C13  1  0.00223300  0.31765100  0.98412400  1
  C  C14  1  0.72012500  0.33413600  0.99841700  1
  C  C15  1  0.72005400  0.66916900  0.00175200  1
  C  C16  1  0.28326800  0.67158500  0.00194600  1
  C  C17  1  0.28331300  0.33140100  0.99799500  1
  C  C18  1  0.49962500  0.60810500  0.70588900  1
  C  C19  1  0.50007100  0.39346800  0.70985600  1
  C  C20  1  0.50002500  0.38736100  0.60755800  1
  C  C21  1  0.49992400  0.49388700  0.55181900  1
  C  C22  1  0.49974800  0.60501200  0.60277700  1
  C  C23  1  0.50017800  0.38539200  0.39098200  1
  C  C24  1  0.50016100  0.49308800  0.44764000  1
  C  C25  1  0.50041300  0.60415400  0.39813400  1
  C  C26  1  0.50020100  0.71314700  0.45258800  1
  C  C27  1  0.50053300  0.39054100  0.28860500  1
  C  C28  1  0.50087200  0.60571100  0.29455100  1
  Br  Br1  1  0.50083200  0.24109700  0.77967100  1
  Br  Br2  1  0.50162200  0.75887100  0.22518700  1
  N  N1  1  0.27541100  0.06580900  0.99950700  1
  N  N2  1  0.49991500  0.50302200  0.75825600  1
  N  N3  1  0.49985500  0.71147000  0.55267100  1
  N  N4  1  0.50097000  0.49923500  0.24177500  1
  O  O1  1  0.67044100  0.37940300  0.91395100  1
  O  O2  1  0.66475900  0.36861600  0.08552700  1
  O  O3  1  0.67076500  0.62393700  0.08642000  1
  O  O4  1  0.66421900  0.63467000  0.91445700  1
  O  O5  1  0.33188000  0.62456400  0.08611700  1
  O  O6  1  0.33681900  0.63484200  0.91461200  1
  O  O7  1  0.33143500  0.37863900  0.91404000  1
  O  O8  1  0.33731900  0.36831400  0.08513500  1
