# generated using pymatgen
data_Zn3H23C32ClO12
_symmetry_space_group_name_H-M   'P 1'
_cell_length_a   22.10546900
_cell_length_b   22.11585200
_cell_length_c   22.33045500
_cell_angle_alpha   119.66953400
_cell_angle_beta   119.65252300
_cell_angle_gamma   90.01298900
_symmetry_Int_Tables_number   1
_chemical_formula_structural   Zn3H23C32ClO12
_chemical_formula_sum   'Zn6 H46 C64 Cl2 O24'
_cell_volume   7797.02567416
_cell_formula_units_Z   2
loop_
 _symmetry_equiv_pos_site_id
 _symmetry_equiv_pos_as_xyz
  1  'x, y, z'
loop_
 _atom_site_type_symbol
 _atom_site_label
 _atom_site_symmetry_multiplicity
 _atom_site_fract_x
 _atom_site_fract_y
 _atom_site_fract_z
 _atom_site_occupancy
  Zn  Zn1  1  0.06638500  0.50388700  0.49612500  1
  Zn  Zn2  1  0.93261100  0.49625700  0.50167400  1
  Zn  Zn3  1  0.49606700  0.93367600  0.50237700  1
  Zn  Zn4  1  0.50305700  0.06653300  0.49543300  1
  Zn  Zn5  1  0.04924700  0.04992500  0.59366300  1
  Zn  Zn6  1  0.94991100  0.95026000  0.40422000  1
  H  H1  1  0.31835200  0.69092700  0.06497600  1
  H  H2  1  0.68335400  0.31034000  0.93294700  1
  H  H3  1  0.25477900  0.62531800  0.92512200  1
  H  H4  1  0.74689500  0.37604400  0.07280400  1
  H  H5  1  0.11875300  0.72626800  0.92745000  1
  H  H6  1  0.87985100  0.27103700  0.07025500  1
  H  H7  1  0.14101000  0.64575600  0.92138600  1
  H  H8  1  0.85996700  0.35234500  0.07651600  1
  H  H9  1  0.21222000  0.70919600  0.06238800  1
  H  H10  1  0.78888000  0.28911400  0.93553100  1
  H  H11  1  0.18511800  0.78773600  0.06845700  1
  H  H12  1  0.81374900  0.20966900  0.92927200  1
  H  H13  1  0.27656500  0.79638200  0.93369400  1
  H  H14  1  0.72011400  0.20544700  0.06395800  1
  H  H15  1  0.19433200  0.81000800  0.92748000  1
  H  H16  1  0.80183500  0.18951300  0.07020300  1
  H  H17  1  0.31127900  0.69023600  0.93159000  1
  H  H18  1  0.68860500  0.31268200  0.06630000  1
  H  H19  1  0.37892400  0.75320400  0.07428500  1
  H  H20  1  0.62116300  0.24966200  0.92361800  1
  H  H21  1  0.24570100  0.86808600  0.06224100  1
  H  H22  1  0.75083000  0.13113300  0.93546800  1
  H  H23  1  0.01014600  0.24728400  0.60413200  1
  H  H24  1  0.98891700  0.75287600  0.39371100  1
  H  H25  1  0.97618000  0.17073900  0.42830000  1
  H  H26  1  0.02295400  0.82943800  0.56957500  1
  H  H27  1  0.97214500  0.34315200  0.57468800  1
  H  H28  1  0.02687900  0.65698900  0.42313200  1
  H  H29  1  0.04948100  0.28849900  0.48526500  1
  H  H30  1  0.94954700  0.71167000  0.51255800  1
  H  H31  1  0.75185600  0.98893900  0.39272200  1
  H  H32  1  0.24734300  0.01132900  0.60519600  1
  H  H33  1  0.82843900  0.02389300  0.56898200  1
  H  H34  1  0.17071000  0.97628200  0.42889000  1
  H  H35  1  0.65562800  0.02671200  0.42179400  1
  H  H36  1  0.34358200  0.97358600  0.57613700  1
  H  H37  1  0.71100800  0.95032300  0.51221600  1
  H  H38  1  0.28810000  0.04986000  0.48558700  1
  H  H39  1  0.32761500  0.98123200  0.16809800  1
  H  H40  1  0.44381600  0.07488600  0.24551500  1
  H  H41  1  0.51365900  0.91478500  0.11006500  1
  H  H42  1  0.39807500  0.82047800  0.03116500  1
  H  H43  1  0.66721700  0.01886200  0.82946700  1
  H  H44  1  0.54938700  0.92742600  0.75173300  1
  H  H45  1  0.48214800  0.09124400  0.88722800  1
  H  H46  1  0.59935800  0.18337100  0.96644200  1
  C  C1  1  0.01257400  0.38493800  0.50412600  1
  C  C2  1  0.98642500  0.61520800  0.49367500  1
  C  C3  1  0.08293600  0.58525700  0.66275200  1
  C  C4  1  0.91605900  0.41488500  0.33504600  1
  C  C5  1  0.27592500  0.68420900  0.95150500  1
  C  C6  1  0.72439200  0.31739600  0.04637400  1
  C  C7  1  0.16443100  0.70449100  0.94875700  1
  C  C8  1  0.83517700  0.29389700  0.04904600  1
  C  C9  1  0.21038400  0.74749500  0.04362100  1
  C  C10  1  0.78933000  0.25097000  0.95419400  1
  C  C11  1  0.36862000  0.86889700  0.24525000  1
  C  C12  1  0.63051600  0.13131400  0.75255700  1
  C  C13  1  0.21190300  0.71142900  0.91981500  1
  C  C14  1  0.78711300  0.28873500  0.07798100  1
  C  C15  1  0.32047000  0.72850000  0.04629600  1
  C  C16  1  0.67990100  0.27307800  0.95158500  1
  C  C17  1  0.28748600  0.78688100  0.07810100  1
  C  C18  1  0.71161400  0.21331100  0.91970200  1
  C  C19  1  0.28156700  0.83712700  0.04838900  1
  C  C20  1  0.71565100  0.16327700  0.94932300  1
  C  C21  1  0.24115000  0.79119000  0.95372500  1
  C  C22  1  0.75599300  0.20933800  0.04398200  1
  C  C23  1  0.33162400  0.83108600  0.16973200  1
  C  C24  1  0.66750800  0.16912200  0.82807400  1
  C  C25  1  0.16735200  0.66713600  0.82818400  1
  C  C26  1  0.83164500  0.33300900  0.16961200  1
  C  C27  1  0.12954600  0.63016200  0.75266300  1
  C  C28  1  0.86944700  0.36997900  0.24513400  1
  C  C29  1  0.00249700  0.24262900  0.55001200  1
  C  C30  1  0.99657800  0.75753700  0.44783800  1
  C  C31  1  0.99230200  0.17810900  0.48649400  1
  C  C32  1  0.00682600  0.82207100  0.51138100  1
  C  C33  1  0.99449600  0.30571700  0.54392800  1
  C  C34  1  0.00453900  0.69443600  0.45389900  1
  C  C35  1  0.01962300  0.32087300  0.50783900  1
  C  C36  1  0.97939100  0.67928000  0.48997400  1
  C  C37  1  0.61433800  0.98684800  0.49315800  1
  C  C38  1  0.38478900  0.01336200  0.50465800  1
  C  C39  1  0.41371200  0.91588300  0.33511500  1
  C  C40  1  0.58541600  0.08432600  0.66269400  1
  C  C41  1  0.88537900  0.00472600  0.50695100  1
  C  C42  1  0.11378100  0.99546100  0.49093300  1
  C  C43  1  0.99509300  0.11399500  0.49048200  1
  C  C44  1  0.00406100  0.88619000  0.50740100  1
  C  C45  1  0.75652300  0.99688800  0.44696900  1
  C  C46  1  0.24265500  0.00335300  0.55092900  1
  C  C47  1  0.82112800  0.00751400  0.51074300  1
  C  C48  1  0.17803300  0.99268200  0.48714000  1
  C  C49  1  0.69329200  0.00470200  0.45287300  1
  C  C50  1  0.30588700  0.99555400  0.54502100  1
  C  C51  1  0.67837100  0.97985200  0.48930800  1
  C  C52  1  0.32076600  0.02036400  0.50853000  1
  C  C53  1  0.35400700  0.89327600  0.09438300  1
  C  C54  1  0.36774900  0.96559700  0.15425000  1
  C  C55  1  0.43348200  0.01876600  0.19844000  1
  C  C56  1  0.48603600  0.00053500  0.18290400  1
  C  C57  1  0.47264900  0.92907700  0.12277600  1
  C  C58  1  0.40705600  0.87567200  0.07856600  1
  C  C59  1  0.64227100  0.10851900  0.90322600  1
  C  C60  1  0.62731600  0.03579100  0.84326800  1
  C  C61  1  0.56066100  0.98387300  0.79889600  1
  C  C62  1  0.50837400  0.00377300  0.81434300  1
  C  C63  1  0.52295700  0.07564400  0.87458600  1
  C  C64  1  0.58947900  0.12780300  0.91897700  1
  Cl  Cl1  1  0.56955000  0.06812800  0.23918600  1
  Cl  Cl2  1  0.42366700  0.93777700  0.75778200  1
  O  O1  1  0.05934600  0.41345100  0.49775700  1
  O  O2  1  0.93965000  0.58669400  0.50004100  1
  O  O3  1  0.96000200  0.41085900  0.50718800  1
  O  O4  1  0.03899500  0.58928600  0.49061100  1
  O  O5  1  0.11359100  0.56632900  0.62140300  1
  O  O6  1  0.88540500  0.43381500  0.37639500  1
  O  O7  1  0.01168500  0.56391600  0.62626700  1
  O  O8  1  0.98731000  0.43622800  0.37153100  1
  O  O9  1  0.58626600  0.94042500  0.50019700  1
  O  O10  1  0.41285900  0.05978400  0.49761400  1
  O  O11  1  0.58806700  0.03910500  0.48969400  1
  O  O12  1  0.41105900  0.96110600  0.50811900  1
  O  O13  1  0.43342300  0.88565300  0.37693000  1
  O  O14  1  0.56570100  0.11455700  0.62088000  1
  O  O15  1  0.43458600  0.98705800  0.37105900  1
  O  O16  1  0.56453900  0.01315100  0.62675100  1
  O  O17  1  0.95058300  0.03994800  0.57811900  1
  O  O18  1  0.04857600  0.96023700  0.41976600  1
  O  O19  1  0.87527200  0.96761400  0.43335900  1
  O  O20  1  0.12388600  0.03257300  0.56452400  1
  O  O21  1  0.03203700  0.12428700  0.56416200  1
  O  O22  1  0.96711900  0.87590000  0.43372200  1
  O  O23  1  0.95995900  0.04873200  0.41941500  1
  O  O24  1  0.03920000  0.95145300  0.57846900  1
