# generated using pymatgen
data_ZnH11C17S2NO4
_symmetry_space_group_name_H-M   'P 1'
_cell_length_a   8.50790200
_cell_length_b   11.27693400
_cell_length_c   13.05792100
_cell_angle_alpha   95.04446200
_cell_angle_beta   84.70859700
_cell_angle_gamma   90.07022700
_symmetry_Int_Tables_number   1
_chemical_formula_structural   ZnH11C17S2NO4
_chemical_formula_sum   'Zn2 H22 C34 S4 N2 O8'
_cell_volume   1242.61624141
_cell_formula_units_Z   2
loop_
 _symmetry_equiv_pos_site_id
 _symmetry_equiv_pos_as_xyz
  1  'x, y, z'
loop_
 _atom_site_type_symbol
 _atom_site_label
 _atom_site_symmetry_multiplicity
 _atom_site_fract_x
 _atom_site_fract_y
 _atom_site_fract_z
 _atom_site_occupancy
  Zn  Zn1  1  0.55012600  0.86282900  0.48934900  1
  Zn  Zn2  1  0.53791900  0.12754500  0.52443900  1
  H  H1  1  0.61686200  0.03642400  0.82777300  1
  H  H2  1  0.05085300  0.03319000  0.43717600  1
  H  H3  1  0.33654700  0.96175400  0.15675200  1
  H  H4  1  0.22249100  0.96408000  0.00032300  1
  H  H5  1  0.25439100  0.00951300  0.85049100  1
  H  H6  1  0.03455000  0.94365200  0.57628200  1
  H  H7  1  0.54740100  0.29039000  0.38118200  1
  H  H8  1  0.51423400  0.29729800  0.70422400  1
  H  H9  1  0.56981500  0.47279900  0.29732500  1
  H  H10  1  0.53483400  0.70312500  0.63323100  1
  H  H11  1  0.76148800  0.61438500  0.82954500  1
  H  H12  1  0.78299300  0.56099100  0.69465600  1
  H  H13  1  0.76530300  0.45562100  0.79258700  1
  H  H14  1  0.33118500  0.74624500  0.19572900  1
  H  H15  1  0.31214900  0.66356200  0.30820700  1
  H  H16  1  0.39126800  0.59105200  0.18471100  1
  H  H17  1  0.45422200  0.29878000  0.01850700  1
  H  H18  1  0.44873900  0.21503500  0.89398500  1
  H  H19  1  0.63596300  0.25230300  0.94398200  1
  H  H20  1  0.56946600  0.29333200  0.18847200  1
  H  H21  1  0.74636700  0.24531700  0.11023800  1
  H  H22  1  0.75465400  0.28289900  0.24681100  1
  C  C1  1  0.99766300  0.00110900  0.87138400  1
  C  C2  1  0.86525500  0.00545100  0.81683400  1
  C  C3  1  0.72023200  0.02888800  0.86896400  1
  C  C4  1  0.70252400  0.04718800  0.97448100  1
  C  C5  1  0.83060300  0.02978900  0.03225800  1
  C  C6  1  0.97925400  0.00624000  0.97981300  1
  C  C7  1  0.81415900  0.03630000  0.14057100  1
  C  C8  1  0.94280300  0.01462000  0.19533100  1
  C  C9  1  0.09007900  0.99431400  0.14303100  1
  C  C10  1  0.10688700  0.98735700  0.03656700  1
  C  C11  1  0.92959800  0.01643900  0.30260300  1
  C  C12  1  0.06276100  0.02060800  0.35439700  1
  C  C13  1  0.20927500  0.00186400  0.30350700  1
  C  C14  1  0.22216300  0.98169200  0.19717200  1
  C  C15  1  0.14558300  0.99579500  0.81540600  1
  C  C16  1  0.15691300  0.97694800  0.70941500  1
  C  C17  1  0.02385500  0.96278100  0.65864200  1
  C  C18  1  0.87853100  0.98638500  0.70997200  1
  C  C19  1  0.78159900  0.00737700  0.36702500  1
  C  C20  1  0.74503700  0.99098000  0.64658900  1
  C  C21  1  0.30674300  0.98357500  0.64699300  1
  C  C22  1  0.34356900  0.99884200  0.36654400  1
  C  C23  1  0.56252600  0.52209000  0.37229300  1
  C  C24  1  0.56700300  0.64469000  0.37915900  1
  C  C25  1  0.54349900  0.65062700  0.55976000  1
  C  C26  1  0.53893200  0.52771500  0.55551700  1
  C  C27  1  0.54759700  0.46341800  0.46096000  1
  C  C28  1  0.54183500  0.34096000  0.45538800  1
  C  C29  1  0.52222900  0.34453700  0.63542200  1
  C  C30  1  0.52517600  0.46753500  0.64399600  1
  C  C31  1  0.72653900  0.54353800  0.77181200  1
  C  C32  1  0.38539800  0.67564200  0.23515300  1
  C  C33  1  0.51194000  0.22686200  0.96471800  1
  C  C34  1  0.68106400  0.24251100  0.18732900  1
  S  S1  1  0.51365300  0.54554100  0.76981900  1
  S  S2  1  0.58273400  0.71999200  0.26395500  1
  S  S3  1  0.50699500  0.08901400  0.02721100  1
  S  S4  1  0.63487500  0.08972700  0.21186800  1
  N  N1  1  0.53089800  0.28338900  0.54178300  1
  N  N2  1  0.55684700  0.70696200  0.47235500  1
  O  O1  1  0.72268300  0.10556800  0.41639100  1
  O  O2  1  0.72770300  0.90083300  0.38435700  1
  O  O3  1  0.70450000  0.89119300  0.59691100  1
  O  O4  1  0.68915000  0.09545000  0.62919500  1
  O  O5  1  0.36500700  0.88518300  0.59724300  1
  O  O6  1  0.36101500  0.08956100  0.62970000  1
  O  O7  1  0.38325000  0.09895600  0.41690400  1
  O  O8  1  0.39950300  0.89476300  0.38425900  1
