# generated using pymatgen
data_FeH11C29ClO8
_symmetry_space_group_name_H-M   'P 1'
_cell_length_a   14.61182100
_cell_length_b   11.77099100
_cell_length_c   15.32180400
_cell_angle_alpha   90.64958300
_cell_angle_beta   91.86221400
_cell_angle_gamma   101.17253100
_symmetry_Int_Tables_number   1
_chemical_formula_structural   FeH11C29ClO8
_chemical_formula_sum   'Fe2 H22 C58 Cl2 O16'
_cell_volume   2583.55632772
_cell_formula_units_Z   2
loop_
 _symmetry_equiv_pos_site_id
 _symmetry_equiv_pos_as_xyz
  1  'x, y, z'
loop_
 _atom_site_type_symbol
 _atom_site_label
 _atom_site_symmetry_multiplicity
 _atom_site_fract_x
 _atom_site_fract_y
 _atom_site_fract_z
 _atom_site_occupancy
  Fe  Fe1  1  0.47810700  0.95227900  0.11325200  1
  Fe  Fe2  1  0.49265200  0.99006200  0.76569300  1
  H  H1  1  0.01500700  0.03970400  0.85474800  1
  H  H2  1  0.92820800  0.86019100  0.87245900  1
  H  H3  1  0.77981900  0.86344000  0.80116300  1
  H  H4  1  0.23069200  0.98487200  0.14275700  1
  H  H5  1  0.09892400  0.00719200  0.22376200  1
  H  H6  1  0.94479400  0.03843100  0.23026400  1
  H  H7  1  0.79593400  0.04255300  0.16308600  1
  H  H8  1  0.47102900  0.73875200  0.34660900  1
  H  H9  1  0.50648200  0.77213600  0.47447200  1
  H  H10  1  0.46645600  0.17209700  0.40741000  1
  H  H11  1  0.48888300  0.20322300  0.53771800  1
  H  H12  1  0.47571700  0.50882000  0.13625200  1
  H  H13  1  0.47864400  0.31514700  0.15790200  1
  H  H14  1  0.49685500  0.64003600  0.72360100  1
  H  H15  1  0.13348500  0.85218100  0.71227600  1
  H  H16  1  0.08708200  0.06382100  0.49797100  1
  H  H17  1  0.09993600  0.23144100  0.59806100  1
  H  H18  1  0.13056600  0.21005100  0.75509200  1
  H  H19  1  0.67049100  0.46772100  0.75839800  1
  H  H20  1  0.58375400  0.52741900  0.01450600  1
  H  H21  1  0.41964900  0.48784700  0.96120000  1
  H  H22  1  0.38097000  0.43846000  0.80622400  1
  C  C1  1  0.23590800  0.00227100  0.87592900  1
  C  C2  1  0.15118900  0.01648500  0.83721400  1
  C  C3  1  0.07480500  0.01561100  0.88707300  1
  C  C4  1  0.87872100  0.89880600  0.90742700  1
  C  C5  1  0.24019700  0.98884900  0.96680300  1
  C  C6  1  0.16012300  0.98387100  0.01557400  1
  C  C7  1  0.07453400  0.98719800  0.97444800  1
  C  C8  1  0.99333800  0.97740800  0.02360500  1
  C  C9  1  0.79306300  0.89596000  0.86755800  1
  C  C10  1  0.72349600  0.93199100  0.91172200  1
  C  C11  1  0.90094900  0.95351400  0.98814800  1
  C  C12  1  0.82725900  0.97406800  0.03790800  1
  C  C13  1  0.73598400  0.95629900  0.00095000  1
  C  C14  1  0.16637400  0.98474000  0.10615300  1
  C  C15  1  0.09082600  0.99710500  0.15355800  1
  C  C16  1  0.00543500  0.99523000  0.11275000  1
  C  C17  1  0.93305900  0.01549300  0.16174200  1
  C  C18  1  0.84671900  0.01362000  0.12339600  1
  C  C19  1  0.65301900  0.95058800  0.05582900  1
  C  C20  1  0.47193300  0.73075200  0.17629000  1
  C  C21  1  0.33068800  0.99556500  0.01343800  1
  C  C22  1  0.46807400  0.11945200  0.24304900  1
  C  C23  1  0.50222100  0.82553500  0.63705400  1
  C  C24  1  0.63548300  0.93057800  0.86350600  1
  C  C25  1  0.50102100  0.21121800  0.70699100  1
  C  C26  1  0.32009300  0.00741000  0.82235200  1
  C  C27  1  0.47481400  0.63463600  0.23708100  1
  C  C28  1  0.47743000  0.52559600  0.20573100  1
  C  C29  1  0.47940100  0.43595100  0.26255700  1
  C  C30  1  0.47934600  0.32787100  0.22790900  1
  C  C31  1  0.47402200  0.23476000  0.28162300  1
  C  C32  1  0.47670500  0.65319000  0.32619700  1
  C  C33  1  0.48308600  0.56434700  0.38513400  1
  C  C34  1  0.48104300  0.45358700  0.35238100  1
  C  C35  1  0.48012400  0.36035300  0.40813800  1
  C  C36  1  0.49920700  0.69445900  0.51162700  1
  C  C37  1  0.48975000  0.58344100  0.47568300  1
  C  C38  1  0.48968600  0.49075500  0.53199900  1
  C  C39  1  0.49810000  0.71079800  0.59975900  1
  C  C40  1  0.49536400  0.62015600  0.65473200  1
  C  C41  1  0.47246400  0.24992000  0.37056500  1
  C  C42  1  0.48589100  0.37942800  0.49921500  1
  C  C43  1  0.49016100  0.29055100  0.55859000  1
  C  C44  1  0.49518000  0.51030200  0.62206400  1
  C  C45  1  0.50175000  0.42173500  0.67981400  1
  C  C46  1  0.49840200  0.31035200  0.64803800  1
  C  C47  1  0.13618800  0.03040500  0.74327100  1
  C  C48  1  0.12694200  0.93580900  0.68717800  1
  C  C49  1  0.10988500  0.94800600  0.59907900  1
  C  C50  1  0.10058700  0.05430600  0.56702200  1
  C  C51  1  0.10789000  0.14830000  0.62313300  1
  C  C52  1  0.12517600  0.13627600  0.71123500  1
  C  C53  1  0.52339700  0.44970200  0.77265600  1
  C  C54  1  0.61527700  0.47181600  0.80291900  1
  C  C55  1  0.63680900  0.49960600  0.88974100  1
  C  C56  1  0.56656900  0.50535600  0.94653400  1
  C  C57  1  0.47467900  0.48323000  0.91659300  1
  C  C58  1  0.45297500  0.45547900  0.82970500  1
  Cl  Cl1  1  0.09984500  0.82838000  0.52796700  1
  Cl  Cl2  1  0.75342500  0.52801200  0.92783500  1
  O  O1  1  0.57248300  0.96593800  0.02226500  1
  O  O2  1  0.47505900  0.71300400  0.09182500  1
  O  O3  1  0.65528300  0.91392900  0.13627300  1
  O  O4  1  0.47041500  0.83571300  0.20635700  1
  O  O5  1  0.35249900  0.90472400  0.05249000  1
  O  O6  1  0.38996500  0.09486100  0.01766200  1
  O  O7  1  0.51299300  0.10886100  0.17160000  1
  O  O8  1  0.41281100  0.02963600  0.27529000  1
  O  O9  1  0.45132300  0.83634800  0.70433300  1
  O  O10  1  0.56480200  0.91321400  0.61156700  1
  O  O11  1  0.61764100  0.02620900  0.82887000  1
  O  O12  1  0.57620800  0.83231800  0.85106400  1
  O  O13  1  0.31936000  0.03784500  0.74036300  1
  O  O14  1  0.50841500  0.10975800  0.67464500  1
  O  O15  1  0.39711200  0.98117100  0.85533600  1
  O  O16  1  0.48754700  0.21926600  0.79086100  1
