# generated using pymatgen
data_FeH13(C12O5)2
_symmetry_space_group_name_H-M   'P 1'
_cell_length_a   15.72640200
_cell_length_b   9.44334200
_cell_length_c   20.03731800
_cell_angle_alpha   85.78448400
_cell_angle_beta   85.06236000
_cell_angle_gamma   104.64884600
_symmetry_Int_Tables_number   1
_chemical_formula_structural   FeH13(C12O5)2
_chemical_formula_sum   'Fe2 H26 C48 O20'
_cell_volume   2854.27817367
_cell_formula_units_Z   2
loop_
 _symmetry_equiv_pos_site_id
 _symmetry_equiv_pos_as_xyz
  1  'x, y, z'
loop_
 _atom_site_type_symbol
 _atom_site_label
 _atom_site_symmetry_multiplicity
 _atom_site_fract_x
 _atom_site_fract_y
 _atom_site_fract_z
 _atom_site_occupancy
  Fe  Fe1  1  0.50146600  0.99472100  0.14495300  1
  Fe  Fe2  1  0.51410500  0.01465600  0.84913600  1
  H  H1  1  0.22446200  0.95976900  0.13328600  1
  H  H2  1  0.09473900  0.13906700  0.87491700  1
  H  H3  1  0.95505500  0.14885100  0.84206000  1
  H  H4  1  0.93167700  0.94951500  0.13090500  1
  H  H5  1  0.80082500  0.09897800  0.86334000  1
  H  H6  1  0.81118300  0.94679900  0.10049600  1
  H  H7  1  0.51900300  0.55993800  0.82569300  1
  H  H8  1  0.50790800  0.29842900  0.66002100  1
  H  H9  1  0.53023300  0.75769300  0.62637800  1
  H  H10  1  0.62742400  0.68372900  0.53071500  1
  H  H11  1  0.61275400  0.65844500  0.41109300  1
  H  H12  1  0.36961100  0.33046800  0.46389600  1
  H  H13  1  0.38872400  0.34484000  0.58291300  1
  H  H14  1  0.48275200  0.44225200  0.16810800  1
  H  H15  1  0.15339400  0.77450000  0.92966400  1
  H  H16  1  0.21513200  0.80137200  0.84737900  1
  H  H17  1  0.09887300  0.79687400  0.85549400  1
  H  H18  1  0.42071500  0.01903300  0.37723500  1
  H  H19  1  0.36610500  0.16695300  0.37473000  1
  H  H20  1  0.41140000  0.11367100  0.45018600  1
  H  H21  1  0.34609000  0.59090600  0.34994700  1
  H  H22  1  0.36267400  0.78535000  0.32924600  1
  H  H23  1  0.37211500  0.71478300  0.41416100  1
  H  H24  1  0.04817700  0.72495400  0.14149600  1
  H  H25  1  0.97333200  0.74738000  0.21145900  1
  H  H26  1  0.08484900  0.74030700  0.22412300  1
  C  C1  1  0.28932900  0.99718600  0.03438800  1
  C  C2  1  0.27988400  0.01015800  0.96612000  1
  C  C3  1  0.19675400  0.00602300  0.94603400  1
  C  C4  1  0.21609400  0.97381900  0.08050200  1
  C  C5  1  0.13524000  0.98026500  0.06047600  1
  C  C6  1  0.12589100  0.00783400  0.99319700  1
  C  C7  1  0.04528200  0.03046600  0.97513100  1
  C  C8  1  0.03834000  0.09154400  0.91120600  1
  C  C9  1  0.95850300  0.10403900  0.89267300  1
  C  C10  1  0.06378000  0.95914300  0.10832900  1
  C  C11  1  0.98294900  0.96662100  0.08995600  1
  C  C12  1  0.97177600  0.00265900  0.02328100  1
  C  C13  1  0.88952300  0.01441400  0.00380100  1
  C  C14  1  0.88395900  0.06181100  0.93778300  1
  C  C15  1  0.80403200  0.06848700  0.91593900  1
  C  C16  1  0.81221700  0.98049200  0.04819100  1
  C  C17  1  0.73215600  0.98911500  0.02677100  1
  C  C18  1  0.72742800  0.02728900  0.95935800  1
  C  C19  1  0.65515900  0.96655700  0.07742600  1
  C  C20  1  0.48261000  0.71220100  0.19994100  1
  C  C21  1  0.37497900  0.01275900  0.06050300  1
  C  C22  1  0.48175600  0.19215200  0.23446200  1
  C  C23  1  0.52793000  0.81340400  0.75559500  1
  C  C24  1  0.64244500  0.00716600  0.93150200  1
  C  C25  1  0.51593200  0.28762200  0.79450300  1
  C  C26  1  0.35492200  0.02203300  0.91430300  1
  C  C27  1  0.51587000  0.41528300  0.74795700  1
  C  C28  1  0.51294400  0.40334800  0.67977400  1
  C  C29  1  0.51830800  0.52649700  0.63610500  1
  C  C30  1  0.52714700  0.66186500  0.66044100  1
  C  C31  1  0.52438600  0.67244400  0.72879000  1
  C  C32  1  0.51859200  0.54935400  0.77239900  1
  C  C33  1  0.57156900  0.60375600  0.51611900  1
  C  C34  1  0.56316400  0.58982000  0.44875000  1
  C  C35  1  0.49242300  0.48728500  0.42950800  1
  C  C36  1  0.42886000  0.40225600  0.47807400  1
  C  C37  1  0.43892500  0.41222900  0.54532500  1
  C  C38  1  0.51044400  0.51259000  0.56457900  1
  C  C39  1  0.48464500  0.33911200  0.33230800  1
  C  C40  1  0.48320700  0.32998700  0.26371400  1
  C  C41  1  0.48278200  0.45194300  0.22149300  1
  C  C42  1  0.48128300  0.58361500  0.24685400  1
  C  C43  1  0.48024200  0.59175000  0.31580700  1
  C  C44  1  0.48442200  0.47137600  0.35798600  1
  C  C45  1  0.16174800  0.83183800  0.87827800  1
  C  C46  1  0.42077800  0.12773100  0.39441700  1
  C  C47  1  0.38461700  0.70148000  0.35995700  1
  C  C48  1  0.04308000  0.77840700  0.18860300  1
  O  O1  1  0.58975800  0.02437700  0.06523600  1
  O  O2  1  0.47789400  0.69738200  0.13564900  1
  O  O3  1  0.65660900  0.90493900  0.13801500  1
  O  O4  1  0.49396500  0.84375400  0.22077600  1
  O  O5  1  0.38185400  0.92574900  0.11291900  1
  O  O6  1  0.44113300  0.12671300  0.03823400  1
  O  O7  1  0.53615300  0.19133500  0.18114500  1
  O  O8  1  0.41661000  0.07514600  0.25394700  1
  O  O9  1  0.48579600  0.81534000  0.81491000  1
  O  O10  1  0.57564000  0.93606300  0.72183300  1
  O  O11  1  0.63291900  0.09593200  0.88069200  1
  O  O12  1  0.57874600  0.88822700  0.95167300  1
  O  O13  1  0.35138900  0.07334800  0.85226300  1
  O  O14  1  0.51665000  0.16038300  0.77221400  1
  O  O15  1  0.42544400  0.98077100  0.92895400  1
  O  O16  1  0.51587500  0.30034200  0.85929000  1
  O  O17  1  0.18351300  0.98417700  0.88055300  1
  O  O18  1  0.50203200  0.22766200  0.37231900  1
  O  O19  1  0.47493300  0.71813900  0.34310900  1
  O  O20  1  0.07233300  0.93111900  0.17505600  1
