# generated using pymatgen
data_CuH4C18I5NO4
_symmetry_space_group_name_H-M   'P 1'
_cell_length_a   14.61579700
_cell_length_b   16.04450800
_cell_length_c   17.32215600
_cell_angle_alpha   89.99754800
_cell_angle_beta   86.29537900
_cell_angle_gamma   90.00913100
_symmetry_Int_Tables_number   1
_chemical_formula_structural   CuH4C18I5NO4
_chemical_formula_sum   'Cu2 H8 C36 I10 N2 O8'
_cell_volume   4053.61407435
_cell_formula_units_Z   2
loop_
 _symmetry_equiv_pos_site_id
 _symmetry_equiv_pos_as_xyz
  1  'x, y, z'
loop_
 _atom_site_type_symbol
 _atom_site_label
 _atom_site_symmetry_multiplicity
 _atom_site_fract_x
 _atom_site_fract_y
 _atom_site_fract_z
 _atom_site_occupancy
  Cu  Cu1  1  0.40863400  0.50008100  0.49862300  1
  Cu  Cu2  1  0.59136700  0.49992000  0.50137700  1
  H  H1  1  0.60265100  0.56280300  0.74067100  1
  H  H2  1  0.39734900  0.43719700  0.25932900  1
  H  H3  1  0.60379000  0.48883300  0.99020500  1
  H  H4  1  0.39621000  0.51116700  0.00979500  1
  H  H5  1  0.40557900  0.43199700  0.11964500  1
  H  H6  1  0.59442200  0.56800300  0.88035500  1
  H  H7  1  0.08829800  0.38901500  0.43144400  1
  H  H8  1  0.91170300  0.61098500  0.56855700  1
  C  C1  1  0.49955600  0.65992500  0.50291500  1
  C  C2  1  0.50044400  0.34007300  0.49708600  1
  C  C3  1  0.48506500  0.49525700  0.64874100  1
  C  C4  1  0.51493500  0.50474300  0.35125900  1
  C  C5  1  0.47769800  0.49439600  0.73371900  1
  C  C6  1  0.52230200  0.50560400  0.26628100  1
  C  C7  1  0.54599700  0.53244200  0.77250400  1
  C  C8  1  0.45400300  0.46755800  0.22749600  1
  C  C9  1  0.54155200  0.53490200  0.85213300  1
  C  C10  1  0.45844800  0.46509800  0.14786800  1
  C  C11  1  0.46897800  0.49830000  0.89461400  1
  C  C12  1  0.53102300  0.50170100  0.10538600  1
  C  C13  1  0.40088300  0.45924000  0.85602300  1
  C  C14  1  0.59911700  0.54076000  0.14397700  1
  C  C15  1  0.40509000  0.45660400  0.77622700  1
  C  C16  1  0.59491000  0.54339600  0.22377300  1
  C  C17  1  0.46269900  0.50232800  0.97972800  1
  C  C18  1  0.53730100  0.49767200  0.02027200  1
  C  C19  1  0.41835200  0.04299700  0.49950800  1
  C  C20  1  0.58164900  0.95700400  0.50049300  1
  C  C21  1  0.50016500  0.08602300  0.49851800  1
  C  C22  1  0.49983500  0.91397500  0.50148200  1
  C  C23  1  0.58181200  0.04292900  0.49903900  1
  C  C24  1  0.41818900  0.95707200  0.50096100  1
  C  C25  1  0.50030300  0.17551900  0.49744500  1
  C  C26  1  0.49969800  0.82448200  0.50255500  1
  C  C27  1  0.49961300  0.74934100  0.50304200  1
  C  C28  1  0.50038800  0.25066000  0.49695900  1
  C  C29  1  0.04949600  0.43781500  0.46153400  1
  C  C30  1  0.95050500  0.56218500  0.53846700  1
  C  C31  1  0.09447900  0.50034400  0.49841000  1
  C  C32  1  0.90552100  0.49965600  0.50159100  1
  C  C33  1  0.04494700  0.56254600  0.53693500  1
  C  C34  1  0.95505300  0.43745400  0.46306500  1
  C  C35  1  0.19276200  0.50021100  0.49719700  1
  C  C36  1  0.80723800  0.49978900  0.50280300  1
  I  I1  1  0.69759100  0.61464900  0.27374400  1
  I  I2  1  0.30241000  0.38535200  0.72625600  1
  I  I3  1  0.29173400  0.39582200  0.91626800  1
  I  I4  1  0.70826600  0.60417900  0.08373200  1
  I  I5  1  0.29287900  0.89225000  0.50231400  1
  I  I6  1  0.70712200  0.10775000  0.49768700  1
  I  I7  1  0.29327300  0.10792500  0.49887200  1
  I  I8  1  0.70672700  0.89207500  0.50112800  1
  I  I9  1  0.88693500  0.34190800  0.40644700  1
  I  I10  1  0.11306600  0.65809200  0.59355300  1
  N  N1  1  0.72803000  0.49998800  0.50338700  1
  N  N2  1  0.27197000  0.50001100  0.49661300  1
  O  O1  1  0.42073000  0.62113200  0.50386300  1
  O  O2  1  0.57927100  0.37886900  0.49613800  1
  O  O3  1  0.57839700  0.62105900  0.50076700  1
  O  O4  1  0.42160300  0.37894100  0.49923300  1
  O  O5  1  0.41031800  0.50040700  0.61124400  1
  O  O6  1  0.58968200  0.49959300  0.38875600  1
  O  O7  1  0.56720600  0.49447200  0.61349300  1
  O  O8  1  0.43279500  0.50552800  0.38650700  1
