# generated using pymatgen
data_ZnH16C18N3O7
_symmetry_space_group_name_H-M   'P 1'
_cell_length_a   11.27000800
_cell_length_b   15.91051000
_cell_length_c   17.15894600
_cell_angle_alpha   89.11638300
_cell_angle_beta   90.74720800
_cell_angle_gamma   104.95351800
_symmetry_Int_Tables_number   1
_chemical_formula_structural   ZnH16C18N3O7
_chemical_formula_sum   'Zn2 H32 C36 N6 O14'
_cell_volume   2972.11909273
_cell_formula_units_Z   2
loop_
 _symmetry_equiv_pos_site_id
 _symmetry_equiv_pos_as_xyz
  1  'x, y, z'
loop_
 _atom_site_type_symbol
 _atom_site_label
 _atom_site_symmetry_multiplicity
 _atom_site_fract_x
 _atom_site_fract_y
 _atom_site_fract_z
 _atom_site_occupancy
  Zn  Zn1  1  0.48195600  0.39911700  0.50267000  1
  Zn  Zn2  1  0.50114100  0.59287000  0.51236700  1
  H  H1  1  0.10967900  0.57490000  0.50995500  1
  H  H2  1  0.87328500  0.41685800  0.50508800  1
  H  H3  1  0.06487300  0.37690600  0.50374200  1
  H  H4  1  0.91844300  0.61487400  0.51041300  1
  H  H5  1  0.55311100  0.40508600  0.11353600  1
  H  H6  1  0.40778100  0.57408000  0.90261000  1
  H  H7  1  0.58430900  0.36697500  0.89460000  1
  H  H8  1  0.41012000  0.62891500  0.11953500  1
  H  H9  1  0.63001400  0.28539700  0.56313000  1
  H  H10  1  0.36737600  0.70849900  0.43960200  1
  H  H11  1  0.62456100  0.13312300  0.56195600  1
  H  H12  1  0.36931700  0.86029800  0.44226000  1
  H  H13  1  0.66396700  0.90311900  0.60870800  1
  H  H14  1  0.29200500  0.08455700  0.42726300  1
  H  H15  1  0.83835000  0.83795700  0.60469700  1
  H  H16  1  0.78415000  0.78240900  0.51413100  1
  H  H17  1  0.85019400  0.72865000  0.59011100  1
  H  H18  1  0.25227200  0.18580900  0.31554700  1
  H  H19  1  0.40846600  0.24997800  0.33219100  1
  H  H20  1  0.28791300  0.30325500  0.31235700  1
  H  H21  1  0.73058800  0.49298800  0.25178300  1
  H  H22  1  0.73959800  0.39204400  0.20771900  1
  H  H23  1  0.74450100  0.40262600  0.31261900  1
  H  H24  1  0.57002400  0.66972100  0.76835700  1
  H  H25  1  0.45209300  0.70558400  0.81961300  1
  H  H26  1  0.46525000  0.71869900  0.71535000  1
  H  H27  1  0.40458000  0.28783600  0.75964300  1
  H  H28  1  0.52190800  0.24096500  0.80201800  1
  H  H29  1  0.49628100  0.23956200  0.69800600  1
  H  H30  1  0.48853000  0.75588100  0.21068200  1
  H  H31  1  0.59797000  0.70141600  0.25259700  1
  H  H32  1  0.51598300  0.75690700  0.31454300  1
  C  C1  1  0.49136500  0.48408000  0.66029800  1
  C  C2  1  0.49204700  0.50799200  0.35473900  1
  C  C3  1  0.73128000  0.52807400  0.50818100  1
  C  C4  1  0.25181700  0.46388000  0.50678000  1
  C  C5  1  0.86572700  0.54752900  0.50857100  1
  C  C6  1  0.11737800  0.44430600  0.50603900  1
  C  C7  1  0.92412600  0.48464300  0.50691200  1
  C  C8  1  0.05887200  0.50712200  0.50784100  1
  C  C9  1  0.49195800  0.47818100  0.74635000  1
  C  C10  1  0.49233900  0.51390100  0.26866100  1
  C  C11  1  0.44720500  0.53580800  0.79046500  1
  C  C12  1  0.53089300  0.45303700  0.22492500  1
  C  C13  1  0.44816200  0.53031000  0.87098600  1
  C  C14  1  0.52373000  0.45474600  0.14449200  1
  C  C15  1  0.49937400  0.47028400  0.90867800  1
  C  C16  1  0.47981100  0.51812100  0.10634200  1
  C  C17  1  0.54402000  0.41358200  0.86507300  1
  C  C18  1  0.44472400  0.57968700  0.14944100  1
  C  C19  1  0.53776000  0.41537300  0.78466200  1
  C  C20  1  0.45272100  0.57923500  0.22980800  1
  C  C21  1  0.43380500  0.75173800  0.47639900  1
  C  C22  1  0.55594000  0.24112500  0.53242600  1
  C  C23  1  0.43509100  0.83860600  0.47849300  1
  C  C24  1  0.55171800  0.15371400  0.53197300  1
  C  C25  1  0.51921400  0.89408400  0.52615000  1
  C  C26  1  0.45596900  0.09635700  0.49381500  1
  C  C27  1  0.59938700  0.86060700  0.57030000  1
  C  C28  1  0.36771300  0.12865600  0.45686200  1
  C  C29  1  0.59767300  0.77369100  0.56546200  1
  C  C30  1  0.37572900  0.21675000  0.45736300  1
  C  C31  1  0.79283500  0.77453000  0.57813600  1
  C  C32  1  0.31006400  0.24634700  0.34138400  1
  C  C33  1  0.70392200  0.42107400  0.25779100  1
  C  C34  1  0.47424300  0.67589200  0.76543400  1
  C  C35  1  0.49741500  0.27776700  0.75155400  1
  C  C36  1  0.50896500  0.71745800  0.26123700  1
  N  N1  1  0.50754200  0.46514800  0.99094300  1
  N  N2  1  0.47080100  0.52256200  0.02409700  1
  N  N3  1  0.51433800  0.72038300  0.51913200  1
  N  N4  1  0.46870900  0.27159100  0.49586900  1
  N  N5  1  0.52686300  0.98407500  0.53038500  1
  N  N6  1  0.44653000  0.00604200  0.49065400  1
  O  O1  1  0.48477400  0.41348500  0.61988700  1
  O  O2  1  0.49856800  0.57852700  0.39515900  1
  O  O3  1  0.49850900  0.56013500  0.62704400  1
  O  O4  1  0.48470200  0.43191900  0.38801600  1
  O  O5  1  0.66693600  0.44678200  0.50461100  1
  O  O6  1  0.31615400  0.54520000  0.51034700  1
  O  O7  1  0.68116100  0.59367300  0.51142300  1
  O  O8  1  0.30192300  0.39829600  0.50361200  1
  O  O9  1  0.67686600  0.74118500  0.61070400  1
  O  O10  1  0.28636900  0.24751400  0.42099800  1
  O  O11  1  0.57616100  0.39005000  0.26048200  1
  O  O12  1  0.39256900  0.59416400  0.75512800  1
  O  O13  1  0.58413600  0.35795400  0.74383500  1
  O  O14  1  0.41485100  0.64116000  0.26998700  1
