# generated using pymatgen
data_V4H34C57(SO4)5
_symmetry_space_group_name_H-M   'P 1'
_cell_length_a   6.33734100
_cell_length_b   16.46234900
_cell_length_c   18.81209200
_cell_angle_alpha   109.29647000
_cell_angle_beta   89.31401100
_cell_angle_gamma   90.80173600
_symmetry_Int_Tables_number   1
_chemical_formula_structural   V4H34C57(SO4)5
_chemical_formula_sum   'V4 H34 C57 S5 O20'
_cell_volume   1852.12403987
_cell_formula_units_Z   1
loop_
 _symmetry_equiv_pos_site_id
 _symmetry_equiv_pos_as_xyz
  1  'x, y, z'
loop_
 _atom_site_type_symbol
 _atom_site_label
 _atom_site_symmetry_multiplicity
 _atom_site_fract_x
 _atom_site_fract_y
 _atom_site_fract_z
 _atom_site_occupancy
  V  V1  1  0.90491800  0.50089000  0.49486400  1
  V  V2  1  0.40564400  0.52130900  0.49794300  1
  V  V3  1  0.31464500  0.02057100  0.99795400  1
  V  V4  1  0.81392800  0.99998400  0.99424100  1
  H  H1  1  0.44477200  0.68606100  0.71173000  1
  H  H2  1  0.77397600  0.83886100  0.77812800  1
  H  H3  1  0.80168500  0.71417000  0.66172300  1
  H  H4  1  0.85224400  0.56473900  0.29355800  1
  H  H5  1  0.38069700  0.70737300  0.41130500  1
  H  H6  1  0.51744100  0.91536600  0.29620500  1
  H  H7  1  0.36486800  0.95192900  0.19568300  1
  H  H8  1  0.83701800  0.80937700  0.07739900  1
  H  H9  1  0.69280500  0.69273500  0.11252700  1
  H  H10  1  0.86988300  0.20538000  0.91428000  1
  H  H11  1  0.32442600  0.07620900  0.79803300  1
  H  H12  1  0.18066200  0.11623000  0.69809900  1
  H  H13  1  0.18925600  0.20800000  0.61807700  1
  H  H14  1  0.35160600  0.32085000  0.58224600  1
  H  H15  1  0.89693600  0.45041400  0.69829800  1
  H  H16  1  0.04074500  0.41042000  0.79852600  1
  H  H17  1  0.92568700  0.29572900  0.32712400  1
  H  H18  1  0.92320900  0.17015600  0.21170400  1
  H  H19  1  0.28842200  0.34506000  0.28634600  1
  H  H20  1  0.79217200  0.42985700  0.13167200  1
  H  H21  1  0.95571400  0.51739900  0.12440200  1
  H  H22  1  0.73326000  0.48061600  0.06192500  1
  H  H23  1  0.63008900  0.96824800  0.82193700  1
  H  H24  1  0.35244000  0.94660200  0.80096800  1
  H  H25  1  0.54695200  0.88792100  0.73440400  1
  H  H26  1  0.93125300  0.37685600  0.02728300  1
  H  H27  1  0.78587900  0.39941000  0.95409800  1
  H  H28  1  0.01614900  0.46391800  0.99380100  1
  H  H29  1  0.07926300  0.05871900  0.17486700  1
  H  H30  1  0.17426900  0.13542800  0.26136000  1
  H  H31  1  0.36103900  0.07842800  0.18935900  1
  H  H32  1  0.43922200  0.89120100  0.52772000  1
  H  H33  1  0.26636400  0.89537600  0.45354400  1
  H  H34  1  0.48263800  0.97200300  0.48245600  1
  C  C1  1  0.64129200  0.44382100  0.58638300  1
  C  C2  1  0.60861000  0.40455900  0.38078800  1
  C  C3  1  0.11418200  0.57804500  0.40658300  1
  C  C4  1  0.14465000  0.61760300  0.61223200  1
  C  C5  1  0.29528400  0.71823700  0.72727500  1
  C  C6  1  0.27981700  0.78949400  0.79105800  1
  C  C7  1  0.09154700  0.83189000  0.80984200  1
  C  C8  1  0.92023500  0.80491800  0.76334000  1
  C  C9  1  0.93612700  0.73495500  0.69838200  1
  C  C10  1  0.12327200  0.69093800  0.68095100  1
  C  C11  1  0.96813100  0.61569700  0.30137200  1
  C  C12  1  0.11743000  0.63019900  0.35711900  1
  C  C13  1  0.26429000  0.69561500  0.36740800  1
  C  C14  1  0.26099800  0.74669700  0.32219800  1
  C  C15  1  0.11091200  0.73243300  0.26674000  1
  C  C16  1  0.96475000  0.66680800  0.25623400  1
  C  C17  1  0.40701800  0.81242900  0.33276300  1
  C  C18  1  0.40287500  0.86386400  0.28794800  1
  C  C19  1  0.25267200  0.84961500  0.23258500  1
  C  C20  1  0.10664000  0.78393700  0.22193500  1
  C  C21  1  0.95664500  0.76971800  0.16643000  1
  C  C22  1  0.81051200  0.70399000  0.15594500  1
  C  C23  1  0.81439400  0.65264700  0.20090400  1
  C  C24  1  0.24924300  0.90083700  0.18763200  1
  C  C25  1  0.10027800  0.88650200  0.13184200  1
  C  C26  1  0.95343900  0.82096600  0.12127200  1
  C  C27  1  0.75326100  0.19664200  0.87083700  1
  C  C28  1  0.59671700  0.13486800  0.86081000  1
  C  C29  1  0.44756300  0.12436700  0.80558800  1
  C  C30  1  0.45301700  0.17558400  0.76066600  1
  C  C31  1  0.60824600  0.23764000  0.77080200  1
  C  C32  1  0.75880700  0.24803700  0.82568700  1
  C  C33  1  0.30242300  0.16497800  0.70590500  1
  C  C34  1  0.30706900  0.21648300  0.66109100  1
  C  C35  1  0.46221600  0.27872500  0.67111600  1
  C  C36  1  0.61262100  0.28929200  0.72606200  1
  C  C37  1  0.76794700  0.35131500  0.73608700  1
  C  C38  1  0.91870200  0.36179900  0.79080500  1
  C  C39  1  0.91414500  0.31021700  0.83560000  1
  C  C40  1  0.46793400  0.32986900  0.62582600  1
  C  C41  1  0.62439300  0.39159000  0.63563800  1
  C  C42  1  0.77356200  0.40238800  0.69095300  1
  C  C43  1  0.78646000  0.27967500  0.29238000  1
  C  C44  1  0.78594100  0.20919800  0.22762500  1
  C  C45  1  0.60954400  0.18821800  0.18316700  1
  C  C46  1  0.43058300  0.23640200  0.20476100  1
  C  C47  1  0.43099200  0.30831200  0.26855800  1
  C  C48  1  0.61009300  0.33027600  0.31211800  1
  C  C49  1  0.61033000  0.11422600  0.11378400  1
  C  C50  1  0.57898600  0.08151100  0.90907400  1
  C  C51  1  0.07360300  0.90582100  0.87859900  1
  C  C52  1  0.10458900  0.93972600  0.08328000  1
  C  C53  1  0.79215600  0.49141100  0.11963000  1
  C  C54  1  0.51115900  0.91757300  0.79537700  1
  C  C55  1  0.94531700  0.39840200  0.97744200  1
  C  C56  1  0.20267000  0.10807600  0.19976300  1
  C  C57  1  0.43140300  0.90476100  0.47386000  1
  S  S1  1  0.62437800  0.56786500  0.18756400  1
  S  S2  1  0.51014700  0.83662100  0.84180200  1
  S  S3  1  0.10944100  0.32395900  0.90640200  1
  S  S4  1  0.19069600  0.19379700  0.15878200  1
  S  S5  1  0.60131100  0.83101000  0.40454400  1
  O  O1  1  0.44426900  0.45557700  0.39047500  1
  O  O2  1  0.81357700  0.48894000  0.59161400  1
  O  O3  1  0.02786600  0.61329700  0.55411700  1
  O  O4  1  0.72644000  0.40153000  0.43801700  1
  O  O5  1  0.94827200  0.52691400  0.40088500  1
  O  O6  1  0.52217600  0.42604900  0.52659000  1
  O  O7  1  0.63307000  0.57596000  0.50436000  1
  O  O8  1  0.23279500  0.60379200  0.46806200  1
  O  O9  1  0.31736000  0.57365000  0.60411600  1
  O  O10  1  0.12873400  0.44573300  0.48570500  1
  O  O11  1  0.69755800  0.09747500  0.96884700  1
  O  O12  1  0.49264300  0.11890100  0.05709900  1
  O  O13  1  0.27137600  0.99052700  0.08997700  1
  O  O14  1  0.40629300  0.03649000  0.90277800  1
  O  O15  1  0.19213500  0.90916500  0.93609500  1
  O  O16  1  0.77466000  0.06286700  0.10268500  1
  O  O17  1  0.58669300  0.94521100  0.98652600  1
  O  O18  1  0.90254200  0.95097300  0.88777100  1
  O  O19  1  0.98661600  0.91561700  0.02162400  1
  O  O20  1  0.09071800  0.07590300  0.00858800  1
