# Generated by REPEAT Assigner based on pymatgen
data_DB0-m29_o88_o1470_f0_pts.sym.134
_audit_creation_date              2022-05-24
_audit_creation_method            REPEAT_Assigner
_cell_length_a                    15.519811
_cell_length_b                    11.815381
_cell_length_c                    13.566990
_cell_angle_alpha                 88.614652
_cell_angle_beta                  101.914003
_cell_angle_gamma                 106.418135
_cell_volume                      2333.416860
_symmetry_space_group_name_H-M    P1
_symmetry_Int_Tables_number       1
loop_
    _symmetry_equiv_pos_site_id
    _symmetry_equiv_pos_as_xyz
    1  x,y,z
loop_
    _atom_site_type_symbol
    _atom_site_label
    _atom_site_fract_x
    _atom_site_fract_y
    _atom_site_fract_z
    _atom_type_partial_charge
    C   C1   0.803309  0.045763  0.156626  -0.025443
    H   H1   0.795196  0.044409  0.233924  0.136759
    C   C2   0.888155  0.054943  0.136854  -0.176658
    H   H2   0.946049  0.061579  0.198639  0.131334
    C   C3   0.898366  0.046308  0.039324  0.194490
    C   C4   0.824083  0.040711  0.959485  -0.343606
    C   C5   0.738073  0.037501  0.979174  0.127265
    C   C6   0.727781  0.032298  0.079247  -0.104557
    C   C7   0.989441  0.044207  0.024548  -0.132519
    C   C8   0.999978  0.958368  0.969676  -0.245490
    H   H3   0.049239  0.112016  0.062891  0.159618
    H   H4   0.939806  0.889446  0.934036  0.138067
    C   C9   0.097262  0.938371  0.852416  0.017852
    C   C10  0.182374  0.955039  0.829676  -0.326542
    C   C11  0.261591  0.988937  0.904419  0.029225
    C   C12  0.254269  0.999906  0.004612  -0.000631
    C   C13  0.168352  0.989970  0.024987  -0.231264
    H   H5   0.161176  0.001289  0.101341  0.158209
    C   C14  0.090237  0.961877  0.949120  0.239809
    O   O1   0.522873  0.183950  0.731991  -0.605063
    C   C15  0.457932  0.191070  0.654829  0.585547
    O   O2   0.409354  0.123433  0.899145  -0.487333
    O   O3   0.384755  0.100129  0.632437  -0.475879
    O   O4   0.368910  0.946607  0.814671  -0.490598
    C   C16  0.350684  0.019038  0.874068  0.566555
    Fe  Fe1  0.488694  0.019847  0.777434  1.429032
    O   O5   0.575809  0.013870  0.907860  -0.484367
    O   O6   0.677437  0.095689  0.811521  -0.455950
    C   C17  0.661131  0.047188  0.896292  0.430860
    O   O7   0.491364  0.930170  0.654936  -0.552286
    O   O8   0.435464  0.765669  0.737908  -0.592420
    C   C18  0.467285  0.814595  0.660023  0.609367
    O   O9   0.505809  0.110614  0.327913  -0.566500
    O   O10  0.470570  0.248455  0.219278  -0.533786
    C   C19  0.491001  0.214139  0.311729  0.728442
    O   O11  0.414679  0.014415  0.077659  -0.511134
    O   O12  0.319043  0.012682  0.183283  -0.536063
    C   C20  0.332983  0.013522  0.091083  0.615321
    O   O13  0.613343  0.933063  0.353541  -0.544529
    O   O14  0.622884  0.083906  0.165681  -0.615399
    C   C21  0.638518  0.008080  0.107580  0.763601
    O   O15  0.471393  0.853160  0.258971  -0.658643
    C   C22  0.538528  0.844120  0.332813  0.805839
    O   O16  0.579163  0.903359  0.086998  -0.590264
    Fe  Fe2  0.504627  0.014491  0.207420  1.435278
    C   C23  0.490966  0.807147  0.490395  -0.106142
    C   C24  0.479752  0.745905  0.576715  -0.023523
    C   C25  0.488736  0.630752  0.581561  0.111402
    C   C26  0.470870  0.556675  0.670888  -0.225981
    C   C27  0.514392  0.455861  0.682015  0.018520
    C   C28  0.516946  0.762826  0.412916  -0.147582
    C   C29  0.530355  0.651893  0.418479  0.227984
    C   C30  0.513604  0.584533  0.501076  -0.147493
    C   C31  0.515114  0.461176  0.498916  0.223995
    C   C32  0.502370  0.394728  0.583230  -0.126971
    C   C33  0.479592  0.272602  0.574300  0.027153
    C   C34  0.577413  0.614594  0.345286  -0.316575
    C   C35  0.547422  0.481764  0.323337  -0.047774
    C   C36  0.518717  0.408075  0.409567  -0.032823
    C   C37  0.492915  0.284628  0.400897  -0.115387
    C   C38  0.471796  0.220203  0.482812  -0.067367
    H   H6   0.502806  0.611053  0.741087  0.094554
    H   H7   0.483120  0.895076  0.482859  0.168769
    H   H8   0.451420  0.124956  0.477114  0.154246
    H   H9   0.479750  0.393648  0.733180  0.073806
    H   H10  0.559283  0.653376  0.271600  0.108056
    H   H11  0.487015  0.462842  0.259823  0.108197
    C   C39  0.614811  0.501677  0.729100  0.642578
    O   O17  0.666395  0.571047  0.684393  -0.414473
    N   N1   0.651249  0.465530  0.826404  -0.781346
    H   H12  0.699172  0.421929  0.817491  0.361423
    H   H13  0.599037  0.405935  0.854341  0.335747
    C   C40  0.679254  0.659087  0.385404  0.651002
    O   O18  0.712345  0.631402  0.468783  -0.443968
    N   N2   0.737627  0.739264  0.329924  -0.656772
    H   H14  0.788074  0.700970  0.319152  0.316597
    H   H15  0.699757  0.750248  0.259164  0.206142
    C   C41  0.625231  0.450643  0.291087  0.656936
    O   O19  0.675987  0.406322  0.350171  -0.477380
    N   N3   0.638532  0.469087  0.190139  -0.633887
    H   H16  0.704395  0.525667  0.193628  0.264876
    H   H17  0.591296  0.511165  0.152016  0.265571
    C   C42  0.369363  0.508829  0.663066  0.805820
    O   O20  0.317173  0.508705  0.582426  -0.520361
    N   N4   0.332751  0.466453  0.749711  -0.777049
    H   H18  0.290066  0.517213  0.760634  0.366010
    H   H19  0.386790  0.481128  0.812519  0.296135
    C   C43  0.837256  0.037048  0.855337  0.893938
    O   O21  0.899474  0.111475  0.828515  -0.496790
    N   N5   0.778505  0.944870  0.785824  -0.690347
    H   H20  0.803021  0.954677  0.719104  0.324165
    H   H21  0.784016  0.864550  0.816072  0.246130
    C   C44  0.015416  0.904586  0.771107  0.607838
    O   O22  0.995947  0.977983  0.712713  -0.425088
    N   N6   0.961485  0.784150  0.756603  -0.973227
    H   H22  0.893984  0.781127  0.758293  0.387474
    H   H23  0.962252  0.756052  0.684505  0.378041
    C   C45  0.187531  0.944129  0.723852  0.910063
    O   O23  0.197407  0.030981  0.672289  -0.506776
    N   N7   0.178904  0.831679  0.680307  -0.668743
    H   H24  0.120841  0.811807  0.621885  0.295599
    H   H25  0.167441  0.769212  0.735449  0.279512
