# generated using pymatgen
data_CoH9C20(NO2)3
_symmetry_space_group_name_H-M   'P 1'
_cell_length_a   6.62655000
_cell_length_b   13.47395100
_cell_length_c   22.10411900
_cell_angle_alpha   79.72982500
_cell_angle_beta   90.08441100
_cell_angle_gamma   100.51842700
_symmetry_Int_Tables_number   1
_chemical_formula_structural   CoH9C20(NO2)3
_chemical_formula_sum   'Co2 H18 C40 N6 O12'
_cell_volume   1908.34593762
_cell_formula_units_Z   2
loop_
 _symmetry_equiv_pos_site_id
 _symmetry_equiv_pos_as_xyz
  1  'x, y, z'
loop_
 _atom_site_type_symbol
 _atom_site_label
 _atom_site_symmetry_multiplicity
 _atom_site_fract_x
 _atom_site_fract_y
 _atom_site_fract_z
 _atom_site_occupancy
  Co  Co1  1  0.01378200  0.99187100  0.06076100  1
  Co  Co2  1  0.98621700  0.00812900  0.93923900  1
  H  H1  1  0.16895100  0.24761600  0.41162900  1
  H  H2  1  0.83104800  0.75238400  0.58837100  1
  H  H3  1  0.14692100  0.25701900  0.52163200  1
  H  H4  1  0.85307900  0.74298100  0.47836800  1
  H  H5  1  0.72463900  0.88451200  0.74069700  1
  H  H6  1  0.27536100  0.11548800  0.25930300  1
  H  H7  1  0.73431400  0.88629500  0.85097100  1
  H  H8  1  0.26568600  0.11370500  0.14902900  1
  H  H9  1  0.19563100  0.15059400  0.82113900  1
  H  H10  1  0.80436800  0.84940600  0.17886100  1
  H  H11  1  0.19715100  0.15153000  0.71031600  1
  H  H12  1  0.80284900  0.84847000  0.28968400  1
  H  H13  1  0.27850700  0.34281000  0.95224700  1
  H  H14  1  0.72149200  0.65719000  0.04775300  1
  H  H15  1  0.52998700  0.49982600  0.95624700  1
  H  H16  1  0.47001200  0.50017400  0.04375300  1
  H  H17  1  0.98643100  0.31987400  0.01050700  1
  H  H18  1  0.01356900  0.68012600  0.98949300  1
  C  C1  1  0.23119100  0.85808300  0.00230800  1
  C  C2  1  0.76880800  0.14191700  0.99769200  1
  C  C3  1  0.33191200  0.14918300  0.98426900  1
  C  C4  1  0.66808800  0.85081700  0.01573200  1
  C  C5  1  0.96833300  0.90046100  0.38848900  1
  C  C6  1  0.03166600  0.09953900  0.61151100  1
  C  C7  1  0.08072100  0.07861900  0.36504400  1
  C  C8  1  0.91927900  0.92138100  0.63495600  1
  C  C9  1  0.06959800  0.08486500  0.42651800  1
  C  C10  1  0.93040200  0.91513500  0.57348200  1
  C  C11  1  0.00639400  0.99735200  0.46928700  1
  C  C12  1  0.99360600  0.00264800  0.53071300  1
  C  C13  1  0.95564400  0.90457000  0.45028500  1
  C  C14  1  0.04435500  0.09543000  0.54971500  1
  C  C15  1  0.11973100  0.17848400  0.44522400  1
  C  C16  1  0.88026800  0.82151600  0.55477600  1
  C  C17  1  0.10727600  0.18377200  0.50690600  1
  C  C18  1  0.89272400  0.81622800  0.49309400  1
  C  C19  1  0.83058500  0.94379700  0.75732000  1
  C  C20  1  0.16941500  0.05620300  0.24268000  1
  C  C21  1  0.83371900  0.94563800  0.81947000  1
  C  C22  1  0.16628000  0.05436200  0.18053000  1
  C  C23  1  0.08966300  0.09310500  0.80285600  1
  C  C24  1  0.91033700  0.90689400  0.19714400  1
  C  C25  1  0.08969000  0.09387900  0.74030300  1
  C  C26  1  0.91031000  0.90612100  0.25969700  1
  C  C27  1  0.96147500  0.01764500  0.71720900  1
  C  C28  1  0.03852400  0.98235500  0.28279100  1
  C  C29  1  0.43510700  0.33749200  0.96394500  1
  C  C30  1  0.56489300  0.66250800  0.03605500  1
  C  C31  1  0.57581200  0.42585700  0.96723300  1
  C  C32  1  0.42418700  0.57414300  0.03276700  1
  C  C33  1  0.77298600  0.41975600  0.98580900  1
  C  C34  1  0.22701400  0.58024400  0.01419100  1
  C  C35  1  0.83005700  0.32506200  0.99845500  1
  C  C36  1  0.16994200  0.67493800  0.00154500  1
  C  C37  1  0.69103700  0.23690700  0.99369100  1
  C  C38  1  0.30896300  0.76309300  0.00630900  1
  C  C39  1  0.49142100  0.24229100  0.97748000  1
  C  C40  1  0.50857900  0.75770900  0.02252000  1
  N  N1  1  0.03054700  0.98702300  0.34675600  1
  N  N2  1  0.96945200  0.01297700  0.65324400  1
  N  N3  1  0.96378300  0.01896500  0.84137700  1
  N  N4  1  0.03621600  0.98103500  0.15862300  1
  N  N5  1  0.91541100  0.50981300  0.99097200  1
  N  N6  1  0.08458900  0.49018700  0.00902800  1
  O  O1  1  0.18907800  0.88710600  0.05366700  1
  O  O2  1  0.81092100  0.11289400  0.94633300  1
  O  O3  1  0.83954100  0.10140400  0.04991400  1
  O  O4  1  0.16045900  0.89859600  0.95008600  1
  O  O5  1  0.26411200  0.10377900  0.03993000  1
  O  O6  1  0.73588800  0.89622100  0.96007000  1
  O  O7  1  0.76209200  0.87932900  0.06398200  1
  O  O8  1  0.23790800  0.12067100  0.93601800  1
  O  O9  1  0.92440200  0.81445200  0.37116400  1
  O  O10  1  0.07559800  0.18554800  0.62883600  1
  O  O11  1  0.13298700  0.16011100  0.32552200  1
  O  O12  1  0.86701300  0.83988900  0.67447800  1
