data_DB0-m3_o19_o110_f0_fsc_repeat
_audit_creation_date              2024-02-20
_audit_creation_method            'Materials Studio'
_symmetry_space_group_name_H-M    'P1'
_symmetry_Int_Tables_number       1
_symmetry_cell_setting            triclinic
loop_
_symmetry_equiv_pos_as_xyz
  x,y,z
_cell_length_a                    10.2686
_cell_length_b                    16.5507
_cell_length_c                    16.7394
_cell_angle_alpha                 90.0000
_cell_angle_beta                  98.8414
_cell_angle_gamma                 90.0000
loop_
_atom_site_label
_atom_site_type_symbol
_atom_site_fract_x
_atom_site_fract_y
_atom_site_fract_z
_atom_site_U_iso_or_equiv
_atom_site_adp_type
_atom_site_occupancy
O1     O     0.90296   0.08362   0.07906   0.00000  Uiso   1.00
O2     O     0.09704   0.91639   0.92094   0.00000  Uiso   1.00
O3     O     0.09704   0.08362   0.92094   0.00000  Uiso   1.00
O4     O     0.90296   0.91639   0.07906   0.00000  Uiso   1.00
O5     O     0.12698   0.08482   0.09252   0.00000  Uiso   1.00
O6     O     0.87302   0.91518   0.90748   0.00000  Uiso   1.00
O7     O     0.87302   0.08482   0.90748   0.00000  Uiso   1.00
O8     O     0.12698   0.91518   0.09252   0.00000  Uiso   1.00
C1     C     0.01707   0.11194   0.11402   0.00000  Uiso   1.00
C2     C     0.98294   0.88806   0.88599   0.00000  Uiso   1.00
C3     C     0.98294   0.11194   0.88599   0.00000  Uiso   1.00
C4     C     0.01707   0.88806   0.11402   0.00000  Uiso   1.00
Zn1    Zn    0.14661   0.00000   0.00808   0.00000  Uiso   1.00
Zn2    Zn    0.85340   0.00000   0.99193   0.00000  Uiso   1.00
N1     N     0.32091   0.00000   0.01050   0.00000  Uiso   1.00
N2     N     0.67909   0.00000   0.98950   0.00000  Uiso   1.00
C5     C     0.43209   0.00000   0.00434   0.00000  Uiso   1.00
C6     C     0.56791   0.00000   0.99566   0.00000  Uiso   1.00
H1     H     0.12215   0.42064   0.22798   0.00000  Uiso   1.00
H2     H     0.87785   0.57936   0.77202   0.00000  Uiso   1.00
H3     H     0.87785   0.42064   0.77202   0.00000  Uiso   1.00
H4     H     0.12215   0.57936   0.22798   0.00000  Uiso   1.00
C7     C     0.00316   0.75646   0.45927   0.00000  Uiso   1.00
C8     C     0.99684   0.24354   0.54073   0.00000  Uiso   1.00
C9     C     0.99684   0.75646   0.54073   0.00000  Uiso   1.00
C10    C     0.00316   0.24354   0.45927   0.00000  Uiso   1.00
C11    C     0.99407   0.67638   0.56380   0.00000  Uiso   1.00
C12    C     0.00593   0.32363   0.43620   0.00000  Uiso   1.00
C13    C     0.00593   0.67638   0.43620   0.00000  Uiso   1.00
C14    C     0.99407   0.32363   0.56380   0.00000  Uiso   1.00
N3     N     0.00000   0.62760   0.50000   0.00000  Uiso   1.00
N4     N     0.00000   0.37240   0.50000   0.00000  Uiso   1.00
C15    C     0.98282   0.65124   0.63852   0.00000  Uiso   1.00
C16    C     0.01718   0.34876   0.36148   0.00000  Uiso   1.00
C17    C     0.01718   0.65124   0.36148   0.00000  Uiso   1.00
C18    C     0.98282   0.34876   0.63852   0.00000  Uiso   1.00
C19    C     0.96679   0.56558   0.66036   0.00000  Uiso   1.00
C20    C     0.03321   0.43442   0.33964   0.00000  Uiso   1.00
C21    C     0.03321   0.56558   0.33964   0.00000  Uiso   1.00
C22    C     0.96679   0.43442   0.66036   0.00000  Uiso   1.00
C23    C     0.91404   0.54155   0.72761   0.00000  Uiso   1.00
C24    C     0.08597   0.45845   0.27239   0.00000  Uiso   1.00
C25    C     0.08597   0.54155   0.27239   0.00000  Uiso   1.00
C26    C     0.91404   0.45845   0.72761   0.00000  Uiso   1.00
N5     N     0.00110   0.50000   0.62030   0.00000  Uiso   1.00
N6     N     0.99890   0.50000   0.37970   0.00000  Uiso   1.00
H5     H     0.00713   0.80989   0.42257   0.00000  Uiso   1.00
H6     H     0.99287   0.19011   0.57743   0.00000  Uiso   1.00
H7     H     0.99287   0.80989   0.57743   0.00000  Uiso   1.00
H8     H     0.00713   0.19011   0.42257   0.00000  Uiso   1.00
H9     H     0.05304   0.50000   0.57172   0.00000  Uiso   1.00
H10    H     0.94696   0.50000   0.42828   0.00000  Uiso   1.00
C27    C     0.90230   0.26144   0.25492   0.00000  Uiso   1.00
C28    C     0.09771   0.73856   0.74508   0.00000  Uiso   1.00
C29    C     0.09771   0.26144   0.74508   0.00000  Uiso   1.00
C30    C     0.90230   0.73856   0.25492   0.00000  Uiso   1.00
H11    H     0.81004   0.28546   0.26812   0.00000  Uiso   1.00
H12    H     0.18996   0.71454   0.73188   0.00000  Uiso   1.00
H13    H     0.18996   0.28546   0.73188   0.00000  Uiso   1.00
H14    H     0.81004   0.71454   0.26812   0.00000  Uiso   1.00
C31    C     0.90205   0.20430   0.19511   0.00000  Uiso   1.00
C32    C     0.09795   0.79571   0.80489   0.00000  Uiso   1.00
C33    C     0.09795   0.20430   0.80489   0.00000  Uiso   1.00
C34    C     0.90205   0.79571   0.19511   0.00000  Uiso   1.00
C35    C     0.01953   0.17333   0.17748   0.00000  Uiso   1.00
C36    C     0.98047   0.82667   0.82253   0.00000  Uiso   1.00
C37    C     0.98047   0.17333   0.82253   0.00000  Uiso   1.00
C38    C     0.01953   0.82667   0.17748   0.00000  Uiso   1.00
C39    C     0.13735   0.20011   0.22067   0.00000  Uiso   1.00
C40    C     0.86265   0.79989   0.77933   0.00000  Uiso   1.00
C41    C     0.86265   0.20011   0.77933   0.00000  Uiso   1.00
C42    C     0.13735   0.79989   0.22067   0.00000  Uiso   1.00
H15    H     0.23027   0.17653   0.20816   0.00000  Uiso   1.00
H16    H     0.76974   0.82347   0.79184   0.00000  Uiso   1.00
H17    H     0.76974   0.17653   0.79184   0.00000  Uiso   1.00
H18    H     0.23027   0.82347   0.20816   0.00000  Uiso   1.00
C43    C     0.13717   0.25709   0.28102   0.00000  Uiso   1.00
C44    C     0.86283   0.74291   0.71898   0.00000  Uiso   1.00
C45    C     0.86283   0.25709   0.71898   0.00000  Uiso   1.00
C46    C     0.13717   0.74291   0.28102   0.00000  Uiso   1.00
H19    H     0.22941   0.27765   0.31485   0.00000  Uiso   1.00
H20    H     0.77059   0.72235   0.68515   0.00000  Uiso   1.00
H21    H     0.77059   0.27765   0.68515   0.00000  Uiso   1.00
H22    H     0.22941   0.72235   0.31485   0.00000  Uiso   1.00
C47    C     0.01951   0.28799   0.29800   0.00000  Uiso   1.00
C48    C     0.98049   0.71201   0.70200   0.00000  Uiso   1.00
C49    C     0.98049   0.28799   0.70200   0.00000  Uiso   1.00
C50    C     0.01951   0.71201   0.29800   0.00000  Uiso   1.00
H23    H     0.80856   0.81545   0.16235   0.00000  Uiso   1.00
H24    H     0.19144   0.18455   0.83765   0.00000  Uiso   1.00
H25    H     0.19144   0.81545   0.83765   0.00000  Uiso   1.00
H26    H     0.80856   0.18455   0.16235   0.00000  Uiso   1.00
