# Generated by REPEAT Assigner based on pymatgen
data_DB0-m29_o92_o46_f0_pts.sym.74
_audit_creation_date              2022-05-24
_audit_creation_method            REPEAT_Assigner
_cell_length_a                    10.180223
_cell_length_b                    21.389466
_cell_length_c                    13.124810
_cell_angle_alpha                 111.463840
_cell_angle_beta                  83.000550
_cell_angle_gamma                 93.852689
_cell_volume                      2639.108347
_symmetry_space_group_name_H-M    P1
_symmetry_Int_Tables_number       1
loop_
    _symmetry_equiv_pos_site_id
    _symmetry_equiv_pos_as_xyz
    1  x,y,z
loop_
    _atom_site_type_symbol
    _atom_site_label
    _atom_site_fract_x
    _atom_site_fract_y
    _atom_site_fract_z
    _atom_type_partial_charge
    C   C1   0.831300  0.025466  0.073028  -0.072679
    C   C2   0.766324  0.023923  0.985652  -0.078996
    H   H1   0.661353  0.032461  0.997120  0.126123
    C   C3   0.826192  0.999350  0.879838  0.068167
    C   C4   0.955284  0.979399  0.860827  -0.171725
    H   H2   0.995817  0.954819  0.776553  0.147211
    C   C5   0.029179  0.989762  0.948313  0.063397
    C   C6   0.967351  0.013247  0.056128  0.140755
    C   C7   0.044663  0.026563  0.143438  -0.209601
    C   C8   0.173036  0.004578  0.122534  0.115382
    H   H3   0.333163  0.965250  0.003770  0.150154
    C   C9   0.229260  0.976356  0.016163  -0.159319
    C   C10  0.163356  0.974770  0.929382  0.038810
    O   O1   0.625209  0.048778  0.187790  -0.567138
    C   C11  0.745039  0.025314  0.171690  0.576540
    O   O2   0.572062  0.883891  0.164436  -0.494144
    O   O3   0.773558  0.987739  0.225248  -0.416203
    O   O4   0.542492  0.949472  0.345008  -0.527990
    C   C12  0.577282  0.891970  0.267940  0.592100
    Fe  Fe1  0.499041  0.019211  0.289320  1.436035
    O   O5   0.343655  0.975632  0.206748  -0.585513
    O   O6   0.282171  0.084309  0.269908  -0.516931
    C   C13  0.260798  0.021047  0.209803  0.635220
    O   O7   0.476435  0.105163  0.419858  -0.586377
    O   O8   0.333527  0.038575  0.484048  -0.444144
    C   C14  0.396915  0.096373  0.500338  0.709366
    O   O9   0.524790  0.891375  0.584547  -0.612763
    O   O10  0.658409  0.959398  0.516500  -0.419019
    C   C15  0.599363  0.900761  0.502187  0.720275
    O   O11  0.644838  0.023671  0.801593  -0.580835
    O   O12  0.746731  0.923788  0.712762  -0.521836
    C   C16  0.743014  0.983815  0.789789  0.640935
    O   O13  0.216463  0.001153  0.764813  -0.441202
    O   O14  0.450451  0.045921  0.656199  -0.547897
    C   C17  0.413311  0.102969  0.733616  0.608567
    O   O15  0.366587  0.946380  0.812993  -0.585300
    C   C18  0.246074  0.968424  0.825820  0.538642
    O   O16  0.414620  0.109983  0.837098  -0.487353
    Fe  Fe2  0.494560  0.977342  0.714162  1.442513
    C   C19  0.096893  0.337120  0.676501  0.481391
    O   O17  0.021585  0.306644  0.736984  -0.460142
    N   N1   0.224443  0.320176  0.643556  -0.172830
    C   C20  0.300002  0.349073  0.580418  0.401291
    C   C21  0.317468  0.209473  0.580273  -0.202086
    C   C22  0.359830  0.154968  0.598573  -0.013668
    C   C23  0.325270  0.216675  0.792477  -0.102336
    C   C24  0.280206  0.270216  0.772719  -0.136090
    C   C25  0.276108  0.266722  0.666232  0.241577
    C   C26  0.116012  0.412054  0.577092  0.116086
    C   C27  0.041547  0.383322  0.644024  -0.162204
    C   C28  0.911317  0.400137  0.677074  -0.001731
    C   C29  0.246738  0.395105  0.546396  -0.086442
    C   C30  0.365210  0.158214  0.706384  -0.009320
    H   H4   0.328010  0.221375  0.876983  0.139511
    H   H5   0.248769  0.314986  0.841220  0.116067
    H   H6   0.851022  0.379718  0.731686  0.110927
    C   C31  0.629546  0.837922  0.295816  0.014424
    C   C32  0.868456  0.512447  0.526547  0.087835
    C   C33  0.082138  0.532151  0.440053  0.114165
    C   C34  0.947287  0.544008  0.464578  -0.018293
    C   C35  0.732492  0.522834  0.543378  -0.193902
    C   C36  0.678157  0.566219  0.505764  -0.018712
    C   C37  0.757176  0.599955  0.449326  -0.085404
    C   C38  0.890802  0.588202  0.427415  0.117344
    C   C39  0.967438  0.621798  0.369010  -0.157585
    C   C40  0.910768  0.667262  0.335711  0.461665
    N   N2   0.780226  0.678902  0.359936  -0.150783
    C   C41  0.702995  0.645702  0.415240  0.397533
    C   C42  0.682342  0.788248  0.422601  -0.163301
    C   C43  0.637295  0.842109  0.403959  -0.050030
    C   C44  0.671934  0.779811  0.210024  -0.120652
    C   C45  0.721216  0.727391  0.230253  -0.115962
    C   C46  0.725891  0.731446  0.336868  0.202029
    O   O18  0.572692  0.657574  0.437733  -0.490622
    C   C47  0.926522  0.470871  0.569006  0.037711
    C   C48  0.060035  0.456532  0.540219  0.033660
    C   C49  0.137823  0.485819  0.474241  -0.012652
    C   C50  0.854600  0.443509  0.640824  -0.134853
    H   H7   0.689357  0.791860  0.506098  0.205471
    H   H8   0.572462  0.573120  0.521931  0.105336
    H   H9   0.662574  0.497243  0.583649  0.142318
    H   H10  0.753602  0.455257  0.673646  0.122517
    O   O19  0.427885  0.332841  0.550271  -0.483374
    C   C51  0.323085  0.422883  0.479372  -0.047980
    H   H11  0.311087  0.205947  0.496729  0.226873
    H   H12  0.425530  0.409853  0.452481  0.125263
    C   C52  0.158033  0.567555  0.382185  -0.208582
    C   C53  0.101215  0.611487  0.347166  0.024253
    O   O20  0.986826  0.702091  0.282840  -0.470756
    C   C54  0.269787  0.467378  0.443479  -0.107084
    H   H13  0.263646  0.564490  0.364145  0.162850
    H   H14  0.668225  0.774634  0.125413  0.143684
    H   H15  0.164426  0.637921  0.303145  0.105397
    H   H16  0.755114  0.682952  0.162149  0.114348
    H   H17  0.336020  0.484604  0.388574  0.106726
    C   C55  0.000293  0.068788  0.254391  0.422111
    N   N3   0.965222  0.102904  0.343636  -0.426211
