# Generated by REPEAT Assigner based on pymatgen
data_DB0-m2_o18_o24_f0_pcu.sym.18_sqe
_audit_creation_date              2022-05-24
_audit_creation_method            REPEAT_Assigner
_cell_length_a                    10.708119
_cell_length_b                    14.430069
_cell_length_c                    15.102656
_cell_angle_alpha                 65.060914
_cell_angle_beta                  103.242698
_cell_angle_gamma                 103.858617
_cell_volume                      2032.591829
_symmetry_space_group_name_H-M    P1
_symmetry_Int_Tables_number       1
loop_
    _symmetry_equiv_pos_site_id
    _symmetry_equiv_pos_as_xyz
    1  x,y,z
loop_
    _atom_site_type_symbol
    _atom_site_label
    _atom_site_fract_x
    _atom_site_fract_y
    _atom_site_fract_z
    _atom_type_partial_charge
    O   O1   0.460727  0.020644  0.340474  -0.469096
    O   O2   0.526712  0.979487  0.658515  -0.438231
    O   O3   0.515635  0.162798  0.381502  -0.589643
    O   O4   0.472425  0.837317  0.617392  -0.602952
    C   C1   0.489968  0.120834  0.315818  0.675833
    C   C2   0.498611  0.879177  0.683109  0.664273
    O   O5   0.281653  0.933954  0.476407  -0.635023
    O   O6   0.705982  0.066047  0.522809  -0.621091
    O   O7   0.344382  0.080446  0.511072  -0.566462
    O   O8   0.643202  0.919812  0.487652  -0.556661
    C   C3   0.254789  0.008097  0.493187  0.677487
    C   C4   0.732817  0.992012  0.505825  0.636455
    Cu  Cu1  0.456755  0.917466  0.475064  0.844866
    Cu  Cu2  0.530843  0.082670  0.523885  0.810679
    C   C5   0.011144  0.912283  0.498207  0.169178
    C   C6   0.976446  0.087877  0.500769  0.107271
    C   C7   0.921853  0.985873  0.419873  -0.324296
    C   C8   0.065730  0.014292  0.579100  -0.250900
    H   H1   0.863178  0.976966  0.352376  0.226252
    H   H2   0.124278  0.023255  0.646594  0.209264
    H   H3   0.025620  0.837510  0.501007  0.009126
    H   H4   0.962014  0.162648  0.498011  0.027180
    C   C9   0.871467  0.995476  0.501343  0.084451
    C   C10  0.116135  0.004684  0.497638  0.026905
    C   C11  0.959785  0.924549  0.577059  0.021107
    C   C12  0.027809  0.075617  0.421916  0.064997
    C   C13  0.498201  0.188252  0.210899  -0.098730
    C   C14  0.497954  0.811033  0.788539  -0.116751
    C   C15  0.500434  0.213841  0.044449  -0.293343
    C   C16  0.506911  0.783782  0.956753  -0.348747
    C   C17  0.503555  0.149070  0.142329  0.117318
    C   C18  0.491329  0.847806  0.858434  0.208259
    C   C19  0.498479  0.293311  0.179544  -0.125141
    C   C20  0.506603  0.707702  0.818700  -0.118975
    C   C21  0.508225  0.361278  0.081625  0.057147
    C   C22  0.512739  0.639935  0.918004  0.021327
    C   C23  0.505511  0.319426  0.013698  0.208191
    C   C24  0.521331  0.681509  0.987283  0.219237
    C   C25  0.517076  0.469235  0.049945  0.052172
    C   C26  0.510812  0.532538  0.949689  0.074360
    C   C27  0.501921  0.486589  0.883429  -0.144768
    C   C28  0.537536  0.515599  0.117218  -0.171010
    C   C29  0.504832  0.382916  0.914851  -0.160349
    C   C30  0.540096  0.619957  0.086938  -0.093079
    H   H5   0.511088  0.683796  0.761559  0.134085
    H   H6   0.485622  0.318953  0.233563  0.126546
    H   H7   0.498256  0.179851  0.992766  0.185954
    H   H8   0.498917  0.813635  0.009378  0.203810
    H   H9   0.497827  0.528994  0.805389  0.158703
    H   H10  0.560078  0.473739  0.195303  0.169108
    N   N1   0.587023  0.205692  0.561539  -0.108422
    N   N2   0.400539  0.794467  0.437371  -0.125550
    C   C31  0.743147  0.313584  0.629621  -0.285698
    C   C32  0.244417  0.686407  0.369474  -0.419992
    C   C33  0.702434  0.221440  0.617508  0.091932
    C   C34  0.284863  0.778467  0.381755  0.151599
    C   C35  0.513470  0.281921  0.516654  0.007352
    C   C36  0.474334  0.718364  0.482005  -0.017345
    C   C37  0.548723  0.374872  0.531677  -0.122021
    C   C38  0.439178  0.625426  0.466925  -0.101459
    C   C39  0.666613  0.389350  0.588067  0.291611
    C   C40  0.321204  0.610847  0.410685  0.433129
    C   C41  0.471575  0.454001  0.491278  0.229176
    C   C42  0.516400  0.546338  0.507233  0.103134
    C   C43  0.638217  0.557828  0.562170  -0.139713
    C   C44  0.349749  0.442490  0.436353  -0.159042
    C   C45  0.710865  0.479784  0.602632  -0.236262
    C   C46  0.276987  0.520444  0.396057  -0.304510
    H   H11  0.804689  0.490791  0.645675  0.158246
    H   H12  0.183080  0.509387  0.353130  0.170950
    H   H13  0.559508  0.731937  0.531064  0.140793
    H   H14  0.428422  0.268406  0.467473  0.123533
    H   H15  0.835233  0.325640  0.674208  0.182770
    H   H16  0.152204  0.674177  0.325114  0.206425
    H   H17  0.682708  0.626576  0.575628  0.150591
    H   H18  0.305318  0.373805  0.422777  0.158564
    N   N3   0.200787  0.854254  0.335635  0.671534
    O   O9   0.239298  0.942080  0.267109  -0.353218
    O   O10  0.076554  0.823421  0.337306  -0.403621
    N   N4   0.785699  0.145104  0.664438  0.698683
    O   O11  0.746725  0.058215  0.733854  -0.357770
    O   O12  0.909997  0.175085  0.662580  -0.428654
    N   N5   0.918671  0.839023  0.664953  0.579298
    O   O13  0.926328  0.744784  0.680165  -0.406906
    O   O14  0.876466  0.856814  0.729534  -0.361162
    N   N6   0.068909  0.161182  0.334038  0.569047
    O   O15  0.061135  0.255392  0.318841  -0.403896
    O   O16  0.111000  0.143444  0.269373  -0.360776
    N   N7   0.506325  0.343222  0.843020  0.691741
    O   O17  0.431631  0.374674  0.758550  -0.412520
    O   O18  0.604201  0.300262  0.850551  -0.342540
    N   N8   0.567427  0.663003  0.160311  0.646610
    O   O19  0.524363  0.609047  0.244296  -0.419837
    O   O20  0.659795  0.741853  0.153662  -0.334020
    N   N9   0.462158  0.948621  0.831617  0.560692
    O   O21  0.513364  0.998453  0.889108  -0.317514
    O   O22  0.360935  0.977590  0.766910  -0.428526
    N   N10  0.517051  0.043939  0.170017  0.636753
    O   O23  0.616419  0.008205  0.233264  -0.423721
    O   O24  0.454610  0.995461  0.113232  -0.345760
