# Generated by REPEAT Assigner based on pymatgen
data_DB0-m3_o148_o6_f0_fsc.sym.1
_audit_creation_date              2022-05-24
_audit_creation_method            REPEAT_Assigner
_cell_length_a                    10.736154
_cell_length_b                    14.343590
_cell_length_c                    8.557746
_cell_angle_alpha                 90.000000
_cell_angle_beta                  89.998299
_cell_angle_gamma                 90.000000
_cell_volume                      1317.850042
_symmetry_space_group_name_H-M    P1
_symmetry_Int_Tables_number       1
loop_
    _symmetry_equiv_pos_site_id
    _symmetry_equiv_pos_as_xyz
    1  x,y,z
loop_
    _atom_site_type_symbol
    _atom_site_label
    _atom_site_fract_x
    _atom_site_fract_y
    _atom_site_fract_z
    _atom_type_partial_charge
    C   C1   0.681623  0.034928  0.002783  -0.136563
    C   C2   0.740770  0.021380  0.862795  -0.007460
    C   C3   0.866216  0.003718  0.859407  -0.381766
    C   C4   0.744453  0.022651  0.140947  -0.105846
    C   C5   0.872871  0.010240  0.139054  -0.183023
    C   C6   0.935194  0.004405  0.997191  0.422920
    C   C7   0.064481  0.995242  0.997165  -0.286057
    C   C8   0.133286  0.995592  0.859315  -0.117644
    C   C9   0.258836  0.978324  0.862757  -0.103170
    C   C10  0.939666  0.005107  0.277006  0.250058
    N   N1   0.064435  0.995481  0.274420  -0.637424
    C   C11  0.127439  0.989975  0.138755  0.639146
    C   C12  0.255539  0.977686  0.140480  -0.332875
    C   C13  0.318358  0.965226  0.002542  -0.048218
    H   H1   0.892774  0.009912  0.388414  0.058313
    H   H2   0.582586  0.046800  0.004618  0.138126
    H   H3   0.417429  0.953511  0.004247  0.131776
    H   H4   0.905281  0.988528  0.746670  0.181513
    H   H5   0.094101  0.010388  0.746501  0.107614
    O   O1   0.388427  0.910001  0.669698  -0.713442
    O   O2   0.356628  0.069186  0.667022  -0.683012
    C   C14  0.333563  0.985512  0.721523  0.812164
    O   O3   0.611221  0.090040  0.669375  -0.738011
    O   O4   0.643053  0.930475  0.666407  -0.703734
    C   C15  0.665754  0.014253  0.721463  0.862507
    O   O5   0.611859  0.089883  0.333445  -0.740990
    O   O6   0.643110  0.931069  0.335429  -0.710874
    C   C16  0.668271  0.014843  0.282288  0.883369
    O   O7   0.387535  0.910148  0.333056  -0.702594
    O   O8   0.356282  0.069257  0.335314  -0.682271
    C   C17  0.330731  0.985331  0.282547  0.862639
    Zn  Zn1  0.481280  0.102685  0.501123  1.106113
    Zn  Zn2  0.517450  0.897307  0.500900  1.094752
    H   H6   0.683594  0.398129  0.501074  0.165309
    H   H7   0.709817  0.568506  0.500827  0.169465
    C   C18  0.617462  0.538485  0.500589  -0.177916
    C   C19  0.602670  0.442972  0.500738  -0.160197
    C   C20  0.514210  0.595540  0.500194  0.264856
    C   C21  0.484847  0.404468  0.500503  0.262506
    C   C22  0.396388  0.557036  0.499928  -0.159675
    C   C23  0.381596  0.461524  0.500074  -0.179190
    H   H8   0.315463  0.601879  0.499647  0.167290
    H   H9   0.289241  0.431504  0.499889  0.170979
    C   C24  0.528004  0.695073  0.500243  0.037412
    C   C25  0.471033  0.304937  0.500732  0.040645
    N   N2   0.464170  0.224432  0.500919  -0.069849
    N   N3   0.534813  0.775581  0.500353  -0.067672
