# generated using pymatgen
data_CuH27C39NO6
_symmetry_space_group_name_H-M   'P 1'
_cell_length_a   15.88832800
_cell_length_b   19.34191500
_cell_length_c   17.87524300
_cell_angle_alpha   89.98394200
_cell_angle_beta   89.98947200
_cell_angle_gamma   90.01104800
_symmetry_Int_Tables_number   1
_chemical_formula_structural   CuH27C39NO6
_chemical_formula_sum   'Cu2 H54 C78 N2 O12'
_cell_volume   5493.25284366
_cell_formula_units_Z   2
loop_
 _symmetry_equiv_pos_site_id
 _symmetry_equiv_pos_as_xyz
  1  'x, y, z'
loop_
 _atom_site_type_symbol
 _atom_site_label
 _atom_site_symmetry_multiplicity
 _atom_site_fract_x
 _atom_site_fract_y
 _atom_site_fract_z
 _atom_site_occupancy
  Cu  Cu1  1  0.49484700  0.50190900  0.57489100  1
  Cu  Cu2  1  0.49855800  0.50317800  0.42522900  1
  H  H1  1  0.05025300  0.38477600  0.48173900  1
  H  H2  1  0.94336000  0.61758500  0.51895900  1
  H  H3  1  0.94861200  0.42855300  0.60264100  1
  H  H4  1  0.04497600  0.57392100  0.39804700  1
  H  H5  1  0.94087900  0.45613600  0.38363800  1
  H  H6  1  0.05277600  0.54631500  0.61695900  1
  H  H7  1  0.49742000  0.72051300  0.38215800  1
  H  H8  1  0.49448700  0.28492400  0.61800300  1
  H  H9  1  0.49767500  0.84538600  0.38211100  1
  H  H10  1  0.49640200  0.16003300  0.61835600  1
  H  H11  1  0.50300800  0.84572200  0.62130000  1
  H  H12  1  0.49418300  0.15923600  0.37907900  1
  H  H13  1  0.50119500  0.72051200  0.62165800  1
  H  H14  1  0.49477100  0.28451400  0.37855900  1
  H  H15  1  0.41265800  0.93972800  0.59251900  1
  H  H16  1  0.58366400  0.06539200  0.40809200  1
  H  H17  1  0.40974100  0.06479300  0.59071800  1
  H  H18  1  0.58637700  0.94023900  0.40982800  1
  H  H19  1  0.39715700  0.43082500  0.83651900  1
  H  H20  1  0.58249600  0.58562200  0.16393300  1
  H  H21  1  0.58422700  0.57762000  0.68889900  1
  H  H22  1  0.41117600  0.42587300  0.31077200  1
  H  H23  1  0.62652600  0.49759000  0.93180600  1
  H  H24  1  0.35903000  0.51475600  0.06881300  1
  H  H25  1  0.62681300  0.49697300  0.06789700  1
  H  H26  1  0.35858400  0.51616400  0.93251400  1
  H  H27  1  0.28055000  0.41385200  0.75594600  1
  H  H28  1  0.35307200  0.34125500  0.76009300  1
  H  H29  1  0.33678100  0.37151200  0.56898700  1
  H  H30  1  0.24604200  0.30847600  0.48380300  1
  H  H31  1  0.12652100  0.24110800  0.53210600  1
  H  H32  1  0.09876200  0.23752100  0.66742700  1
  H  H33  1  0.18986900  0.30146000  0.75403600  1
  H  H34  1  0.60278100  0.68064700  0.24639900  1
  H  H35  1  0.69187500  0.62215100  0.23922000  1
  H  H36  1  0.66231200  0.62917000  0.43067200  1
  H  H37  1  0.74063900  0.70204200  0.51640700  1
  H  H38  1  0.81755300  0.80360200  0.46972900  1
  H  H39  1  0.81543600  0.83135200  0.33550100  1
  H  H40  1  0.73615300  0.75814100  0.24829200  1
  H  H41  1  0.61155600  0.67628500  0.76580800  1
  H  H42  1  0.69546500  0.61246500  0.76967900  1
  H  H43  1  0.81486600  0.65049300  0.83161500  1
  H  H44  1  0.88311700  0.72026000  0.92850000  1
  H  H45  1  0.79799900  0.79199600  0.01315100  1
  H  H46  1  0.64385500  0.79358400  0.00095200  1
  H  H47  1  0.57479200  0.72390900  0.90392000  1
  H  H48  1  0.29574500  0.39480100  0.23139200  1
  H  H49  1  0.37922300  0.33068300  0.23096800  1
  H  H50  1  0.34368000  0.22910400  0.16966900  1
  H  H51  1  0.26794300  0.16687400  0.07119000  1
  H  H52  1  0.17806400  0.23022500  0.98266500  1
  H  H53  1  0.16365600  0.35643900  0.99313200  1
  H  H54  1  0.23913800  0.41931400  0.09176100  1
  C  C1  1  0.49566300  0.36965800  0.49847300  1
  C  C2  1  0.49793100  0.63545100  0.50167400  1
  C  C3  1  0.33527700  0.50389800  0.49665100  1
  C  C4  1  0.65815200  0.50083200  0.50345800  1
  C  C5  1  0.97167100  0.46149000  0.55619800  1
  C  C6  1  0.02185600  0.54092900  0.44443800  1
  C  C7  1  0.02464800  0.43754000  0.49019700  1
  C  C8  1  0.96895400  0.56485800  0.51043800  1
  C  C9  1  0.24504400  0.50353700  0.49557400  1
  C  C10  1  0.74841000  0.50046600  0.50464500  1
  C  C11  1  0.02602100  0.52582500  0.56412000  1
  C  C12  1  0.96753600  0.47659100  0.43651200  1
  C  C13  1  0.07730400  0.50189300  0.49813700  1
  C  C14  1  0.91623500  0.50056500  0.50248100  1
  C  C15  1  0.16926200  0.50285900  0.49616000  1
  C  C16  1  0.82422300  0.50036700  0.50426100  1
  C  C17  1  0.49870300  0.74731000  0.43517300  1
  C  C18  1  0.49456000  0.25797300  0.56506200  1
  C  C19  1  0.49971700  0.81852300  0.43507300  1
  C  C20  1  0.49467600  0.18675600  0.56529900  1
  C  C21  1  0.50044800  0.85477000  0.50167800  1
  C  C22  1  0.49536900  0.15038200  0.49875900  1
  C  C23  1  0.50081000  0.81866300  0.56846700  1
  C  C24  1  0.49542800  0.18638000  0.43189100  1
  C  C25  1  0.50043600  0.74735900  0.56863800  1
  C  C26  1  0.49505000  0.25769400  0.43159900  1
  C  C27  1  0.49904700  0.71125300  0.50194100  1
  C  C28  1  0.49500500  0.29388500  0.49824100  1
  C  C29  1  0.45144900  0.96679800  0.55242200  1
  C  C30  1  0.54486600  0.03833600  0.44820100  1
  C  C31  1  0.44979900  0.03803800  0.55138500  1
  C  C32  1  0.54643900  0.96707600  0.44919900  1
  C  C33  1  0.49653300  0.07438400  0.49931300  1
  C  C34  1  0.49973100  0.93075700  0.50130100  1
  C  C35  1  0.43709200  0.46105900  0.72551800  1
  C  C36  1  0.54902800  0.55004700  0.27476500  1
  C  C37  1  0.43740700  0.46349300  0.80317200  1
  C  C38  1  0.54599200  0.55002700  0.19715500  1
  C  C39  1  0.49189600  0.50689400  0.84038000  1
  C  C40  1  0.49410300  0.50471700  0.15977900  1
  C  C41  1  0.54456500  0.54942200  0.79975400  1
  C  C42  1  0.44486700  0.45927700  0.20005400  1
  C  C43  1  0.54365800  0.54532300  0.72234300  1
  C  C44  1  0.44908200  0.46042300  0.27753200  1
  C  C45  1  0.56750300  0.50247900  0.96140100  1
  C  C46  1  0.41794900  0.51021900  0.03898600  1
  C  C47  1  0.56766600  0.50170800  0.03847500  1
  C  C48  1  0.41777200  0.51125900  0.96184400  1
  C  C49  1  0.49291500  0.50502200  0.07772200  1
  C  C50  1  0.49256100  0.50764800  0.92253900  1
  C  C51  1  0.32259800  0.37974000  0.72286300  1
  C  C52  1  0.26930300  0.34138500  0.66786400  1
  C  C53  1  0.28486300  0.34288800  0.59178400  1
  C  C54  1  0.23358100  0.30697900  0.54323500  1
  C  C55  1  0.16664900  0.26923600  0.57026500  1
  C  C56  1  0.15113500  0.26724500  0.64603900  1
  C  C57  1  0.20238200  0.30316200  0.69462000  1
  C  C58  1  0.64557300  0.64588900  0.27790900  1
  C  C59  1  0.69308100  0.68884700  0.33313500  1
  C  C60  1  0.69503800  0.67323900  0.40859500  1
  C  C61  1  0.73954600  0.71447400  0.45745700  1
  C  C62  1  0.78264200  0.77134300  0.43133400  1
  C  C63  1  0.78141300  0.78686500  0.35614900  1
  C  C64  1  0.73685800  0.74567500  0.30724300  1
  C  C65  1  0.64767100  0.64097600  0.80272000  1
  C  C66  1  0.69020500  0.68288900  0.86139100  1
  C  C67  1  0.77677000  0.68179200  0.86851200  1
  C  C68  1  0.81536300  0.72096100  0.92306200  1
  C  C69  1  0.76766000  0.76118900  0.97053100  1
  C  C70  1  0.68125900  0.76206400  0.96370100  1
  C  C71  1  0.64256200  0.72294900  0.90919200  1
  C  C72  1  0.34236600  0.36721900  0.19616400  1
  C  C73  1  0.29634000  0.32844800  0.13700900  1
  C  C74  1  0.30424400  0.25753200  0.13118300  1
  C  C75  1  0.26174000  0.22236200  0.07573700  1
  C  C76  1  0.21130300  0.25785700  0.02612900  1
  C  C77  1  0.20329600  0.32859600  0.03195000  1
  C  C78  1  0.24570800  0.36384600  0.08735300  1
  N  N1  1  0.49207500  0.50076300  0.68683200  1
  N  N2  1  0.50156700  0.50414300  0.31329200  1
  O  O1  1  0.49711600  0.40158100  0.56304400  1
  O  O2  1  0.49629600  0.60351900  0.43709900  1
  O  O3  1  0.49438100  0.40261200  0.43446300  1
  O  O4  1  0.49917600  0.60247900  0.56571300  1
  O  O5  1  0.37293700  0.50543700  0.56170400  1
  O  O6  1  0.62047800  0.49960400  0.43840700  1
  O  O7  1  0.37595600  0.50149900  0.43299200  1
  O  O8  1  0.61745300  0.50342600  0.56705300  1
  O  O9  1  0.38312000  0.41929900  0.68803200  1
  O  O10  1  0.59893900  0.59498300  0.31240000  1
  O  O11  1  0.59393900  0.59500800  0.83655000  1
  O  O12  1  0.39541600  0.41404700  0.16278800  1
