# generated using pymatgen
data_ZnH6C16NClO4
_symmetry_space_group_name_H-M   'P 1'
_cell_length_a   8.57711100
_cell_length_b   10.80363900
_cell_length_c   13.41364000
_cell_angle_alpha   90.00000000
_cell_angle_beta   90.00000000
_cell_angle_gamma   90.00000000
_symmetry_Int_Tables_number   1
_chemical_formula_structural   ZnH6C16NClO4
_chemical_formula_sum   'Zn2 H12 C32 N2 Cl2 O8'
_cell_volume   1242.96168326
_cell_formula_units_Z   2
loop_
 _symmetry_equiv_pos_site_id
 _symmetry_equiv_pos_as_xyz
  1  'x, y, z'
loop_
 _atom_site_type_symbol
 _atom_site_label
 _atom_site_symmetry_multiplicity
 _atom_site_fract_x
 _atom_site_fract_y
 _atom_site_fract_z
 _atom_site_occupancy
  Zn  Zn1  1  0.49575500  0.50665900  0.11059900  1
  Zn  Zn2  1  0.50433200  0.49638800  0.88932000  1
  H  H1  1  0.61663500  0.88760600  0.03526400  1
  H  H2  1  0.38448000  0.89140900  0.96225700  1
  H  H3  1  0.61563800  0.11242200  0.03757200  1
  H  H4  1  0.38336400  0.11624200  0.96457600  1
  H  H5  1  0.99966400  0.58869500  0.97028700  1
  H  H6  1  0.00044400  0.41495800  0.03003500  1
  H  H7  1  0.49425700  0.70204500  0.25721300  1
  H  H8  1  0.50912700  0.68814500  0.74907700  1
  H  H9  1  0.49913400  0.80664600  0.41456900  1
  H  H10  1  0.50601800  0.80121300  0.59653100  1
  H  H11  1  0.50597300  0.29386800  0.57279000  1
  H  H12  1  0.49135800  0.29924300  0.42124600  1
  C  C1  1  0.00023300  0.68569900  0.98404400  1
  C  C2  1  0.86136100  0.74565100  0.99887500  1
  C  C3  1  0.14012300  0.74665000  0.98768200  1
  C  C4  1  0.86128800  0.87319300  0.00790500  1
  C  C5  1  0.14015800  0.87457900  0.98912200  1
  C  C6  1  0.72398900  0.93678700  0.02281300  1
  C  C7  1  0.27693100  0.93957800  0.97648800  1
  C  C8  1  0.72315900  0.06421000  0.02333700  1
  C  C9  1  0.27603700  0.06700600  0.97700200  1
  C  C10  1  0.00032300  0.93781500  0.99890600  1
  C  C11  1  0.99974700  0.06587300  0.00095100  1
  C  C12  1  0.85998100  0.12914200  0.01075900  1
  C  C13  1  0.13871000  0.13054000  0.99194300  1
  C  C14  1  0.86015800  0.25705800  0.01233500  1
  C  C15  1  0.13851200  0.25807400  0.00106900  1
  C  C16  1  0.99986200  0.31798400  0.01613300  1
  C  C17  1  0.71861800  0.33319900  0.00732800  1
  C  C18  1  0.27983300  0.33447900  0.99929000  1
  C  C19  1  0.71971200  0.66932300  0.00064900  1
  C  C20  1  0.28197800  0.67056300  0.99263900  1
  C  C21  1  0.50899800  0.60189700  0.70825100  1
  C  C22  1  0.49289500  0.61382500  0.29522400  1
  C  C23  1  0.50930500  0.38589000  0.70874700  1
  C  C24  1  0.48934900  0.39798700  0.28885500  1
  C  C25  1  0.50619900  0.38405800  0.60627200  1
  C  C26  1  0.49238700  0.39104900  0.39081200  1
  C  C27  1  0.50297700  0.49381900  0.55230600  1
  C  C28  1  0.49728800  0.49721300  0.44807500  1
  C  C29  1  0.50558700  0.60352700  0.60508100  1
  C  C30  1  0.49639400  0.60971300  0.39873800  1
  C  C31  1  0.49987500  0.71841900  0.45258200  1
  C  C32  1  0.50390200  0.71529900  0.55524400  1
  N  N1  1  0.51015500  0.49394000  0.75859800  1
  N  N2  1  0.48995900  0.50843200  0.24143600  1
  Cl  Cl1  1  0.50989400  0.24450600  0.77269700  1
  Cl  Cl2  1  0.48752500  0.25703400  0.22409000  1
  O  O1  1  0.66926100  0.36931400  0.91928100  1
  O  O2  1  0.66401500  0.37956200  0.09033000  1
  O  O3  1  0.33658300  0.36959000  0.91295800  1
  O  O4  1  0.32808100  0.38093500  0.08394400  1
  O  O5  1  0.66255400  0.63485900  0.08751600  1
  O  O6  1  0.67069000  0.62386400  0.91534200  1
  O  O7  1  0.33208700  0.63542200  0.08122800  1
  O  O8  1  0.33721700  0.62502800  0.90901800  1
