data_DB0-m3_o12_o29_f0_pcu.sym.97_repeat
_audit_creation_date              2024-02-23
_audit_creation_method            'Materials Studio'
_symmetry_space_group_name_H-M    'P1'
_symmetry_Int_Tables_number       1
_symmetry_cell_setting            triclinic
loop_
_symmetry_equiv_pos_as_xyz
  x,y,z
_cell_length_a                    10.2942
_cell_length_b                    11.2630
_cell_length_c                    27.6658
_cell_angle_alpha                 90.0017
_cell_angle_beta                  80.5172
_cell_angle_gamma                 92.5140
loop_
_atom_site_label
_atom_site_type_symbol
_atom_site_fract_x
_atom_site_fract_y
_atom_site_fract_z
_atom_site_U_iso_or_equiv
_atom_site_adp_type
_atom_site_occupancy
O1     O     0.42417   0.69126   0.50209   0.00000  Uiso   1.00
O2     O     0.57633   0.31133   0.49582   0.00000  Uiso   1.00
O3     O     0.64797   0.66188   0.49465   0.00000  Uiso   1.00
O4     O     0.35252   0.34077   0.50314   0.00000  Uiso   1.00
C1     C     0.54762   0.73117   0.49818   0.00000  Uiso   1.00
C2     C     0.45288   0.27146   0.49973   0.00000  Uiso   1.00
O5     O     0.36643   0.51414   0.57558   0.00000  Uiso   1.00
O6     O     0.63354   0.48784   0.42231   0.00000  Uiso   1.00
O7     O     0.59033   0.48522   0.56817   0.00000  Uiso   1.00
O8     O     0.40989   0.51680   0.42972   0.00000  Uiso   1.00
C3     C     0.47384   0.49898   0.59478   0.00000  Uiso   1.00
C4     C     0.52624   0.50300   0.40309   0.00000  Uiso   1.00
Zn1    Zn    0.35244   0.52058   0.50330   0.00000  Uiso   1.00
Zn2    Zn    0.64786   0.48205   0.49457   0.00000  Uiso   1.00
C5     C     0.54726   0.58334   0.81854   0.00000  Uiso   1.00
C6     C     0.46620   0.40984   0.17815   0.00000  Uiso   1.00
O9     O     0.62216   0.66098   0.78782   0.00000  Uiso   1.00
O10    O     0.40107   0.32484   0.20792   0.00000  Uiso   1.00
N1     N     0.46187   0.50699   0.80107   0.00000  Uiso   1.00
N2     N     0.54083   0.49407   0.19666   0.00000  Uiso   1.00
C7     C     0.38356   0.43108   0.83183   0.00000  Uiso   1.00
C8     C     0.60878   0.57833   0.16696   0.00000  Uiso   1.00
C9     C     0.57539   0.47738   0.71802   0.00000  Uiso   1.00
C10    C     0.42305   0.51268   0.27975   0.00000  Uiso   1.00
C11    C     0.57809   0.47554   0.66810   0.00000  Uiso   1.00
C12    C     0.41968   0.51510   0.32971   0.00000  Uiso   1.00
C13    C     0.35076   0.52045   0.67983   0.00000  Uiso   1.00
C14    C     0.65155   0.48930   0.31808   0.00000  Uiso   1.00
C15    C     0.34839   0.52244   0.73006   0.00000  Uiso   1.00
C16    C     0.65472   0.48744   0.26781   0.00000  Uiso   1.00
C17    C     0.46125   0.50195   0.74937   0.00000  Uiso   1.00
C18    C     0.54007   0.49821   0.24844   0.00000  Uiso   1.00
C19    C     0.47970   0.50549   0.89979   0.00000  Uiso   1.00
C20    C     0.52404   0.49586   0.09788   0.00000  Uiso   1.00
C21    C     0.55741   0.58317   0.86786   0.00000  Uiso   1.00
C22    C     0.45668   0.40998   0.12877   0.00000  Uiso   1.00
C23    C     0.64714   0.65901   0.88514   0.00000  Uiso   1.00
C24    C     0.37995   0.32424   0.11018   0.00000  Uiso   1.00
C25    C     0.39147   0.42965   0.88143   0.00000  Uiso   1.00
C26    C     0.60149   0.57992   0.11731   0.00000  Uiso   1.00
C27    C     0.46627   0.49789   0.64844   0.00000  Uiso   1.00
C28    C     0.53361   0.50273   0.34943   0.00000  Uiso   1.00
H1     H     0.26193   0.53827   0.66555   0.00000  Uiso   1.00
H2     H     0.74200   0.47947   0.33243   0.00000  Uiso   1.00
H3     H     0.25826   0.54234   0.75412   0.00000  Uiso   1.00
H4     H     0.74712   0.47545   0.24376   0.00000  Uiso   1.00
H5     H     0.71166   0.71929   0.86084   0.00000  Uiso   1.00
H6     H     0.32794   0.25412   0.13323   0.00000  Uiso   1.00
C29    C     0.58470   0.58394   0.01752   0.00000  Uiso   1.00
C30    C     0.41455   0.42106   0.98059   0.00000  Uiso   1.00
C31    C     0.43083   0.41470   0.02990   0.00000  Uiso   1.00
C32    C     0.57807   0.58284   0.96724   0.00000  Uiso   1.00
C33    C     0.51332   0.49806   0.04827   0.00000  Uiso   1.00
C34    C     0.49066   0.50326   0.94937   0.00000  Uiso   1.00
C35    C     0.66027   0.66971   0.03822   0.00000  Uiso   1.00
C36    C     0.32284   0.34777   0.96152   0.00000  Uiso   1.00
C37    C     0.66854   0.66730   0.08726   0.00000  Uiso   1.00
C38    C     0.31205   0.35196   0.91272   0.00000  Uiso   1.00
O11    O     0.68030   0.66350   0.18601   0.00000  Uiso   1.00
O12    O     0.30086   0.35357   0.81393   0.00000  Uiso   1.00
C39    C     0.65787   0.65883   0.93395   0.00000  Uiso   1.00
C40    C     0.36733   0.32608   0.06155   0.00000  Uiso   1.00
H7     H     0.32585   0.52628   0.35290   0.00000  Uiso   1.00
H8     H     0.66970   0.45635   0.64490   0.00000  Uiso   1.00
H9     H     0.33291   0.52273   0.26519   0.00000  Uiso   1.00
H10    H     0.66392   0.45920   0.73247   0.00000  Uiso   1.00
H11    H     0.72810   0.73600   0.10148   0.00000  Uiso   1.00
H12    H     0.23991   0.29290   0.89974   0.00000  Uiso   1.00
H13    H     0.71248   0.74352   0.01806   0.00000  Uiso   1.00
H14    H     0.25415   0.28672   0.98331   0.00000  Uiso   1.00
H15    H     0.73381   0.71816   0.94367   0.00000  Uiso   1.00
H16    H     0.30842   0.25364   0.05012   0.00000  Uiso   1.00
H17    H     0.62031   0.09510   0.49553   0.00000  Uiso   1.00
H18    H     0.38039   0.90764   0.50211   0.00000  Uiso   1.00
C41    C     0.57719   0.85961   0.49740   0.00000  Uiso   1.00
C42    C     0.42341   0.14302   0.50050   0.00000  Uiso   1.00
C43    C     0.48284   0.93747   0.49952   0.00000  Uiso   1.00
C44    C     0.51785   0.06520   0.49822   0.00000  Uiso   1.00
H19    H     0.32155   0.11114   0.50327   0.00000  Uiso   1.00
H20    H     0.67908   0.89138   0.49470   0.00000  Uiso   1.00
N3     N     0.84116   0.45705   0.49058   0.00000  Uiso   1.00
N4     N     0.15921   0.54598   0.50706   0.00000  Uiso   1.00
C45    C     0.92055   0.51090   0.51610   0.00000  Uiso   1.00
C46    C     0.05805   0.47171   0.51584   0.00000  Uiso   1.00
C47    C     0.07383   0.35355   0.53330   0.00000  Uiso   1.00
N5     N     0.08522   0.25856   0.54750   0.00000  Uiso   1.00
C48    C     0.86980   0.59897   0.55119   0.00000  Uiso   1.00
N6     N     0.82949   0.66973   0.57940   0.00000  Uiso   1.00
C49    C     0.13115   0.65467   0.48867   0.00000  Uiso   1.00
N7     N     0.10794   0.74544   0.47327   0.00000  Uiso   1.00
C50    C     0.89865   0.37452   0.45752   0.00000  Uiso   1.00
N8     N     0.94653   0.30560   0.42990   0.00000  Uiso   1.00
