# generated using pymatgen
data_VH12C24N2ClO5
_symmetry_space_group_name_H-M   'P 1'
_cell_length_a   26.58140000
_cell_length_b   6.81800000
_cell_length_c   23.12329800
_cell_angle_alpha   90.00000000
_cell_angle_beta   102.09530500
_cell_angle_gamma   90.00000000
_symmetry_Int_Tables_number   1
_chemical_formula_structural   VH12C24N2ClO5
_chemical_formula_sum   'V4 H48 C96 N8 Cl4 O20'
_cell_volume   4097.64979766
_cell_formula_units_Z   4
loop_
 _symmetry_equiv_pos_site_id
 _symmetry_equiv_pos_as_xyz
  1  'x, y, z'
loop_
 _atom_site_type_symbol
 _atom_site_label
 _atom_site_symmetry_multiplicity
 _atom_site_fract_x
 _atom_site_fract_y
 _atom_site_fract_z
 _atom_site_occupancy
  V  V1  1  0.24061000  0.26841200  0.74484700  1
  V  V2  1  0.75950600  0.74359500  0.25526000  1
  V  V3  1  0.25938900  0.76841000  0.75515300  1
  V  V4  1  0.74049300  0.24359500  0.24474000  1
  H  H1  1  0.54798700  0.60669100  0.93103900  1
  H  H2  1  0.45244900  0.41905000  0.06528200  1
  H  H3  1  0.95201300  0.10669100  0.56896100  1
  H  H4  1  0.04755100  0.91905000  0.43471800  1
  H  H5  1  0.39810000  0.87232100  0.88910400  1
  H  H6  1  0.59995700  0.13570600  0.11271600  1
  H  H7  1  0.10190100  0.37232200  0.61089600  1
  H  H8  1  0.90004300  0.63570600  0.38728500  1
  H  H9  1  0.30276100  0.33437800  0.92334000  1
  H  H10  1  0.69414100  0.66679000  0.08065100  1
  H  H11  1  0.19723900  0.83437900  0.57666000  1
  H  H12  1  0.80585900  0.16678800  0.41934800  1
  H  H13  1  0.46482900  0.75310100  0.90756400  1
  H  H14  1  0.53486300  0.26692200  0.09046200  1
  H  H15  1  0.03517000  0.25310000  0.59243600  1
  H  H16  1  0.96513700  0.76692200  0.40953800  1
  H  H17  1  0.65328700  0.65729600  0.37676000  1
  H  H18  1  0.34732200  0.35469300  0.62401500  1
  H  H19  1  0.84671300  0.15729500  0.12324000  1
  H  H20  1  0.15267800  0.85469300  0.87598500  1
  H  H21  1  0.58945600  0.67231100  0.44009300  1
  H  H22  1  0.41145300  0.34010200  0.56105500  1
  H  H23  1  0.91054400  0.17231100  0.05990700  1
  H  H24  1  0.08854700  0.84010200  0.93894500  1
  H  H25  1  0.56999500  0.28407000  0.40557800  1
  H  H26  1  0.43117000  0.72856400  0.59582800  1
  H  H27  1  0.93000500  0.78407000  0.09442200  1
  H  H28  1  0.06883000  0.22856400  0.90417200  1
  H  H29  1  0.63348300  0.26916300  0.34268400  1
  H  H30  1  0.36743600  0.74311600  0.65841500  1
  H  H31  1  0.86651700  0.76916300  0.15731600  1
  H  H32  1  0.13256400  0.24311600  0.84158500  1
  H  H33  1  0.55280200  0.39444500  0.98924900  1
  H  H34  1  0.65118600  0.01722900  0.91673000  1
  H  H35  1  0.72240800  0.25135600  0.94571400  1
  H  H36  1  0.70836400  0.56107400  0.99450000  1
  H  H37  1  0.39767600  0.32651700  0.10388200  1
  H  H38  1  0.32821800  0.88111800  0.11929400  1
  H  H39  1  0.29822200  0.89444300  0.01125100  1
  H  H40  1  0.31932600  0.62654000  0.94921200  1
  H  H41  1  0.94719700  0.89444500  0.51075100  1
  H  H42  1  0.84881300  0.51722800  0.58327000  1
  H  H43  1  0.77759200  0.75135600  0.55428600  1
  H  H44  1  0.79163500  0.06107500  0.50550000  1
  H  H45  1  0.10232400  0.82651700  0.39611800  1
  H  H46  1  0.17178200  0.38111800  0.38070700  1
  H  H47  1  0.20177800  0.39444400  0.48875000  1
  H  H48  1  0.18067400  0.12653900  0.55078800  1
  C  C1  1  0.18637300  0.54741200  0.81519700  1
  C  C2  1  0.81298100  0.46466800  0.18401400  1
  C  C3  1  0.31362800  0.04741300  0.68480300  1
  C  C4  1  0.68702000  0.96466900  0.31598400  1
  C  C5  1  0.18969800  0.55712500  0.65321200  1
  C  C6  1  0.81106900  0.45445900  0.34624400  1
  C  C7  1  0.31030200  0.05712300  0.84678800  1
  C  C8  1  0.68893100  0.95445900  0.15375700  1
  C  C9  1  0.65121400  0.91398400  0.09926100  1
  C  C10  1  0.34720700  0.09528300  0.90209500  1
  C  C11  1  0.84878700  0.41398400  0.40073900  1
  C  C12  1  0.15279300  0.59528200  0.59790600  1
  C  C13  1  0.62124200  0.68545600  0.02172300  1
  C  C14  1  0.37403300  0.30567900  0.98505000  1
  C  C15  1  0.87875800  0.18545500  0.47827700  1
  C  C16  1  0.12596600  0.80567900  0.51494900  1
  C  C17  1  0.65902000  0.75025100  0.06757500  1
  C  C18  1  0.33838200  0.25344300  0.93547800  1
  C  C19  1  0.84098100  0.25025300  0.43242400  1
  C  C20  1  0.16161800  0.75344400  0.56452200  1
  C  C21  1  0.60504800  0.01422700  0.08490100  1
  C  C22  1  0.39276100  0.99191000  0.91744500  1
  C  C23  1  0.89495100  0.51422700  0.41509800  1
  C  C24  1  0.10723800  0.49190800  0.58255400  1
  C  C25  1  0.56608600  0.94868700  0.03861300  1
  C  C26  1  0.43115300  0.05421500  0.96477600  1
  C  C27  1  0.93391500  0.44868700  0.46138800  1
  C  C28  1  0.06884800  0.55421600  0.53522500  1
  C  C29  1  0.57533900  0.78578300  0.00669200  1
  C  C30  1  0.42108100  0.21226400  0.99816900  1
  C  C31  1  0.92466200  0.28578100  0.49330800  1
  C  C32  1  0.07891900  0.71226400  0.50183200  1
  C  C33  1  0.51772100  0.03861400  0.02450900  1
  C  C34  1  0.47981300  0.96647400  0.97823500  1
  C  C35  1  0.98227900  0.53861300  0.47549100  1
  C  C36  1  0.02018700  0.46647400  0.52176500  1
  C  C37  1  0.49162100  0.81086800  0.94497500  1
  C  C38  1  0.50679000  0.20066500  0.05577500  1
  C  C39  1  0.00838000  0.31086900  0.55502500  1
  C  C40  1  0.99321100  0.70066600  0.44422500  1
  C  C41  1  0.53907200  0.72333900  0.95886500  1
  C  C42  1  0.45907200  0.28653200  0.04240400  1
  C  C43  1  0.96092700  0.22333800  0.54113400  1
  C  C44  1  0.04092700  0.78653100  0.45759600  1
  C  C45  1  0.63520900  0.79568400  0.38278100  1
  C  C46  1  0.36560300  0.21652800  0.61822800  1
  C  C47  1  0.86479100  0.29568600  0.11722000  1
  C  C48  1  0.13439700  0.71653000  0.88177300  1
  C  C49  1  0.59890000  0.80439900  0.41878600  1
  C  C50  1  0.40205400  0.20802700  0.58239800  1
  C  C51  1  0.90110000  0.30439800  0.08121400  1
  C  C52  1  0.09794700  0.70802500  0.91760200  1
  C  C53  1  0.57478400  0.97976700  0.42770500  1
  C  C54  1  0.42630800  0.03281400  0.57363600  1
  C  C55  1  0.92521600  0.47976700  0.07229500  1
  C  C56  1  0.07369300  0.53281500  0.92636400  1
  C  C57  1  0.58798600  0.14545200  0.39961600  1
  C  C58  1  0.41310900  0.86710000  0.60171600  1
  C  C59  1  0.91201500  0.64545200  0.10038400  1
  C  C60  1  0.08689100  0.36709700  0.89828300  1
  C  C61  1  0.62406600  0.13678200  0.36386800  1
  C  C62  1  0.37690000  0.87557600  0.63731000  1
  C  C63  1  0.87593300  0.63678300  0.13613300  1
  C  C64  1  0.12309900  0.37557800  0.86269100  1
  C  C65  1  0.64830800  0.96265000  0.35479800  1
  C  C66  1  0.35253900  0.04957800  0.64624200  1
  C  C67  1  0.85169300  0.46264700  0.14520200  1
  C  C68  1  0.14746100  0.54957600  0.85375800  1
  C  C69  1  0.46531300  0.01973800  0.53532300  1
  C  C70  1  0.53583500  0.99292400  0.46608700  1
  C  C71  1  0.03468700  0.51974100  0.96467800  1
  C  C72  1  0.96416500  0.49292600  0.03391300  1
  C  C73  1  0.62900700  0.50258200  0.99193100  1
  C  C74  1  0.58940200  0.36862200  0.97711700  1
  C  C75  1  0.59734900  0.19488100  0.94983100  1
  C  C76  1  0.64496000  0.15367900  0.93798400  1
  C  C77  1  0.68489300  0.28482900  0.95428700  1
  C  C78  1  0.67701900  0.45841200  0.98168400  1
  C  C79  1  0.36217600  0.46487600  0.02225900  1
  C  C80  1  0.37794000  0.45512200  0.08303600  1
  C  C81  1  0.36588900  0.60508100  0.11780100  1
  C  C82  1  0.33769800  0.76378000  0.09199600  1
  C  C83  1  0.32081200  0.77108800  0.03145300  1
  C  C84  1  0.33264100  0.62082100  0.99667400  1
  C  C85  1  0.87099400  0.00258100  0.50807000  1
  C  C86  1  0.91059800  0.86862200  0.52288300  1
  C  C87  1  0.90265100  0.69488300  0.55016900  1
  C  C88  1  0.85504000  0.65367900  0.56201600  1
  C  C89  1  0.81510700  0.78482800  0.54571300  1
  C  C90  1  0.82298100  0.95841100  0.51831600  1
  C  C91  1  0.13782400  0.96487700  0.47774100  1
  C  C92  1  0.12206000  0.95512200  0.41696500  1
  C  C93  1  0.13411100  0.10508000  0.38219900  1
  C  C94  1  0.16230300  0.26378200  0.40800500  1
  C  C95  1  0.17918800  0.27108600  0.46854700  1
  C  C96  1  0.16735900  0.12082200  0.50332600  1
  N  N1  1  0.51331600  0.16628100  0.47357300  1
  N  N2  1  0.48783700  0.84639400  0.52784100  1
  N  N3  1  0.98668400  0.66627900  0.02642700  1
  N  N4  1  0.01216300  0.34639300  0.97215900  1
  N  N5  1  0.47872700  0.17957500  0.50751000  1
  N  N6  1  0.52242300  0.83309600  0.49390200  1
  N  N7  1  0.02127300  0.67957400  0.99249000  1
  N  N8  1  0.97757700  0.33309600  0.00609900  1
  Cl  Cl1  1  0.54720000  0.02480100  0.93127400  1
  Cl  Cl2  1  0.38564300  0.59227000  0.19485600  1
  Cl  Cl3  1  0.95280100  0.52479900  0.56872600  1
  Cl  Cl4  1  0.11435600  0.09227100  0.30514400  1
  O  O1  1  0.21102900  0.71939700  0.67952000  1
  O  O2  1  0.78940000  0.29270200  0.31996500  1
  O  O3  1  0.28897000  0.21939600  0.82048000  1
  O  O4  1  0.71060100  0.79270200  0.18003500  1
  O  O5  1  0.19186500  0.37226700  0.79105900  1
  O  O6  1  0.80773800  0.63967200  0.20839300  1
  O  O7  1  0.30813500  0.87226400  0.70894200  1
  O  O8  1  0.69226200  0.13967400  0.29160800  1
  O  O9  1  0.19355700  0.37328000  0.67374700  1
  O  O10  1  0.80708300  0.63864600  0.32595500  1
  O  O11  1  0.30644300  0.87327900  0.82625300  1
  O  O12  1  0.69291600  0.13865000  0.17404400  1
  O  O13  1  0.29149300  0.21816000  0.69544400  1
  O  O14  1  0.70913300  0.79387100  0.30531100  1
  O  O15  1  0.20850600  0.71816100  0.80455600  1
  O  O16  1  0.79086800  0.29387500  0.19469100  1
  O  O17  1  0.28241900  0.53974400  0.76099500  1
  O  O18  1  0.71745300  0.47224200  0.23913700  1
  O  O19  1  0.21758200  0.03974400  0.73900500  1
  O  O20  1  0.78254700  0.97224900  0.26086100  1
