# generated using pymatgen
data_Zn2H13C30N3O10
_symmetry_space_group_name_H-M   'P 1'
_cell_length_a   8.55678200
_cell_length_b   10.79653500
_cell_length_c   12.07616200
_cell_angle_alpha   99.75584700
_cell_angle_beta   90.11669700
_cell_angle_gamma   89.99164400
_symmetry_Int_Tables_number   1
_chemical_formula_structural   Zn2H13C30N3O10
_chemical_formula_sum   'Zn2 H13 C30 N3 O10'
_cell_volume   1099.50345860
_cell_formula_units_Z   1
loop_
 _symmetry_equiv_pos_site_id
 _symmetry_equiv_pos_as_xyz
  1  'x, y, z'
loop_
 _atom_site_type_symbol
 _atom_site_label
 _atom_site_symmetry_multiplicity
 _atom_site_fract_x
 _atom_site_fract_y
 _atom_site_fract_z
 _atom_site_occupancy
  Zn  Zn1  1  0.50279300  0.46030800  0.87711300  1
  Zn  Zn2  1  0.49847800  0.53626900  0.12690600  1
  H  H1  1  0.00700900  0.57458500  0.94527200  1
  H  H2  1  0.99967900  0.42578300  0.05034500  1
  H  H3  1  0.75754600  0.91068300  0.03969100  1
  H  H4  1  0.74467500  0.08838700  0.99988800  1
  H  H5  1  0.49253300  0.77070000  0.25587100  1
  H  H6  1  0.50021400  0.80644800  0.64252900  1
  H  H7  1  0.49377900  0.84599500  0.45786700  1
  H  H8  1  0.49918000  0.39748700  0.30482100  1
  H  H9  1  0.50646600  0.22913200  0.75579300  1
  H  H10  1  0.50150100  0.27495900  0.41756600  1
  H  H11  1  0.50544600  0.14172300  0.55638800  1
  H  H12  1  0.50729700  0.66861500  0.77362100  1
  H  H13  1  0.62168600  0.86006100  0.87066000  1
  C  C1  1  0.00505300  0.67573500  0.96218000  1
  C  C2  1  0.86532000  0.73682700  0.98409800  1
  C  C3  1  0.86486700  0.86590500  0.01121300  1
  C  C4  1  0.14404500  0.74075400  0.97494800  1
  C  C5  1  0.14295900  0.87204700  0.98926900  1
  C  C6  1  0.00046700  0.93466600  0.00268100  1
  C  C7  1  0.99698500  0.06538400  0.01095400  1
  C  C8  1  0.85745900  0.13234300  0.01321300  1
  C  C9  1  0.85972600  0.26136100  0.02830400  1
  C  C10  1  0.27891500  0.94225800  0.98612900  1
  C  C11  1  0.13655600  0.13044000  0.00982500  1
  C  C12  1  0.13757800  0.26016900  0.02245300  1
  C  C13  1  0.99923600  0.32469700  0.03834100  1
  C  C14  1  0.72321100  0.66169700  0.98987900  1
  C  C15  1  0.71732400  0.33311100  0.02010900  1
  C  C16  1  0.28088300  0.33304800  0.01521800  1
  C  C17  1  0.28368800  0.66447500  0.98387600  1
  C  C18  1  0.49457600  0.74608500  0.42651700  1
  C  C19  1  0.50604600  0.29215300  0.69523100  1
  C  C20  1  0.50513000  0.24251800  0.58285600  1
  C  C21  1  0.50285700  0.32015000  0.50388200  1
  C  C22  1  0.50194700  0.44960800  0.53773900  1
  C  C23  1  0.50392900  0.49661700  0.65313100  1
  C  C24  1  0.49890700  0.53339200  0.45986000  1
  C  C25  1  0.49765800  0.66128300  0.49950000  1
  C  C26  1  0.50034700  0.70632100  0.61225300  1
  C  C27  1  0.50390000  0.62556300  0.68789100  1
  C  C28  1  0.49749800  0.49469700  0.34325300  1
  C  C29  1  0.49360200  0.70391700  0.31316400  1
  C  C30  1  0.43188000  0.88441700  0.96652100  1
  N  N1  1  0.27220800  0.06794100  0.99617200  1
  N  N2  1  0.49531200  0.58008900  0.27339600  1
  N  N3  1  0.50560200  0.41735400  0.73008000  1
  O  O1  1  0.66910500  0.65096700  0.08936900  1
  O  O2  1  0.66919900  0.59464700  0.89671300  1
  O  O3  1  0.66850600  0.34379800  0.91892200  1
  O  O4  1  0.66138000  0.39972400  0.11264000  1
  O  O5  1  0.33309300  0.34476600  0.91494300  1
  O  O6  1  0.33450500  0.40027900  0.10839900  1
  O  O7  1  0.33144700  0.65162400  0.08473300  1
  O  O8  1  0.33915400  0.59649400  0.89236400  1
  O  O9  1  0.49560700  0.84017400  0.04105900  1
  O  O10  1  0.51514300  0.90050600  0.87109500  1
