# generated using pymatgen
data_Zn3H14C28O13
_symmetry_space_group_name_H-M   'P 1'
_cell_length_a   23.83090800
_cell_length_b   31.06540500
_cell_length_c   30.87748800
_cell_angle_alpha   90.00000000
_cell_angle_beta   90.00000000
_cell_angle_gamma   90.00000000
_symmetry_Int_Tables_number   1
_chemical_formula_structural   Zn3H14C28O13
_chemical_formula_sum   'Zn24 H112 C224 O104'
_cell_volume   22859.12337182
_cell_formula_units_Z   8
loop_
 _symmetry_equiv_pos_site_id
 _symmetry_equiv_pos_as_xyz
  1  'x, y, z'
loop_
 _atom_site_type_symbol
 _atom_site_label
 _atom_site_symmetry_multiplicity
 _atom_site_fract_x
 _atom_site_fract_y
 _atom_site_fract_z
 _atom_site_occupancy
  Zn  Zn1  1  0.50105700  0.78166900  0.28414300  1
  Zn  Zn2  1  0.49894300  0.78166900  0.71585700  1
  Zn  Zn3  1  0.00105700  0.28166900  0.28414300  1
  Zn  Zn4  1  0.99894300  0.28166900  0.71585700  1
  Zn  Zn5  1  0.00105700  0.78166900  0.78414300  1
  Zn  Zn6  1  0.99894300  0.78166900  0.21585700  1
  Zn  Zn7  1  0.50105700  0.28166900  0.78414300  1
  Zn  Zn8  1  0.49894300  0.28166900  0.21585700  1
  Zn  Zn9  1  0.49904200  0.71282800  0.21463700  1
  Zn  Zn10  1  0.50095800  0.71282800  0.78536300  1
  Zn  Zn11  1  0.99904200  0.21282800  0.21463700  1
  Zn  Zn12  1  0.00095800  0.21282800  0.78536300  1
  Zn  Zn13  1  0.99904200  0.71282800  0.71463700  1
  Zn  Zn14  1  0.00095800  0.71282800  0.28536300  1
  Zn  Zn15  1  0.49904200  0.21282800  0.71463700  1
  Zn  Zn16  1  0.50095800  0.21282800  0.28536300  1
  Zn  Zn17  1  0.43656900  0.99818500  0.99834300  1
  Zn  Zn18  1  0.56343100  0.99818500  0.00165700  1
  Zn  Zn19  1  0.93656900  0.49818500  0.99834300  1
  Zn  Zn20  1  0.06343100  0.49818500  0.00165700  1
  Zn  Zn21  1  0.93656900  0.99818500  0.49834300  1
  Zn  Zn22  1  0.06343100  0.99818500  0.50165700  1
  Zn  Zn23  1  0.43656900  0.49818500  0.49834300  1
  Zn  Zn24  1  0.56343100  0.49818500  0.50165700  1
  H  H1  1  0.44708300  0.61065900  0.30698600  1
  H  H2  1  0.55291800  0.61065900  0.69301400  1
  H  H3  1  0.94708300  0.11065900  0.30698600  1
  H  H4  1  0.05291700  0.11065900  0.69301400  1
  H  H5  1  0.94708300  0.61065900  0.80698600  1
  H  H6  1  0.05291700  0.61065900  0.19301400  1
  H  H7  1  0.44708300  0.11065900  0.80698600  1
  H  H8  1  0.55291800  0.11065900  0.19301400  1
  H  H9  1  0.44611500  0.55559300  0.36406000  1
  H  H10  1  0.55388600  0.55559300  0.63594000  1
  H  H11  1  0.94611500  0.05559300  0.36406000  1
  H  H12  1  0.05388500  0.05559300  0.63594000  1
  H  H13  1  0.94611500  0.55559300  0.86406000  1
  H  H14  1  0.05388500  0.55559300  0.13594000  1
  H  H15  1  0.44611500  0.05559300  0.86406000  1
  H  H16  1  0.55388600  0.05559300  0.13594000  1
  H  H17  1  0.54738600  0.66092800  0.46962000  1
  H  H18  1  0.38900900  0.63638100  0.55712600  1
  H  H19  1  0.61099100  0.63638100  0.44287400  1
  H  H20  1  0.45261400  0.66092900  0.53038000  1
  H  H21  1  0.04738600  0.16092900  0.46962000  1
  H  H22  1  0.88900900  0.13638100  0.55712600  1
  H  H23  1  0.11099100  0.13638100  0.44287400  1
  H  H24  1  0.95261400  0.16092900  0.53038000  1
  H  H25  1  0.04738600  0.66092900  0.96962000  1
  H  H26  1  0.88900900  0.63638100  0.05712600  1
  H  H27  1  0.11099100  0.63638100  0.94287400  1
  H  H28  1  0.95261400  0.66092900  0.03038000  1
  H  H29  1  0.54738600  0.16092800  0.96962000  1
  H  H30  1  0.38900900  0.13638100  0.05712600  1
  H  H31  1  0.61099100  0.13638100  0.94287400  1
  H  H32  1  0.45261400  0.16092900  0.03038000  1
  H  H33  1  0.54558400  0.71711400  0.41474300  1
  H  H34  1  0.39126000  0.69231600  0.61237600  1
  H  H35  1  0.60874000  0.69231600  0.38762400  1
  H  H36  1  0.45441600  0.71711400  0.58525700  1
  H  H37  1  0.04558400  0.21711400  0.41474300  1
  H  H38  1  0.89126000  0.19231600  0.61237600  1
  H  H39  1  0.10874000  0.19231600  0.38762400  1
  H  H40  1  0.95441600  0.21711400  0.58525700  1
  H  H41  1  0.04558400  0.71711400  0.91474300  1
  H  H42  1  0.89126000  0.69231600  0.11237600  1
  H  H43  1  0.10874000  0.69231600  0.88762400  1
  H  H44  1  0.95441600  0.71711400  0.08525700  1
  H  H45  1  0.54558400  0.21711400  0.91474300  1
  H  H46  1  0.39126000  0.19231600  0.11237600  1
  H  H47  1  0.60874000  0.19231600  0.88762400  1
  H  H48  1  0.45441600  0.21711400  0.08525700  1
  H  H49  1  0.40807300  0.89627700  0.09132300  1
  H  H50  1  0.59192700  0.89627600  0.90867700  1
  H  H51  1  0.90807300  0.39627600  0.09132300  1
  H  H52  1  0.09192700  0.39627600  0.90867700  1
  H  H53  1  0.90807300  0.89627600  0.59132300  1
  H  H54  1  0.09192700  0.89627600  0.40867700  1
  H  H55  1  0.40807300  0.39627700  0.59132300  1
  H  H56  1  0.59192700  0.39627600  0.40867700  1
  H  H57  1  0.62737300  0.88646200  0.08446200  1
  H  H58  1  0.38112700  0.92874300  0.87215700  1
  H  H59  1  0.61887400  0.92874300  0.12784200  1
  H  H60  1  0.37262700  0.88646300  0.91553700  1
  H  H61  1  0.12737300  0.38646200  0.08446300  1
  H  H62  1  0.88112600  0.42874300  0.87215800  1
  H  H63  1  0.11887300  0.42874300  0.12784300  1
  H  H64  1  0.87262700  0.38646200  0.91553800  1
  H  H65  1  0.12737300  0.88646200  0.58446300  1
  H  H66  1  0.88112600  0.92874300  0.37215800  1
  H  H67  1  0.11887300  0.92874300  0.62784300  1
  H  H68  1  0.87262700  0.88646200  0.41553800  1
  H  H69  1  0.62737300  0.38646200  0.58446200  1
  H  H70  1  0.38112700  0.42874300  0.37215700  1
  H  H71  1  0.61887400  0.42874300  0.62784200  1
  H  H72  1  0.37262700  0.38646300  0.41553700  1
  H  H73  1  0.62579900  0.83045100  0.13948900  1
  H  H74  1  0.38269100  0.87269400  0.81709300  1
  H  H75  1  0.61731000  0.87269400  0.18290700  1
  H  H76  1  0.37420100  0.83045200  0.86051100  1
  H  H77  1  0.12579900  0.33045100  0.13948900  1
  H  H78  1  0.88269100  0.37269400  0.81709300  1
  H  H79  1  0.11730900  0.37269400  0.18290700  1
  H  H80  1  0.87420100  0.33045100  0.86051100  1
  H  H81  1  0.12579900  0.83045100  0.63948900  1
  H  H82  1  0.88269100  0.87269400  0.31709300  1
  H  H83  1  0.11730900  0.87269400  0.68290700  1
  H  H84  1  0.87420100  0.83045100  0.36051100  1
  H  H85  1  0.62579900  0.33045100  0.63948900  1
  H  H86  1  0.38269100  0.37269400  0.31709300  1
  H  H87  1  0.61731000  0.37269400  0.68290700  1
  H  H88  1  0.37420100  0.33045200  0.36051100  1
  H  H89  1  0.35212500  0.89669900  0.15603800  1
  H  H90  1  0.32249800  0.85461100  0.18893400  1
  H  H91  1  0.31011400  0.85473900  0.13117200  1
  H  H92  1  0.64787600  0.89669800  0.84396300  1
  H  H93  1  0.67750200  0.85461100  0.81106600  1
  H  H94  1  0.68988600  0.85473900  0.86882900  1
  H  H95  1  0.85212400  0.39669800  0.15603800  1
  H  H96  1  0.82249800  0.35461100  0.18893400  1
  H  H97  1  0.81011400  0.35473900  0.13117100  1
  H  H98  1  0.14787500  0.39669900  0.84396200  1
  H  H99  1  0.17750200  0.35461100  0.81106600  1
  H  H100  1  0.18988600  0.35473900  0.86882800  1
  H  H101  1  0.85212400  0.89669800  0.65603800  1
  H  H102  1  0.82249800  0.85461100  0.68893400  1
  H  H103  1  0.81011400  0.85473900  0.63117100  1
  H  H104  1  0.14787500  0.89669900  0.34396200  1
  H  H105  1  0.17750200  0.85461100  0.31106600  1
  H  H106  1  0.18988600  0.85473900  0.36882800  1
  H  H107  1  0.35212500  0.39669900  0.65603800  1
  H  H108  1  0.32249800  0.35461100  0.68893400  1
  H  H109  1  0.31011400  0.35473900  0.63117200  1
  H  H110  1  0.64787600  0.39669800  0.34396300  1
  H  H111  1  0.67750200  0.35461100  0.31106600  1
  H  H112  1  0.68988600  0.35473900  0.36882900  1
  C  C1  1  0.50118700  0.68704900  0.30855300  1
  C  C2  1  0.49881300  0.68704900  0.69144700  1
  C  C3  1  0.00118700  0.18704900  0.30855300  1
  C  C4  1  0.99881300  0.18704900  0.69144700  1
  C  C5  1  0.00118700  0.68704900  0.80855300  1
  C  C6  1  0.99881300  0.68704900  0.19144700  1
  C  C7  1  0.50118700  0.18704900  0.80855300  1
  C  C8  1  0.49881300  0.18704900  0.19144700  1
  C  C9  1  0.39035600  0.74693500  0.25001100  1
  C  C10  1  0.39028800  0.74757100  0.75117900  1
  C  C11  1  0.60971100  0.74757100  0.24882100  1
  C  C12  1  0.60964400  0.74693500  0.74998900  1
  C  C13  1  0.89035600  0.24693500  0.25001100  1
  C  C14  1  0.89028800  0.24757100  0.75117900  1
  C  C15  1  0.10971100  0.24757100  0.24882100  1
  C  C16  1  0.10964400  0.24693500  0.74998900  1
  C  C17  1  0.89035600  0.74693500  0.75001100  1
  C  C18  1  0.89028800  0.74757100  0.25117900  1
  C  C19  1  0.10971100  0.74757100  0.74882100  1
  C  C20  1  0.10964400  0.74693500  0.24998900  1
  C  C21  1  0.39035600  0.24693500  0.75001100  1
  C  C22  1  0.39028800  0.24757100  0.25117900  1
  C  C23  1  0.60971100  0.24757100  0.74882100  1
  C  C24  1  0.60964400  0.24693500  0.24998900  1
  C  C25  1  0.49856800  0.80738600  0.19021400  1
  C  C26  1  0.50143200  0.80738600  0.80978600  1
  C  C27  1  0.99856800  0.30738600  0.19021400  1
  C  C28  1  0.00143200  0.30738600  0.80978600  1
  C  C29  1  0.99856800  0.80738600  0.69021400  1
  C  C30  1  0.00143200  0.80738600  0.30978600  1
  C  C31  1  0.49856800  0.30738600  0.69021400  1
  C  C32  1  0.50143200  0.30738600  0.30978600  1
  C  C33  1  0.33017500  0.74774800  0.25029400  1
  C  C34  1  0.33013500  0.74669700  0.75116900  1
  C  C35  1  0.66986500  0.74669700  0.24883000  1
  C  C36  1  0.66982500  0.74774800  0.74970600  1
  C  C37  1  0.83017500  0.24774800  0.25029400  1
  C  C38  1  0.83013500  0.24669700  0.75116900  1
  C  C39  1  0.16986500  0.24669700  0.24883000  1
  C  C40  1  0.16982500  0.24774800  0.74970600  1
  C  C41  1  0.83017500  0.74774800  0.75029400  1
  C  C42  1  0.83013500  0.74669700  0.25116900  1
  C  C43  1  0.16986500  0.74669700  0.74883000  1
  C  C44  1  0.16982500  0.74774800  0.24970600  1
  C  C45  1  0.33017500  0.24774800  0.75029400  1
  C  C46  1  0.33013500  0.24669700  0.25116900  1
  C  C47  1  0.66986500  0.24669700  0.74883000  1
  C  C48  1  0.66982500  0.24774800  0.24970600  1
  C  C49  1  0.27962000  0.74812000  0.25015400  1
  C  C50  1  0.27960200  0.74634100  0.75051800  1
  C  C51  1  0.72039800  0.74634100  0.24948200  1
  C  C52  1  0.72038000  0.74812000  0.74984500  1
  C  C53  1  0.77962000  0.24812000  0.25015500  1
  C  C54  1  0.77960200  0.24634100  0.75051800  1
  C  C55  1  0.22039800  0.24634100  0.24948200  1
  C  C56  1  0.22038000  0.24812000  0.74984500  1
  C  C57  1  0.77962000  0.74812000  0.75015500  1
  C  C58  1  0.77960200  0.74634100  0.25051800  1
  C  C59  1  0.22039800  0.74634100  0.74948200  1
  C  C60  1  0.22038000  0.74812000  0.24984500  1
  C  C61  1  0.27962000  0.24812000  0.75015400  1
  C  C62  1  0.27960200  0.24634100  0.25051800  1
  C  C63  1  0.72039800  0.24634100  0.74948200  1
  C  C64  1  0.72038000  0.24812000  0.24984500  1
  C  C65  1  0.53053800  0.65797900  0.37970100  1
  C  C66  1  0.46946300  0.65797900  0.62029800  1
  C  C67  1  0.03053700  0.15797900  0.37970100  1
  C  C68  1  0.96946200  0.15797900  0.62029900  1
  C  C69  1  0.03053700  0.65797900  0.87970100  1
  C  C70  1  0.96946200  0.65797900  0.12029900  1
  C  C71  1  0.53053800  0.15797900  0.87970100  1
  C  C72  1  0.46946300  0.15797900  0.12029800  1
  C  C73  1  0.50119700  0.65367200  0.34175800  1
  C  C74  1  0.49880300  0.65367200  0.65824200  1
  C  C75  1  0.00119700  0.15367200  0.34175800  1
  C  C76  1  0.99880300  0.15367200  0.65824200  1
  C  C77  1  0.00119700  0.65367200  0.84175800  1
  C  C78  1  0.99880300  0.65367200  0.15824200  1
  C  C79  1  0.50119700  0.15367200  0.84175800  1
  C  C80  1  0.49880300  0.15367200  0.15824200  1
  C  C81  1  0.47137100  0.61572100  0.33610500  1
  C  C82  1  0.52863000  0.61572100  0.66389500  1
  C  C83  1  0.97137000  0.11572100  0.33610500  1
  C  C84  1  0.02862900  0.11572100  0.66389500  1
  C  C85  1  0.97137000  0.61572100  0.83610500  1
  C  C86  1  0.02862900  0.61572100  0.16389500  1
  C  C87  1  0.47137100  0.11572100  0.83610500  1
  C  C88  1  0.52863000  0.11572100  0.16389500  1
  C  C89  1  0.47061900  0.58453400  0.36854100  1
  C  C90  1  0.52938100  0.58453400  0.63145900  1
  C  C91  1  0.97061900  0.08453400  0.36854100  1
  C  C92  1  0.02938100  0.08453400  0.63145900  1
  C  C93  1  0.97061900  0.58453400  0.86854100  1
  C  C94  1  0.02938100  0.58453400  0.13145900  1
  C  C95  1  0.47061900  0.08453400  0.86854100  1
  C  C96  1  0.52938100  0.08453400  0.13145900  1
  C  C97  1  0.50207800  0.58991000  0.40592800  1
  C  C98  1  0.49792200  0.58991000  0.59407200  1
  C  C99  1  0.00207800  0.08991000  0.40592800  1
  C  C100  1  0.99792200  0.08991000  0.59407200  1
  C  C101  1  0.00207800  0.58991000  0.90592800  1
  C  C102  1  0.99792200  0.58991000  0.09407200  1
  C  C103  1  0.50207800  0.08991000  0.90592800  1
  C  C104  1  0.49792200  0.08991000  0.09407200  1
  C  C105  1  0.53214700  0.62728200  0.40953500  1
  C  C106  1  0.46785300  0.62728200  0.59046500  1
  C  C107  1  0.03214600  0.12728200  0.40953500  1
  C  C108  1  0.96785300  0.12728200  0.59046500  1
  C  C109  1  0.03214600  0.62728200  0.90953500  1
  C  C110  1  0.96785300  0.62728200  0.09046500  1
  C  C111  1  0.53214700  0.12728200  0.90953500  1
  C  C112  1  0.46785300  0.12728200  0.09046500  1
  C  C113  1  0.56917800  0.65162800  0.43929100  1
  C  C114  1  0.43082200  0.65162800  0.56070900  1
  C  C115  1  0.06917800  0.15162800  0.43929100  1
  C  C116  1  0.93082200  0.15162800  0.56070900  1
  C  C117  1  0.06917800  0.65162800  0.93929100  1
  C  C118  1  0.93082200  0.65162800  0.06070900  1
  C  C119  1  0.56917800  0.15162800  0.93929100  1
  C  C120  1  0.43082200  0.15162800  0.06070900  1
  C  C121  1  0.56777600  0.68761800  0.40399000  1
  C  C122  1  0.43222400  0.68761800  0.59601000  1
  C  C123  1  0.06777600  0.18761800  0.40399000  1
  C  C124  1  0.93222400  0.18761800  0.59601000  1
  C  C125  1  0.06777600  0.68761800  0.90399000  1
  C  C126  1  0.93222400  0.68761800  0.09601000  1
  C  C127  1  0.56777600  0.18761800  0.90399000  1
  C  C128  1  0.43222400  0.18761800  0.09601000  1
  C  C129  1  0.54424400  0.86054800  0.14335200  1
  C  C130  1  0.45575600  0.86054800  0.85664800  1
  C  C131  1  0.04424400  0.36054800  0.14335200  1
  C  C132  1  0.95575600  0.36054800  0.85664800  1
  C  C133  1  0.04424400  0.86054800  0.64335200  1
  C  C134  1  0.95575600  0.86054800  0.35664800  1
  C  C135  1  0.54424400  0.36054800  0.64335200  1
  C  C136  1  0.45575600  0.36054800  0.35664800  1
  C  C137  1  0.49624000  0.84043000  0.15671900  1
  C  C138  1  0.50376000  0.84043000  0.84328100  1
  C  C139  1  0.99624000  0.34043000  0.15671900  1
  C  C140  1  0.00376000  0.34043000  0.84328100  1
  C  C141  1  0.99624000  0.84043000  0.65671900  1
  C  C142  1  0.00376000  0.84043000  0.34328100  1
  C  C143  1  0.49624000  0.34043000  0.65671900  1
  C  C144  1  0.50376000  0.34043000  0.34328100  1
  C  C145  1  0.44607600  0.85417100  0.13797600  1
  C  C146  1  0.55392400  0.85417000  0.86202400  1
  C  C147  1  0.94607600  0.35417100  0.13797600  1
  C  C148  1  0.05392400  0.35417100  0.86202400  1
  C  C149  1  0.94607600  0.85417100  0.63797600  1
  C  C150  1  0.05392400  0.85417100  0.36202400  1
  C  C151  1  0.44607600  0.35417100  0.63797600  1
  C  C152  1  0.55392400  0.35417000  0.36202400  1
  C  C153  1  0.44691200  0.88658600  0.10648000  1
  C  C154  1  0.55308800  0.88658600  0.89352100  1
  C  C155  1  0.94691200  0.38658600  0.10648000  1
  C  C156  1  0.05308800  0.38658600  0.89352000  1
  C  C157  1  0.94691200  0.88658600  0.60648000  1
  C  C158  1  0.05308800  0.88658600  0.39352000  1
  C  C159  1  0.44691200  0.38658600  0.60648000  1
  C  C160  1  0.55308800  0.38658600  0.39352100  1
  C  C161  1  0.49709800  0.90538500  0.09346600  1
  C  C162  1  0.50290200  0.90538500  0.90653400  1
  C  C163  1  0.99709800  0.40538500  0.09346600  1
  C  C164  1  0.00290200  0.40538500  0.90653400  1
  C  C165  1  0.99709800  0.90538500  0.59346600  1
  C  C166  1  0.00290200  0.90538500  0.40653400  1
  C  C167  1  0.49709800  0.40538500  0.59346600  1
  C  C168  1  0.50290200  0.40538500  0.40653400  1
  C  C169  1  0.54492200  0.89103200  0.11338700  1
  C  C170  1  0.45507800  0.89103200  0.88661300  1
  C  C171  1  0.04492200  0.39103200  0.11338700  1
  C  C172  1  0.95507700  0.39103200  0.88661300  1
  C  C173  1  0.04492200  0.89103200  0.61338700  1
  C  C174  1  0.95507700  0.89103200  0.38661300  1
  C  C175  1  0.54492200  0.39103200  0.61338700  1
  C  C176  1  0.45507800  0.39103200  0.38661300  1
  C  C177  1  0.60669500  0.89677700  0.11491500  1
  C  C178  1  0.39330500  0.89677700  0.88508500  1
  C  C179  1  0.10669500  0.39677700  0.11491500  1
  C  C180  1  0.89330500  0.39677700  0.88508500  1
  C  C181  1  0.10669500  0.89677700  0.61491500  1
  C  C182  1  0.89330500  0.89677700  0.38508500  1
  C  C183  1  0.60669500  0.39677700  0.61491500  1
  C  C184  1  0.39330500  0.39677700  0.38508500  1
  C  C185  1  0.60574300  0.86084000  0.15023000  1
  C  C186  1  0.39425700  0.86084000  0.84977000  1
  C  C187  1  0.10574300  0.36084000  0.15023000  1
  C  C188  1  0.89425700  0.36084000  0.84977000  1
  C  C189  1  0.10574300  0.86084000  0.65023000  1
  C  C190  1  0.89425700  0.86084000  0.34977000  1
  C  C191  1  0.60574300  0.36084000  0.65023000  1
  C  C192  1  0.39425700  0.36084000  0.34977000  1
  C  C193  1  0.50111700  0.93863500  0.94003000  1
  C  C194  1  0.49888300  0.93863600  0.05997000  1
  C  C195  1  0.00111700  0.43863600  0.94003000  1
  C  C196  1  0.99888300  0.43863600  0.05997000  1
  C  C197  1  0.00111700  0.93863600  0.44003000  1
  C  C198  1  0.99888300  0.93863600  0.55997000  1
  C  C199  1  0.50111700  0.43863500  0.44003000  1
  C  C200  1  0.49888300  0.43863600  0.55997000  1
  C  C201  1  0.50099600  0.55770600  0.44017600  1
  C  C202  1  0.49900400  0.55770600  0.55982400  1
  C  C203  1  0.00099600  0.05770600  0.44017600  1
  C  C204  1  0.99900400  0.05770600  0.55982400  1
  C  C205  1  0.00099600  0.55770600  0.94017600  1
  C  C206  1  0.99900400  0.55770600  0.05982400  1
  C  C207  1  0.50099600  0.05770600  0.94017600  1
  C  C208  1  0.49900400  0.05770600  0.05982400  1
  C  C209  1  0.39209800  0.83480300  0.15056600  1
  C  C210  1  0.34116200  0.86203700  0.15689100  1
  C  C211  1  0.60790200  0.83480200  0.84943500  1
  C  C212  1  0.65883800  0.86203600  0.84310900  1
  C  C213  1  0.89209800  0.33480200  0.15056500  1
  C  C214  1  0.84116200  0.36203700  0.15689100  1
  C  C215  1  0.10790200  0.33480200  0.84943400  1
  C  C216  1  0.15883800  0.36203700  0.84310900  1
  C  C217  1  0.89209800  0.83480200  0.65056500  1
  C  C218  1  0.84116200  0.86203700  0.65689100  1
  C  C219  1  0.10790200  0.83480200  0.34943400  1
  C  C220  1  0.15883800  0.86203700  0.34310900  1
  C  C221  1  0.39209800  0.33480300  0.65056600  1
  C  C222  1  0.34116200  0.36203700  0.65689100  1
  C  C223  1  0.60790200  0.33480200  0.34943500  1
  C  C224  1  0.65883800  0.36203600  0.34310900  1
  O  O1  1  0.50358200  0.72750000  0.32072900  1
  O  O2  1  0.49641800  0.72750000  0.67927100  1
  O  O3  1  0.00358200  0.22750000  0.32072900  1
  O  O4  1  0.99641800  0.22750000  0.67927100  1
  O  O5  1  0.00358200  0.72750000  0.82072900  1
  O  O6  1  0.99641800  0.72750000  0.17927100  1
  O  O7  1  0.50358200  0.22750000  0.82072900  1
  O  O8  1  0.49641800  0.22750000  0.17927100  1
  O  O9  1  0.49809900  0.67489600  0.26796300  1
  O  O10  1  0.50190100  0.67489600  0.73203700  1
  O  O11  1  0.99809900  0.17489600  0.26796300  1
  O  O12  1  0.00190100  0.17489600  0.73203700  1
  O  O13  1  0.99809900  0.67489600  0.76796300  1
  O  O14  1  0.00190100  0.67489600  0.23203700  1
  O  O15  1  0.49809900  0.17489600  0.76796300  1
  O  O16  1  0.50190100  0.17489600  0.23203700  1
  O  O17  1  0.41741100  0.77354100  0.27558900  1
  O  O18  1  0.41532100  0.77490400  0.72528700  1
  O  O19  1  0.58467900  0.77490400  0.27471300  1
  O  O20  1  0.58258800  0.77354100  0.72441100  1
  O  O21  1  0.91741100  0.27354100  0.27558900  1
  O  O22  1  0.91532100  0.27490400  0.72528700  1
  O  O23  1  0.08467900  0.27490400  0.27471300  1
  O  O24  1  0.08258800  0.27354100  0.72441100  1
  O  O25  1  0.91741100  0.77354100  0.77558900  1
  O  O26  1  0.91532100  0.77490400  0.22528700  1
  O  O27  1  0.08467900  0.77490400  0.77471300  1
  O  O28  1  0.08258800  0.77354100  0.22441100  1
  O  O29  1  0.41741100  0.27354100  0.77558900  1
  O  O30  1  0.41532100  0.27490400  0.22528700  1
  O  O31  1  0.58467900  0.27490400  0.77471300  1
  O  O32  1  0.58258800  0.27354100  0.22441100  1
  O  O33  1  0.41539000  0.71989200  0.22376500  1
  O  O34  1  0.41731900  0.72067300  0.77647200  1
  O  O35  1  0.58268100  0.72067300  0.22352800  1
  O  O36  1  0.58461000  0.71989200  0.77623500  1
  O  O37  1  0.91539000  0.21989200  0.22376500  1
  O  O38  1  0.91731900  0.22067300  0.77647200  1
  O  O39  1  0.08268100  0.22067300  0.22352800  1
  O  O40  1  0.08461000  0.21989200  0.77623500  1
  O  O41  1  0.91539000  0.71989200  0.72376500  1
  O  O42  1  0.91731900  0.72067300  0.27647200  1
  O  O43  1  0.08268100  0.72067300  0.72352800  1
  O  O44  1  0.08461000  0.71989200  0.27623500  1
  O  O45  1  0.41539000  0.21989200  0.72376500  1
  O  O46  1  0.41731900  0.22067300  0.27647200  1
  O  O47  1  0.58268100  0.22067300  0.72352800  1
  O  O48  1  0.58461000  0.21989200  0.27623500  1
  O  O49  1  0.50135500  0.81966600  0.23081700  1
  O  O50  1  0.49864500  0.81966500  0.76918300  1
  O  O51  1  0.00135500  0.31966600  0.23081700  1
  O  O52  1  0.99864500  0.31966600  0.76918300  1
  O  O53  1  0.00135500  0.81966600  0.73081700  1
  O  O54  1  0.99864500  0.81966600  0.26918300  1
  O  O55  1  0.50135500  0.31966600  0.73081700  1
  O  O56  1  0.49864500  0.31966500  0.26918300  1
  O  O57  1  0.49714800  0.76694000  0.17806200  1
  O  O58  1  0.50285200  0.76694000  0.82193800  1
  O  O59  1  0.99714800  0.26694000  0.17806200  1
  O  O60  1  0.00285200  0.26694000  0.82193800  1
  O  O61  1  0.99714800  0.76694000  0.67806200  1
  O  O62  1  0.00285200  0.76694000  0.32193800  1
  O  O63  1  0.49714800  0.26694000  0.67806200  1
  O  O64  1  0.50285200  0.26694000  0.32193800  1
  O  O65  1  0.45201600  0.95324000  0.95233500  1
  O  O66  1  0.45130400  0.95240700  0.04367300  1
  O  O67  1  0.54869600  0.95240700  0.95632600  1
  O  O68  1  0.54798400  0.95324000  0.04766500  1
  O  O69  1  0.95201600  0.45324000  0.95233500  1
  O  O70  1  0.95130400  0.45240700  0.04367300  1
  O  O71  1  0.04869600  0.45240700  0.95632600  1
  O  O72  1  0.04798400  0.45324000  0.04766500  1
  O  O73  1  0.95201600  0.95324000  0.45233500  1
  O  O74  1  0.95130400  0.95240700  0.54367300  1
  O  O75  1  0.04869600  0.95240700  0.45632600  1
  O  O76  1  0.04798400  0.95324000  0.54766500  1
  O  O77  1  0.45201600  0.45324000  0.45233500  1
  O  O78  1  0.45130400  0.45240700  0.54367300  1
  O  O79  1  0.54869600  0.45240700  0.45632600  1
  O  O80  1  0.54798400  0.45324000  0.54766500  1
  O  O81  1  0.45200900  0.54240500  0.45164900  1
  O  O82  1  0.45129300  0.54472600  0.54298600  1
  O  O83  1  0.54870700  0.54472600  0.45701400  1
  O  O84  1  0.54799100  0.54240500  0.54835100  1
  O  O85  1  0.95200900  0.04240500  0.45164900  1
  O  O86  1  0.95129300  0.04472600  0.54298600  1
  O  O87  1  0.04870700  0.04472600  0.45701400  1
  O  O88  1  0.04799100  0.04240500  0.54835100  1
  O  O89  1  0.95200900  0.54240500  0.95164900  1
  O  O90  1  0.95129300  0.54472600  0.04298600  1
  O  O91  1  0.04870700  0.54472600  0.95701400  1
  O  O92  1  0.04799100  0.54240500  0.04835100  1
  O  O93  1  0.45200900  0.04240500  0.95164900  1
  O  O94  1  0.45129300  0.04472600  0.04298600  1
  O  O95  1  0.54870700  0.04472600  0.95701400  1
  O  O96  1  0.54799100  0.04240500  0.04835100  1
  O  O97  1  0.38806400  0.79594900  0.15507000  1
  O  O98  1  0.61193600  0.79594900  0.84493000  1
  O  O99  1  0.88806400  0.29594900  0.15507000  1
  O  O100  1  0.11193600  0.29594900  0.84493000  1
  O  O101  1  0.88806400  0.79594900  0.65507000  1
  O  O102  1  0.11193600  0.79594900  0.34493000  1
  O  O103  1  0.38806400  0.29594900  0.65507000  1
  O  O104  1  0.61193600  0.29594900  0.34493000  1
