# generated using pymatgen
data_ZnH9C28N(ClO)4
_symmetry_space_group_name_H-M   'P 1'
_cell_length_a   17.60574100
_cell_length_b   8.55225100
_cell_length_c   19.35278700
_cell_angle_alpha   90.00000000
_cell_angle_beta   91.03657500
_cell_angle_gamma   90.00000000
_symmetry_Int_Tables_number   1
_chemical_formula_structural   ZnH9C28N(ClO)4
_chemical_formula_sum   'Zn2 H18 C56 N2 Cl8 O8'
_cell_volume   2913.44742913
_cell_formula_units_Z   2
loop_
 _symmetry_equiv_pos_site_id
 _symmetry_equiv_pos_as_xyz
  1  'x, y, z'
loop_
 _atom_site_type_symbol
 _atom_site_label
 _atom_site_symmetry_multiplicity
 _atom_site_fract_x
 _atom_site_fract_y
 _atom_site_fract_z
 _atom_site_occupancy
  Zn  Zn1  1  0.91529600  0.50047500  0.50322000  1
  Zn  Zn2  1  0.08497300  0.49911900  0.49674300  1
  H  H1  1  0.03168200  0.99962300  0.54851200  1
  H  H2  1  0.96917300  0.99967600  0.45160800  1
  H  H3  1  0.98107400  0.24996100  0.73015500  1
  H  H4  1  0.00659300  0.74813600  0.26789000  1
  H  H5  1  0.01667700  0.25081800  0.26945500  1
  H  H6  1  0.99484500  0.74758100  0.73214200  1
  H  H7  1  0.05049100  0.77368200  0.04475100  1
  H  H8  1  0.04222000  0.23257300  0.95304600  1
  H  H9  1  0.95106100  0.77152500  0.95520700  1
  H  H10  1  0.95445700  0.23053900  0.04689700  1
  H  H11  1  0.06065800  0.77561900  0.16974100  1
  H  H12  1  0.04098600  0.23072300  0.82845100  1
  H  H13  1  0.94107500  0.77285800  0.83027500  1
  H  H14  1  0.95582100  0.22870000  0.17153600  1
  H  H15  1  0.68637700  0.48245500  0.33239400  1
  H  H16  1  0.31385600  0.51809700  0.66754900  1
  H  H17  1  0.57334000  0.47759500  0.26963800  1
  H  H18  1  0.42684100  0.52263000  0.73031300  1
  C  C1  1  0.00671200  0.13863400  0.63573700  1
  C  C2  1  0.99293900  0.86077500  0.36401600  1
  C  C3  1  0.99238600  0.13908700  0.36410600  1
  C  C4  1  0.00846300  0.86035500  0.63609900  1
  C  C5  1  0.99195300  0.13933000  0.70542800  1
  C  C6  1  0.00407700  0.85970800  0.29364300  1
  C  C7  1  0.00672800  0.13998100  0.29434700  1
  C  C8  1  0.99682800  0.85919400  0.70638800  1
  C  C9  1  0.99212500  0.99976700  0.74237600  1
  C  C10  1  0.00748800  0.00030100  0.25753600  1
  C  C11  1  0.01893500  0.99961600  0.60258800  1
  C  C12  1  0.98159000  0.99982100  0.39746100  1
  C  C13  1  0.03019300  0.87400100  0.07292900  1
  C  C14  1  0.01959000  0.13186800  0.92593700  1
  C  C15  1  0.97032000  0.87273200  0.92702900  1
  C  C16  1  0.97816500  0.13087400  0.07401100  1
  C  C17  1  0.03524600  0.87522300  0.14419200  1
  C  C18  1  0.01768600  0.13095900  0.85474700  1
  C  C19  1  0.96534500  0.87369600  0.85576400  1
  C  C20  1  0.98013900  0.13003700  0.14519800  1
  C  C21  1  0.00912500  0.00253200  0.18124400  1
  C  C22  1  0.99015100  0.00213800  0.81868000  1
  C  C23  1  0.00192500  0.00201600  0.03769700  1
  C  C24  1  0.99720700  0.00195100  0.96225700  1
  C  C25  1  0.00573500  0.71815800  0.59430500  1
  C  C26  1  0.99473900  0.28121200  0.40584300  1
  C  C27  1  0.99561700  0.71855300  0.40579600  1
  C  C28  1  0.00444200  0.28077300  0.59397600  1
  C  C29  1  0.77617300  0.49922000  0.44459900  1
  C  C30  1  0.22408800  0.50061900  0.55536400  1
  C  C31  1  0.77769400  0.50966000  0.56571300  1
  C  C32  1  0.22258600  0.49008200  0.43426000  1
  C  C33  1  0.65779800  0.48824100  0.38109900  1
  C  C34  1  0.34244800  0.51210200  0.61886000  1
  C  C35  1  0.69747100  0.49661000  0.44331100  1
  C  C36  1  0.30278400  0.50355000  0.55665700  1
  C  C37  1  0.65802900  0.50404600  0.50408500  1
  C  C38  1  0.34223400  0.49601200  0.49589700  1
  C  C39  1  0.69789300  0.51611300  0.56607500  1
  C  C40  1  0.30237700  0.48369400  0.43392200  1
  C  C41  1  0.65712700  0.53532500  0.62683200  1
  C  C42  1  0.34313200  0.46434000  0.37318500  1
  C  C43  1  0.54194600  0.47837900  0.31712200  1
  C  C44  1  0.45827400  0.52171700  0.68284700  1
  C  C45  1  0.57976100  0.48581700  0.37964900  1
  C  C46  1  0.42048400  0.51437200  0.62031600  1
  C  C47  1  0.53983100  0.49302800  0.43983000  1
  C  C48  1  0.46042700  0.50711000  0.56014700  1
  C  C49  1  0.46402200  0.47465900  0.31361900  1
  C  C50  1  0.53619800  0.52520200  0.68637800  1
  C  C51  1  0.42224800  0.47663400  0.37428000  1
  C  C52  1  0.57800000  0.52325100  0.62572200  1
  C  C53  1  0.57911400  0.50303600  0.50233800  1
  C  C54  1  0.42114800  0.49708400  0.49764300  1
  C  C55  1  0.53926200  0.51015200  0.56284500  1
  C  C56  1  0.46099700  0.48991800  0.43714100  1
  N  N1  1  0.81540500  0.50201400  0.50535100  1
  N  N2  1  0.18486100  0.49765200  0.49461300  1
  Cl  Cl1  1  0.83126900  0.49766800  0.64289800  1
  Cl  Cl2  1  0.16904900  0.50217100  0.35705400  1
  Cl  Cl3  1  0.82485400  0.49899500  0.36612000  1
  Cl  Cl4  1  0.17540700  0.50012800  0.63383600  1
  Cl  Cl5  1  0.70307900  0.60554800  0.70190100  1
  Cl  Cl6  1  0.29720600  0.39340400  0.29822900  1
  Cl  Cl7  1  0.42362700  0.48373500  0.23014500  1
  Cl  Cl8  1  0.57650400  0.51596100  0.76988900  1
  O  O1  1  0.06928500  0.66869700  0.56746900  1
  O  O2  1  0.93103000  0.33068500  0.43257200  1
  O  O3  1  0.93196900  0.66961900  0.43252400  1
  O  O4  1  0.06825200  0.32973900  0.56735600  1
  O  O5  1  0.93855300  0.66359000  0.57584400  1
  O  O6  1  0.06179900  0.33616800  0.42408000  1
  O  O7  1  0.06265000  0.66324600  0.42431200  1
  O  O8  1  0.93753600  0.33649600  0.57568300  1
