# generated using pymatgen
data_ZnH18C26NO5
_symmetry_space_group_name_H-M   'P 1'
_cell_length_a   9.29922900
_cell_length_b   17.37342300
_cell_length_c   17.39635700
_cell_angle_alpha   90.22506600
_cell_angle_beta   86.41648500
_cell_angle_gamma   93.58994500
_symmetry_Int_Tables_number   1
_chemical_formula_structural   ZnH18C26NO5
_chemical_formula_sum   'Zn2 H36 C52 N2 O10'
_cell_volume   2799.54610665
_cell_formula_units_Z   2
loop_
 _symmetry_equiv_pos_site_id
 _symmetry_equiv_pos_as_xyz
  1  'x, y, z'
loop_
 _atom_site_type_symbol
 _atom_site_label
 _atom_site_symmetry_multiplicity
 _atom_site_fract_x
 _atom_site_fract_y
 _atom_site_fract_z
 _atom_site_occupancy
  Zn  Zn1  1  0.33819800  0.49172300  0.49527700  1
  Zn  Zn2  1  0.66216100  0.50820800  0.50450700  1
  H  H1  1  0.71861500  0.25687200  0.51343100  1
  H  H2  1  0.28174300  0.74305900  0.48635200  1
  H  H3  1  0.70689200  0.74426200  0.56735600  1
  H  H4  1  0.29346600  0.25567000  0.43242900  1
  H  H5  1  0.61054000  0.00502500  0.56166400  1
  H  H6  1  0.38981700  0.99490600  0.43812000  1
  H  H7  1  0.27831900  0.11630600  0.43162000  1
  H  H8  1  0.72203800  0.88362600  0.56816500  1
  H  H9  1  0.29675700  0.88315400  0.48792300  1
  H  H10  1  0.70360100  0.11677800  0.51186000  1
  H  H11  1  0.63555500  0.42100700  0.74291000  1
  H  H12  1  0.36480100  0.57892200  0.25687400  1
  H  H13  1  0.72823300  0.44076700  0.25485000  1
  H  H14  1  0.27212800  0.55916600  0.74493400  1
  H  H15  1  0.65851600  0.47963500  0.99377500  1
  H  H16  1  0.34184200  0.52029600  0.00600900  1
  H  H17  1  0.26832100  0.56624500  0.88518000  1
  H  H18  1  0.73204000  0.43368800  0.11460400  1
  H  H19  1  0.36783900  0.57301700  0.11827300  1
  H  H20  1  0.63251600  0.42691200  0.88151200  1
  H  H21  1  0.57446800  0.65447700  0.34106500  1
  H  H22  1  0.42588800  0.34545400  0.65871900  1
  H  H23  1  0.80299200  0.56651500  0.30491400  1
  H  H24  1  0.19736600  0.43341700  0.69487000  1
  H  H25  1  0.07633200  0.67377400  0.39548900  1
  H  H26  1  0.92402500  0.32615900  0.60429500  1
  H  H27  1  0.98798300  0.77179700  0.31631100  1
  H  H28  1  0.01237200  0.22813600  0.68347300  1
  H  H29  1  0.01730200  0.63749900  0.52682600  1
  H  H30  1  0.98305500  0.36243400  0.47295800  1
  H  H31  1  0.83491800  0.88267700  0.31539000  1
  H  H32  1  0.71685500  0.89705000  0.23892400  1
  H  H33  1  0.87765800  0.84552900  0.21931700  1
  H  H34  1  0.16543800  0.11725500  0.68439200  1
  H  H35  1  0.12269500  0.15440200  0.78046600  1
  H  H36  1  0.28350000  0.10288200  0.76086000  1
  C  C1  1  0.46001800  0.48582300  0.64987100  1
  C  C2  1  0.54034000  0.51410900  0.34991300  1
  C  C3  1  0.50554100  0.35039500  0.48182000  1
  C  C4  1  0.49481700  0.64953600  0.51796400  1
  C  C5  1  0.50673900  0.26640000  0.47404700  1
  C  C6  1  0.49361900  0.73353100  0.52573700  1
  C  C7  1  0.62198300  0.22637600  0.49485600  1
  C  C8  1  0.37837500  0.77355600  0.50492800  1
  C  C9  1  0.61190900  0.14656100  0.49525500  1
  C  C10  1  0.38844900  0.85337100  0.50452900  1
  C  C11  1  0.48672000  0.10635600  0.47410000  1
  C  C12  1  0.51363800  0.89357600  0.52568400  1
  C  C13  1  0.37568100  0.14677900  0.44934400  1
  C  C14  1  0.62467700  0.85315300  0.55044000  1
  C  C15  1  0.38459200  0.22601700  0.45019500  1
  C  C16  1  0.61576600  0.77391500  0.54959000  1
  C  C17  1  0.46643500  0.02163200  0.47591500  1
  C  C18  1  0.53392300  0.97830000  0.52386900  1
  C  C19  1  0.45118900  0.48740400  0.73459500  1
  C  C20  1  0.54916900  0.51252700  0.26518900  1
  C  C21  1  0.55438700  0.45298800  0.77392000  1
  C  C22  1  0.44596900  0.54694200  0.22586500  1
  C  C23  1  0.55343200  0.45745400  0.85310400  1
  C  C24  1  0.44692500  0.54247600  0.14668100  1
  C  C25  1  0.45086900  0.49855100  0.89398900  1
  C  C26  1  0.54948900  0.50138100  0.10579600  1
  C  C27  1  0.34867100  0.53361800  0.85430300  1
  C  C28  1  0.65168800  0.46631400  0.14548100  1
  C  C29  1  0.34989800  0.52907200  0.77511400  1
  C  C30  1  0.65046100  0.47086000  0.22467000  1
  C  C31  1  0.44386700  0.50530500  0.97867100  1
  C  C32  1  0.55649100  0.49462600  0.02111400  1
  C  C33  1  0.69016600  0.65172300  0.34060200  1
  C  C34  1  0.31019100  0.34820900  0.65918200  1
  C  C35  1  0.75538800  0.58434600  0.35960700  1
  C  C36  1  0.24497000  0.41558600  0.64017800  1
  C  C37  1  0.87988600  0.60146300  0.39906900  1
  C  C38  1  0.12047100  0.39846900  0.60071500  1
  C  C39  1  0.96758300  0.66597500  0.37698700  1
  C  C40  1  0.03277300  0.33395800  0.62279700  1
  C  C41  1  0.91719400  0.72204200  0.33224500  1
  C  C42  1  0.08316200  0.27789100  0.66753900  1
  C  C43  1  0.77311400  0.71749200  0.31786200  1
  C  C44  1  0.22724200  0.28244000  0.68192300  1
  C  C45  1  0.01061700  0.57639800  0.51449700  1
  C  C46  1  0.98974100  0.42353500  0.48528700  1
  C  C47  1  0.06236500  0.45201900  0.54759000  1
  C  C48  1  0.93799300  0.54791400  0.45219400  1
  C  C49  1  0.70517000  0.78274000  0.28379700  1
  C  C50  1  0.78953900  0.85646700  0.26319600  1
  C  C51  1  0.29518500  0.21719200  0.71598800  1
  C  C52  1  0.21081500  0.14346500  0.73658700  1
  N  N1  1  0.07120900  0.52819500  0.56139900  1
  N  N2  1  0.92914800  0.47173700  0.43838500  1
  O  O1  1  0.34248600  0.47605300  0.61056300  1
  O  O2  1  0.65787300  0.52387900  0.38922100  1
  O  O3  1  0.59019700  0.49543700  0.61629300  1
  O  O4  1  0.41016200  0.50449500  0.38349100  1
  O  O5  1  0.37877100  0.37905500  0.48507200  1
  O  O6  1  0.62158800  0.62087700  0.51471200  1
  O  O7  1  0.62683300  0.39305300  0.48755100  1
  O  O8  1  0.37352500  0.60687900  0.51223300  1
  O  O9  1  0.57729900  0.77680200  0.27150500  1
  O  O10  1  0.42305500  0.22313100  0.72828200  1
