# Generated by REPEAT Assigner based on pymatgen
data_DB0-m3_o32_o58_f0_tbo.sym.61
_audit_creation_date              2022-05-24
_audit_creation_method            REPEAT_Assigner
_cell_length_a                    33.334903
_cell_length_b                    33.363461
_cell_length_c                    33.461269
_cell_angle_alpha                 60.107077
_cell_angle_beta                  60.116486
_cell_angle_gamma                 60.019918
_cell_volume                      26363.008633
_symmetry_space_group_name_H-M    P1
_symmetry_Int_Tables_number       1
loop_
    _symmetry_equiv_pos_site_id
    _symmetry_equiv_pos_as_xyz
    1  x,y,z
loop_
    _atom_site_type_symbol
    _atom_site_label
    _atom_site_fract_x
    _atom_site_fract_y
    _atom_site_fract_z
    _atom_type_partial_charge
    O   O1    0.003755  0.571377  0.935771  -0.634638
    O   O2    0.996245  0.428623  0.064229  -0.634673
    O   O3    0.572883  0.934544  0.004204  -0.632773
    O   O4    0.427117  0.065456  0.995796  -0.632709
    O   O5    0.934171  0.004433  0.572226  -0.633205
    O   O6    0.065829  0.995567  0.427774  -0.633206
    O   O7    0.428504  0.996223  0.064107  -0.634250
    O   O8    0.571496  0.003777  0.935893  -0.634278
    O   O9    0.065538  0.427179  0.995937  -0.632990
    O   O10   0.934461  0.572821  0.004063  -0.632935
    O   O11   0.996768  0.064503  0.428812  -0.634967
    O   O12   0.003232  0.935497  0.571188  -0.634913
    O   O13   0.991527  0.516274  0.064565  -0.700541
    O   O14   0.008473  0.483726  0.935435  -0.700640
    O   O15   0.512747  0.062775  0.997982  -0.703061
    O   O16   0.487253  0.937225  0.002018  -0.703082
    O   O17   0.062780  0.997067  0.513599  -0.704863
    O   O18   0.937220  0.002933  0.486401  -0.704825
    O   O19   0.483923  0.008420  0.935314  -0.699190
    O   O20   0.516077  0.991580  0.064686  -0.699197
    O   O21   0.937216  0.487107  0.002112  -0.703923
    O   O22   0.062784  0.512893  0.997888  -0.703886
    O   O23   0.008246  0.935576  0.483454  -0.699963
    O   O24   0.991754  0.064424  0.516546  -0.699976
    C   C1    0.959799  0.594748  0.960143  0.646292
    C   C2    0.040201  0.405252  0.039857  0.646446
    C   C3    0.594877  0.959860  0.960304  0.649364
    C   C4    0.405123  0.040140  0.039696  0.649276
    C   C5    0.959288  0.960206  0.594235  0.647481
    C   C6    0.040712  0.039794  0.405765  0.647536
    C   C7    0.035922  0.519084  0.040643  0.643843
    C   C8    0.964078  0.480916  0.959357  0.644120
    C   C9    0.518848  0.035956  0.040784  0.638784
    C   C10   0.481152  0.964044  0.959216  0.638888
    C   C11   0.036032  0.040001  0.519757  0.646646
    C   C12   0.963968  0.959999  0.480243  0.646574
    Zn  Zn1   0.046089  0.499582  0.955581  1.309944
    Zn  Zn2   0.953911  0.500418  0.044420  1.309993
    Zn  Zn3   0.500382  0.953951  0.044431  1.309938
    Zn  Zn4   0.499618  0.046049  0.955569  1.309907
    Zn  Zn5   0.954077  0.044873  0.500140  1.308879
    Zn  Zn6   0.045923  0.955127  0.499860  1.308872
    C   C13   0.869124  0.465215  0.796779  -0.013981
    C   C14   0.130876  0.534785  0.203221  -0.014239
    C   C15   0.463846  0.798099  0.870048  0.003227
    C   C16   0.536154  0.201901  0.129952  0.003389
    C   C17   0.799637  0.872639  0.457986  0.003576
    C   C18   0.200363  0.127361  0.542014  0.003883
    C   C19   0.532302  0.132042  0.203771  -0.018754
    C   C20   0.467698  0.867958  0.796229  -0.018899
    C   C21   0.201215  0.537730  0.129736  0.005860
    C   C22   0.798785  0.462270  0.870264  0.005870
    C   C23   0.130182  0.201363  0.538440  -0.015725
    C   C24   0.869818  0.798637  0.461560  -0.015709
    C   C25   0.872696  0.458695  0.869625  0.129186
    C   C26   0.127304  0.541305  0.130375  0.128960
    C   C27   0.460294  0.872022  0.869200  0.123681
    C   C28   0.539706  0.127978  0.130800  0.123705
    C   C29   0.873306  0.871607  0.455291  0.129118
    C   C30   0.126694  0.128393  0.544709  0.129068
    C   C31   0.820822  0.466621  0.821238  -0.083528
    C   C32   0.179178  0.533379  0.178762  -0.083394
    C   C33   0.468836  0.819792  0.820881  -0.081452
    C   C34   0.531164  0.180208  0.179119  -0.081457
    C   C35   0.821643  0.823397  0.462431  -0.077105
    C   C36   0.178357  0.176603  0.537569  -0.077250
    H   H1    0.799403  0.473845  0.801173  0.091295
    H   H2    0.200597  0.526155  0.198827  0.091268
    H   H3    0.476300  0.798194  0.800907  0.090825
    H   H4    0.523700  0.201806  0.199093  0.090819
    H   H5    0.800248  0.803387  0.469419  0.090114
    H   H6    0.199752  0.196613  0.530581  0.090110
    C   C37   0.825381  0.457610  0.894474  -0.207023
    C   C38   0.174619  0.542390  0.105526  -0.206953
    C   C39   0.463370  0.893810  0.820831  -0.182942
    C   C40   0.536630  0.106190  0.179169  -0.183129
    C   C41   0.895394  0.823215  0.457855  -0.191065
    C   C42   0.104606  0.176785  0.542145  -0.191069
    C   C43   0.541056  0.175164  0.105783  -0.202134
    C   C44   0.458944  0.824836  0.894217  -0.201976
    C   C45   0.105219  0.538781  0.178586  -0.188951
    C   C46   0.894780  0.461219  0.821414  -0.189084
    C   C47   0.173874  0.103233  0.546277  -0.208441
    C   C48   0.826126  0.896767  0.453723  -0.208299
    H   H7    0.808988  0.454821  0.932473  0.134101
    H   H8    0.191012  0.545179  0.067527  0.134059
    H   H9    0.461784  0.931626  0.802773  0.111607
    H   H10   0.538216  0.068374  0.197227  0.111667
    H   H11   0.933189  0.805072  0.456550  0.114371
    H   H12   0.066811  0.194928  0.543450  0.114392
    H   H13   0.544271  0.191353  0.067671  0.133006
    H   H14   0.455729  0.808647  0.932329  0.132955
    H   H15   0.067333  0.540506  0.196497  0.113461
    H   H16   0.932667  0.459494  0.803503  0.113366
    H   H17   0.190291  0.065096  0.549020  0.134910
    H   H18   0.809709  0.934904  0.450980  0.134895
    C   C49   0.880289  0.451117  0.725023  -0.155085
    C   C50   0.119711  0.548883  0.274977  -0.155054
    C   C51   0.449263  0.725947  0.882495  -0.145116
    C   C52   0.550737  0.274053  0.117505  -0.145059
    C   C53   0.727130  0.885374  0.443648  -0.144204
    C   C54   0.272869  0.114626  0.556352  -0.143912
    C   C55   0.545751  0.121380  0.275679  -0.153310
    C   C56   0.454249  0.878620  0.724321  -0.153480
    C   C57   0.273741  0.551829  0.117332  -0.146413
    C   C58   0.726259  0.448171  0.882668  -0.146387
    C   C59   0.118864  0.273735  0.551947  -0.156358
    C   C60   0.881136  0.726265  0.448053  -0.156264
    C   C61   0.901894  0.456204  0.676031  -0.192901
    C   C62   0.098106  0.543796  0.323969  -0.192938
    C   C63   0.454835  0.676712  0.903987  -0.188332
    C   C64   0.545165  0.323288  0.096013  -0.188345
    C   C65   0.677679  0.906658  0.449799  -0.183727
    C   C66   0.322321  0.093342  0.550201  -0.184094
    C   C67   0.540519  0.099907  0.324690  -0.203306
    C   C68   0.459481  0.900093  0.675310  -0.203207
    C   C69   0.323099  0.545946  0.095931  -0.187554
    C   C70   0.676901  0.454054  0.904069  -0.187675
    C   C71   0.097371  0.323053  0.546291  -0.189584
    C   C72   0.902629  0.676947  0.453709  -0.189610
    C   C73   0.936923  0.478908  0.646366  0.130408
    C   C74   0.063077  0.521092  0.353634  0.130434
    C   C75   0.476719  0.647366  0.939614  0.115787
    C   C76   0.523280  0.352634  0.060386  0.115740
    C   C77   0.648283  0.941785  0.472378  0.109519
    C   C78   0.351717  0.058215  0.527622  0.109665
    C   C79   0.517944  0.064798  0.354304  0.143825
    C   C80   0.482056  0.935202  0.645696  0.143678
    C   C81   0.352400  0.523788  0.060535  0.113539
    C   C82   0.647600  0.476212  0.939465  0.113881
    C   C83   0.062725  0.352718  0.523079  0.129533
    C   C84   0.937275  0.647282  0.476921  0.129499
    C   C85   0.949429  0.497397  0.665744  -0.200809
    C   C86   0.050571  0.502603  0.334256  -0.200769
    C   C87   0.493081  0.667595  0.953506  -0.222474
    C   C88   0.506919  0.332405  0.046494  -0.222337
    C   C89   0.668690  0.955435  0.488777  -0.215278
    C   C90   0.331310  0.044565  0.511223  -0.215338
    C   C91   0.499600  0.052153  0.334910  -0.208614
    C   C92   0.500400  0.947847  0.665090  -0.208389
    C   C93   0.332017  0.507386  0.046854  -0.218738
    C   C94   0.667982  0.492614  0.953146  -0.219062
    C   C95   0.050517  0.333049  0.504624  -0.198601
    C   C96   0.949483  0.666951  0.495376  -0.198467
    C   C97   0.926784  0.493760  0.714232  -0.158746
    C   C98   0.073216  0.506240  0.285768  -0.158894
    C   C99   0.488893  0.716438  0.931029  -0.105457
    C   C100  0.511107  0.283562  0.068971  -0.105468
    C   C101  0.717744  0.933154  0.484002  -0.113162
    C   C102  0.282256  0.066846  0.515998  -0.113070
    C   C103  0.503332  0.074704  0.286392  -0.155536
    C   C104  0.496668  0.925296  0.713608  -0.155806
    C   C105  0.283064  0.511855  0.069266  -0.110509
    C   C106  0.716936  0.488145  0.930734  -0.110552
    C   C107  0.073081  0.284247  0.508804  -0.165152
    C   C108  0.926919  0.715753  0.491196  -0.165210
    C   C109  0.892382  0.470064  0.744576  0.160504
    C   C110  0.107618  0.529936  0.255424  0.160613
    C   C111  0.466894  0.746191  0.895277  0.117564
    C   C112  0.533106  0.253809  0.104723  0.117448
    C   C113  0.747546  0.897858  0.461369  0.120310
    C   C114  0.252454  0.102142  0.538631  0.120125
    C   C115  0.527037  0.109093  0.256064  0.162662
    C   C116  0.472963  0.890907  0.743936  0.162957
    C   C117  0.253316  0.534225  0.104714  0.122815
    C   C118  0.746684  0.465775  0.895286  0.122877
    C   C119  0.107046  0.253883  0.533056  0.165510
    C   C120  0.892954  0.746117  0.466944  0.165400
    H   H19   0.891986  0.441157  0.661477  0.137574
    H   H20   0.108014  0.558843  0.338523  0.137580
    H   H21   0.441185  0.661633  0.893129  0.138049
    H   H22   0.558815  0.338367  0.106871  0.138045
    H   H23   0.662430  0.895949  0.436187  0.136556
    H   H24   0.337570  0.104051  0.563813  0.136612
    H   H25   0.555532  0.109838  0.339263  0.140621
    H   H26   0.444468  0.890162  0.660737  0.140598
    H   H27   0.338308  0.559616  0.106629  0.137346
    H   H28   0.661692  0.440384  0.893371  0.137363
    H   H29   0.107041  0.337878  0.561283  0.135858
    H   H30   0.892959  0.662122  0.438717  0.135870
    H   H31   0.975893  0.516381  0.642840  0.150882
    H   H32   0.024107  0.483619  0.357161  0.150876
    H   H33   0.511135  0.645036  0.980710  0.160363
    H   H34   0.488865  0.354964  0.019290  0.160340
    H   H35   0.646121  0.982173  0.507428  0.157179
    H   H36   0.353879  0.017827  0.492572  0.157180
    H   H37   0.480785  0.025552  0.357811  0.152977
    H   H38   0.519215  0.974448  0.642189  0.152941
    H   H39   0.354537  0.489100  0.019858  0.158057
    H   H40   0.645463  0.510900  0.980142  0.158161
    H   H41   0.024393  0.355966  0.485221  0.148827
    H   H42   0.975606  0.644034  0.514779  0.148764
    H   H43   0.854499  0.431374  0.747777  0.118736
    H   H44   0.145501  0.568626  0.252223  0.118725
    H   H45   0.430626  0.748261  0.855791  0.116624
    H   H46   0.569374  0.251739  0.144209  0.116592
    H   H47   0.749454  0.858995  0.424601  0.114484
    H   H48   0.250546  0.141005  0.575399  0.114422
    H   H49   0.565536  0.147125  0.252951  0.118569
    H   H50   0.434464  0.852875  0.747050  0.118601
    H   H51   0.251477  0.570722  0.143800  0.115382
    H   H52   0.748523  0.429278  0.856200  0.115384
    H   H53   0.144347  0.250978  0.572053  0.117108
    H   H54   0.855653  0.749022  0.427947  0.117065
    H   H55   0.935837  0.510815  0.727443  0.120777
    H   H56   0.064163  0.489185  0.272557  0.120811
    H   H57   0.504668  0.730261  0.940894  0.100789
    H   H58   0.495332  0.269739  0.059106  0.100781
    H   H59   0.731672  0.942714  0.499927  0.102191
    H   H60   0.268328  0.057286  0.500073  0.102162
    H   H61   0.486471  0.065497  0.273108  0.119703
    H   H62   0.513529  0.934503  0.726892  0.119737
    H   H63   0.269145  0.496034  0.059560  0.100766
    H   H64   0.730855  0.503966  0.940440  0.100789
    H   H65   0.064323  0.270809  0.491722  0.122369
    H   H66   0.935677  0.729191  0.508278  0.122397
    C   C121  0.918873  0.498301  0.868008  -0.010790
    C   C122  0.081127  0.501699  0.131992  -0.011093
    C   C123  0.432167  0.899156  0.938440  -0.023719
    C   C124  0.567833  0.100844  0.061560  -0.023905
    C   C125  0.900106  0.940724  0.428959  -0.027662
    C   C126  0.099894  0.059276  0.571041  -0.027709
    C   C127  0.500482  0.081607  0.132180  -0.015603
    C   C128  0.499518  0.918393  0.867820  -0.015460
    C   C129  0.100563  0.568700  0.061046  -0.026407
    C   C130  0.899437  0.431300  0.938954  -0.026284
    C   C131  0.081401  0.130646  0.503887  -0.019567
    C   C132  0.918599  0.869354  0.496113  -0.019517
    C   C133  0.940452  0.504443  0.889550  -0.126053
    C   C134  0.059547  0.495557  0.110450  -0.125789
    C   C135  0.437016  0.921859  0.960036  -0.123287
    C   C136  0.562984  0.078141  0.039964  -0.123445
    C   C137  0.922460  0.961937  0.434826  -0.120669
    C   C138  0.077540  0.038063  0.565174  -0.120548
    C   C139  0.494697  0.059832  0.110580  -0.124502
    C   C140  0.505303  0.940168  0.889420  -0.124473
    C   C141  0.078030  0.563518  0.039511  -0.123379
    C   C142  0.921970  0.436482  0.960489  -0.123510
    C   C143  0.060009  0.109419  0.497081  -0.119594
    C   C144  0.939991  0.890581  0.502919  -0.119736
    C   C145  0.942349  0.473379  0.935973  0.228872
    C   C146  0.057651  0.526621  0.064027  0.228870
    C   C147  0.473904  0.942234  0.935713  0.228167
    C   C148  0.526096  0.057766  0.064287  0.228449
    C   C149  0.942283  0.937032  0.472117  0.222707
    C   C150  0.057717  0.062968  0.527883  0.222595
    O   O25   0.490004  0.571705  0.004505  -0.698396
    O   O26   0.509996  0.428295  0.995495  -0.698365
    O   O27   0.571905  0.005603  0.488154  -0.696248
    O   O28   0.428095  0.994397  0.511846  -0.696293
    O   O29   0.002918  0.490915  0.571760  -0.692777
    O   O30   0.997082  0.509085  0.428240  -0.692801
    O   O31   0.428041  0.510384  0.995588  -0.700200
    O   O32   0.571959  0.489616  0.004412  -0.700204
    O   O33   0.996921  0.427681  0.510198  -0.693425
    O   O34   0.003079  0.572319  0.489802  -0.693431
    O   O35   0.507924  0.997854  0.428320  -0.697250
    O   O36   0.492076  0.002146  0.571680  -0.697249
    C   C151  0.898018  0.462072  0.892558  -0.019955
    C   C152  0.101981  0.537928  0.107442  -0.019771
    C   C153  0.463296  0.897538  0.892180  -0.017273
    C   C154  0.536704  0.102462  0.107820  -0.016996
    C   C155  0.898348  0.894265  0.459444  -0.014576
    C   C156  0.101651  0.105735  0.540556  -0.014541
    C   C157  0.483784  0.594907  0.961777  0.677811
    C   C158  0.516216  0.405093  0.038223  0.677701
    C   C159  0.595528  0.963370  0.480569  0.681952
    C   C160  0.404472  0.036630  0.519431  0.682003
    C   C161  0.960100  0.484637  0.594410  0.665796
    C   C162  0.039900  0.515363  0.405590  0.665808
    C   C163  0.404953  0.516528  0.038343  0.686606
    C   C164  0.595047  0.483472  0.961657  0.686546
    C   C165  0.039663  0.404997  0.516713  0.672030
    C   C166  0.960337  0.595003  0.483287  0.672069
    C   C167  0.512777  0.041267  0.406105  0.666415
    C   C168  0.487223  0.958733  0.593895  0.666449
    H   H67   0.916369  0.523865  0.832417  0.065511
    H   H68   0.083631  0.476135  0.167583  0.065595
    H   H69   0.403232  0.883480  0.957668  0.065526
    H   H70   0.596768  0.116520  0.042332  0.065578
    H   H71   0.884863  0.960375  0.399723  0.066088
    H   H72   0.115137  0.039625  0.600277  0.066105
    H   H73   0.474643  0.084260  0.167649  0.067054
    H   H74   0.525357  0.915740  0.832351  0.067012
    H   H75   0.116249  0.597630  0.041664  0.066638
    H   H76   0.883751  0.402370  0.958336  0.066603
    H   H77   0.084213  0.166275  0.478552  0.067574
    H   H78   0.915787  0.833725  0.521448  0.067563
    Zn  Zn7   0.499848  0.499649  0.045842  1.315029
    Zn  Zn8   0.500152  0.500351  0.954158  1.315058
    Zn  Zn9   0.499172  0.045769  0.500750  1.316481
    Zn  Zn10  0.500828  0.954231  0.499250  1.316518
    Zn  Zn11  0.045472  0.500356  0.500261  1.313758
    Zn  Zn12  0.954528  0.499644  0.499739  1.313795
    C   C169  0.796716  0.866583  0.865415  0.833946
    C   C170  0.203284  0.133417  0.134585  0.833976
    C   C171  0.866416  0.866193  0.795468  0.759014
    C   C172  0.133583  0.133807  0.204532  0.759019
    C   C173  0.866711  0.796488  0.865336  0.795480
    C   C174  0.133289  0.203512  0.134664  0.795588
    N   N1    0.819927  0.889448  0.818888  -0.733279
    N   N2    0.180073  0.110552  0.181112  -0.733344
    N   N3    0.889608  0.819660  0.818801  -0.694018
    N   N4    0.110392  0.180340  0.181199  -0.694035
    N   N5    0.820246  0.820075  0.888409  -0.772504
    N   N6    0.179754  0.179925  0.111591  -0.772579
    C   C175  0.720382  0.938755  0.866524  -0.224323
    C   C176  0.279618  0.061245  0.133476  -0.224518
    C   C177  0.938279  0.866687  0.719429  -0.247600
    C   C178  0.061721  0.133313  0.280571  -0.247682
    C   C179  0.867618  0.721150  0.937767  -0.107330
    C   C180  0.132382  0.278850  0.062233  -0.107297
    C   C181  0.061222  0.279882  0.133659  -0.243392
    C   C182  0.938778  0.720118  0.866341  -0.243416
    C   C183  0.132989  0.061559  0.280015  -0.126339
    C   C184  0.867011  0.938441  0.719985  -0.126391
    C   C185  0.278668  0.132410  0.062103  -0.105515
    C   C186  0.721332  0.867590  0.937897  -0.105384
    C   C187  0.671668  0.961335  0.889494  0.160986
    C   C188  0.328331  0.038665  0.110506  0.161175
    C   C189  0.960746  0.889420  0.670846  0.175649
    C   C190  0.039253  0.110580  0.329154  0.175647
    C   C191  0.890145  0.672499  0.960661  -0.120089
    C   C192  0.109855  0.327501  0.039339  -0.120065
    C   C193  0.038686  0.328582  0.110709  0.165518
    C   C194  0.961313  0.671418  0.889291  0.165490
    C   C195  0.110514  0.038866  0.328557  -0.112453
    C   C196  0.889486  0.961134  0.671444  -0.112305
    C   C197  0.327333  0.109837  0.039188  -0.120597
    C   C198  0.672667  0.890163  0.960812  -0.120778
    C   C199  0.647372  0.937028  0.936660  -0.094454
    C   C200  0.352628  0.062972  0.063340  -0.094576
    C   C201  0.936361  0.936678  0.646449  -0.103108
    C   C202  0.063639  0.063322  0.353551  -0.103051
    C   C203  0.936985  0.647185  0.936474  -0.095313
    C   C204  0.063015  0.352815  0.063526  -0.095430
    C   C205  0.745464  0.891543  0.890434  -0.083452
    C   C206  0.254536  0.108457  0.109566  -0.083338
    C   C207  0.891102  0.890926  0.744257  -0.041532
    C   C208  0.108898  0.109074  0.255743  -0.041498
    C   C209  0.891600  0.745230  0.890298  -0.061457
    C   C210  0.108400  0.254770  0.109702  -0.061548
    H   H79   0.652810  0.997958  0.869705  0.090120
    H   H80   0.347190  0.002042  0.130295  0.090063
    H   H81   0.997390  0.869415  0.652218  0.087957
    H   H82   0.002610  0.130585  0.347782  0.088005
    H   H83   0.870211  0.654554  0.997543  0.126783
    H   H84   0.129789  0.345446  0.002457  0.126753
    H   H85   0.002079  0.347469  0.130514  0.091498
    H   H86   0.997921  0.652531  0.869486  0.091458
    H   H87   0.130485  0.001916  0.346652  0.127156
    H   H88   0.869515  0.998084  0.653348  0.127094
    H   H89   0.345319  0.129767  0.002325  0.126555
    H   H90   0.654681  0.870234  0.997675  0.126628
    H   H91   0.738182  0.958467  0.829442  0.114632
    H   H92   0.261818  0.041533  0.170558  0.114733
    H   H93   0.958094  0.829551  0.737346  0.120872
    H   H94   0.041906  0.170449  0.262654  0.120907
    H   H95   0.830789  0.739689  0.957537  0.120456
    H   H96   0.169211  0.260311  0.042463  0.120457
    H   H97   0.041497  0.262113  0.170750  0.119884
    H   H98   0.958503  0.737887  0.829250  0.119894
    H   H99   0.169825  0.041587  0.261687  0.125192
    H   H100  0.830175  0.958413  0.738313  0.125232
    H   H101  0.260163  0.169263  0.042363  0.119589
    H   H102  0.739837  0.830737  0.957637  0.119542
    O   O37   0.427055  0.514456  0.062963  -0.702531
    O   O38   0.572945  0.485544  0.937037  -0.702564
    O   O39   0.511319  0.065237  0.428453  -0.703629
    O   O40   0.488681  0.934763  0.571547  -0.703626
    O   O41   0.063736  0.427379  0.515147  -0.701810
    O   O42   0.936264  0.572621  0.484853  -0.701844
    O   O43   0.485637  0.572993  0.937137  -0.698904
    O   O44   0.514363  0.427007  0.062863  -0.698841
    O   O45   0.936096  0.485809  0.572250  -0.698604
    O   O46   0.063904  0.514191  0.427750  -0.698600
    O   O47   0.573758  0.938457  0.482516  -0.699295
    O   O48   0.426242  0.061543  0.517484  -0.699279
    I   I1    0.964402  0.565686  0.851677  -0.046156
    I   I2    0.035598  0.434314  0.148323  -0.046238
    I   I3    0.385292  0.927111  0.028886  -0.044671
    I   I4    0.614708  0.072889  0.971114  -0.044652
    I   I5    0.928143  0.031054  0.383967  -0.044388
    I   I6    0.071857  0.968946  0.616033  -0.044434
    I   I7    0.433466  0.035858  0.148126  -0.045545
    I   I8    0.566534  0.964142  0.851874  -0.045493
    I   I9    0.073008  0.614810  0.970455  -0.044250
    I   I10   0.926992  0.385190  0.029545  -0.044214
    I   I11   0.036898  0.147752  0.435384  -0.046568
    I   I12   0.963102  0.852248  0.564616  -0.046507
