# Generated by REPEAT Assigner based on pymatgen
data_DB0-m29_o99_o143_f0_pts.sym.32
_audit_creation_date              2022-05-24
_audit_creation_method            REPEAT_Assigner
_cell_length_a                    15.870686
_cell_length_b                    16.899199
_cell_length_c                    11.816381
_cell_angle_alpha                 71.876002
_cell_angle_beta                  96.694895
_cell_angle_gamma                 98.145741
_cell_volume                      2972.682976
_symmetry_space_group_name_H-M    P1
_symmetry_Int_Tables_number       1
loop_
    _symmetry_equiv_pos_site_id
    _symmetry_equiv_pos_as_xyz
    1  x,y,z
loop_
    _atom_site_type_symbol
    _atom_site_label
    _atom_site_fract_x
    _atom_site_fract_y
    _atom_site_fract_z
    _atom_type_partial_charge
    C   C1   0.217020  0.004799  0.819560  -0.434727
    H   H1   0.228568  0.002374  0.732393  0.184221
    C   C2   0.134477  0.001328  0.847137  0.552486
    C   C3   0.119240  0.007012  0.956250  -0.028126
    C   C4   0.186398  0.014339  0.038895  -0.111062
    H   H2   0.172123  0.016326  0.125076  0.144754
    C   C5   0.270009  0.017175  0.012914  -0.101044
    C   C6   0.285104  0.014472  0.900195  0.100831
    C   C7   0.033074  0.004069  0.984421  0.047101
    C   C8   0.960606  0.001608  0.007609  -0.259792
    C   C9   0.807309  0.990940  0.953060  -0.188924
    H   H3   0.821705  0.988854  0.866987  0.148796
    C   C10  0.723624  0.987758  0.979029  -0.001224
    C   C11  0.708425  0.990495  0.091741  0.016545
    C   C12  0.776478  0.000537  0.172233  -0.144134
    H   H4   0.765061  0.002968  0.259435  0.166629
    C   C13  0.859032  0.004340  0.144648  -0.202135
    H   H5   0.911674  0.010877  0.209125  0.149386
    C   C14  0.874399  0.998569  0.035659  0.357532
    O   O1   0.533401  0.116472  0.626659  -0.611124
    C   C15  0.475329  0.131611  0.536275  0.688231
    O   O2   0.425334  0.088787  0.865220  -0.524516
    O   O3   0.406629  0.078124  0.536991  -0.533605
    O   O4   0.388499  0.972573  0.804574  -0.568137
    C   C16  0.370740  0.023690  0.860098  0.663070
    Fe  Fe1  0.502853  0.005668  0.742250  1.368476
    O   O5   0.577345  0.000913  0.893049  -0.418655
    O   O6   0.673934  0.980408  0.781498  -0.473935
    C   C17  0.655190  0.987272  0.883041  0.510608
    O   O7   0.515862  0.928878  0.647208  -0.440331
    O   O8   0.511233  0.836203  0.831895  -0.481544
    C   C18  0.516832  0.851484  0.716984  0.567787
    O   O9   0.476577  0.074943  0.344679  -0.438520
    O   O10  0.489760  0.166288  0.161421  -0.414952
    C   C19  0.478897  0.152500  0.274587  0.594916
    O   O11  0.415752  0.001527  0.099876  -0.442152
    O   O12  0.320324  0.026289  0.209359  -0.496414
    C   C20  0.338534  0.017414  0.108805  0.544217
    O   O13  0.588742  0.925791  0.454064  -0.514608
    O   O14  0.604601  0.032071  0.187193  -0.579420
    C   C21  0.622787  0.980867  0.132069  0.634264
    O   O15  0.461082  0.887116  0.366595  -0.596894
    C   C22  0.520527  0.871685  0.455155  0.668083
    O   O16  0.568778  0.915168  0.127996  -0.498526
    Fe  Fe2  0.490515  0.997961  0.250227  1.383922
    C   C23  0.515536  0.790080  0.546894  -0.059230
    C   C24  0.508970  0.719871  0.508777  -0.134938
    H   H6   0.506394  0.727389  0.414231  0.155729
    C   C25  0.507148  0.640541  0.589055  -0.140076
    C   C26  0.512972  0.631395  0.710254  0.526962
    C   C27  0.517910  0.701079  0.748769  -0.285130
    H   H7   0.521538  0.691603  0.843832  0.172412
    C   C28  0.518415  0.780909  0.668714  -0.012857
    C   C29  0.434839  0.507322  0.561477  -0.291674
    C   C30  0.432080  0.440339  0.517482  -0.059804
    C   C31  0.496942  0.434656  0.452947  -0.232511
    C   C32  0.565760  0.496738  0.433695  0.537419
    C   C33  0.568302  0.563379  0.478570  -0.334981
    C   C34  0.503527  0.568626  0.543424  0.201029
    C   C35  0.481719  0.372954  0.286980  -0.483173
    H   H8   0.478825  0.435086  0.224980  0.150323
    C   C36  0.474891  0.305066  0.243960  0.474329
    C   C37  0.476453  0.223891  0.322367  -0.255987
    C   C38  0.480826  0.213534  0.445212  0.073245
    C   C39  0.489365  0.282738  0.485990  -0.352115
    H   H9   0.493396  0.274130  0.580940  0.173066
    C   C40  0.491348  0.362413  0.407652  0.394360
    H   H10  0.382398  0.511981  0.608917  0.151098
    H   H11  0.377896  0.392728  0.532096  0.112611
    H   H12  0.622452  0.611039  0.464394  0.149080
    N   N1   0.464682  0.320436  0.117858  -0.560831
    H   H13  0.517157  0.361259  0.081501  0.281507
    H   H14  0.409906  0.350778  0.086037  0.289885
    N   N2   0.636456  0.491390  0.373151  -0.862475
    H   H15  0.616233  0.496061  0.284339  0.328138
    H   H16  0.659649  0.433674  0.414918  0.314797
    N   N3   0.064994  0.992933  0.762365  -0.798010
    H   H17  0.073692  0.043365  0.685141  0.308208
    H   H18  0.068469  0.937893  0.741439  0.319908
    N   N4   0.517627  0.551462  0.797380  -0.903350
    H   H19  0.567257  0.523587  0.779748  0.343126
    H   H20  0.459940  0.514047  0.792605  0.322555
