# generated using pymatgen
data_Fe2H19C43N3O19
_symmetry_space_group_name_H-M   'P 1'
_cell_length_a   15.77802800
_cell_length_b   12.95197200
_cell_length_c   13.32775400
_cell_angle_alpha   111.00462300
_cell_angle_beta   88.21420200
_cell_angle_gamma   114.12842400
_symmetry_Int_Tables_number   1
_chemical_formula_structural   Fe2H19C43N3O19
_chemical_formula_sum   'Fe2 H19 C43 N3 O19'
_cell_volume   2299.11740387
_cell_formula_units_Z   1
loop_
 _symmetry_equiv_pos_site_id
 _symmetry_equiv_pos_as_xyz
  1  'x, y, z'
loop_
 _atom_site_type_symbol
 _atom_site_label
 _atom_site_symmetry_multiplicity
 _atom_site_fract_x
 _atom_site_fract_y
 _atom_site_fract_z
 _atom_site_occupancy
  Fe  Fe1  1  0.48501700  0.01121800  0.23071500  1
  Fe  Fe2  1  0.47253100  0.97608400  0.77332900  1
  H  H1  1  0.16414600  0.01786600  0.84790200  1
  H  H2  1  0.20692900  0.97905400  0.19221400  1
  H  H3  1  0.04669900  0.03950100  0.81827400  1
  H  H4  1  0.90275500  0.03952400  0.77834200  1
  H  H5  1  0.05867800  0.96035600  0.22709300  1
  H  H6  1  0.91603500  0.96235100  0.18772000  1
  H  H7  1  0.75284100  0.01841700  0.81375600  1
  H  H8  1  0.80422900  0.99611400  0.16343000  1
  H  H9  1  0.55623300  0.45449800  0.41290300  1
  H  H10  1  0.45499900  0.55425900  0.59604400  1
  H  H11  1  0.43964300  0.44314800  0.30216300  1
  H  H12  1  0.49965800  0.12908900  0.53804100  1
  H  H13  1  0.45876200  0.85673500  0.46661400  1
  H  H14  1  0.65471200  0.65050700  0.95327900  1
  H  H15  1  0.57582600  0.53771200  0.98697900  1
  H  H16  1  0.39957300  0.37204100  0.02239500  1
  H  H17  1  0.49919300  0.44550200  0.11111900  1
  H  H18  1  0.71312200  0.64803300  0.61079600  1
  H  H19  1  0.75819000  0.64600500  0.72306900  1
  C  C1  1  0.26782700  0.00133500  0.05264600  1
  C  C2  1  0.25447800  0.01027700  0.95422600  1
  C  C3  1  0.17152800  0.01253300  0.92538200  1
  C  C4  1  0.19673700  0.98646700  0.11572600  1
  C  C5  1  0.11475200  0.98812500  0.08667400  1
  C  C6  1  0.10070500  0.00401100  0.99255100  1
  C  C7  1  0.01624400  0.00919200  0.96862500  1
  C  C8  1  0.99831000  0.02672000  0.87591400  1
  C  C9  1  0.91504300  0.02794200  0.85212000  1
  C  C10  1  0.04749600  0.97454500  0.15440000  1
  C  C11  1  0.96506700  0.97755000  0.13115400  1
  C  C12  1  0.94808300  0.99717000  0.03934900  1
  C  C13  1  0.86366900  0.00232000  0.01565700  1
  C  C14  1  0.84809500  0.01515300  0.92048000  1
  C  C15  1  0.76469900  0.01365900  0.89107400  1
  C  C16  1  0.79424600  0.99620000  0.08434400  1
  C  C17  1  0.70949800  0.99351100  0.05489900  1
  C  C18  1  0.69381300  0.99791900  0.95467500  1
  C  C19  1  0.64090100  0.99248000  0.13352300  1
  C  C20  1  0.45263000  0.78955900  0.25432800  1
  C  C21  1  0.35686600  0.01557800  0.09791100  1
  C  C22  1  0.49081100  0.21482300  0.39861700  1
  C  C23  1  0.48373500  0.78181900  0.60962800  1
  C  C24  1  0.60311800  0.97849300  0.90822900  1
  C  C25  1  0.53218300  0.20457900  0.75031300  1
  C  C26  1  0.32431600  0.01157600  0.87734400  1
  C  C27  1  0.52185700  0.22640600  0.57824800  1
  C  C28  1  0.52181700  0.28829200  0.51399400  1
  C  C29  1  0.54318100  0.41121200  0.55998900  1
  C  C30  1  0.57729500  0.47437700  0.67015100  1
  C  C31  1  0.58026100  0.41151900  0.73510100  1
  C  C32  1  0.54667600  0.28452800  0.68918100  1
  C  C33  1  0.53055900  0.47191800  0.49080100  1
  C  C34  1  0.48223100  0.53996300  0.51909400  1
  C  C35  1  0.46151800  0.70836400  0.49338600  1
  C  C36  1  0.45275800  0.76480200  0.42716800  1
  C  C37  1  0.44351900  0.71062200  0.31532300  1
  C  C38  1  0.43363800  0.59023000  0.26939300  1
  C  C39  1  0.44697200  0.53601600  0.33685900  1
  C  C40  1  0.46485800  0.59639800  0.44852900  1
  C  C41  1  0.62619300  0.48086300  0.84809800  1
  C  C42  1  0.40427300  0.51452000  0.15271300  1
  C  C43  1  0.62133100  0.60867000  0.71484700  1
  N  N1  1  0.59637400  0.56606400  0.92262400  1
  N  N2  1  0.42634100  0.41238400  0.10461300  1
  N  N3  1  0.71359100  0.67374700  0.69455600  1
  O  O1  1  0.56909800  0.01397200  0.11742500  1
  O  O2  1  0.46781100  0.75958800  0.15273300  1
  O  O3  1  0.65442000  0.97750800  0.22304700  1
  O  O4  1  0.46041400  0.90051400  0.30977200  1
  O  O5  1  0.35584700  0.95364500  0.15749700  1
  O  O6  1  0.43572100  0.10432900  0.09566200  1
  O  O7  1  0.55124300  0.18232000  0.34074500  1
  O  O8  1  0.40114900  0.14280000  0.36882300  1
  O  O9  1  0.41715300  0.80490400  0.66141700  1
  O  O10  1  0.57126300  0.86016300  0.64683200  1
  O  O11  1  0.60057900  0.04534100  0.85509300  1
  O  O12  1  0.52741600  0.88113100  0.90202000  1
  O  O13  1  0.32496900  0.05504100  0.80213000  1
  O  O14  1  0.49381400  0.08615400  0.69432100  1
  O  O15  1  0.38229000  0.96249500  0.87985500  1
  O  O16  1  0.54727200  0.24654000  0.85658200  1
  O  O17  1  0.69066800  0.46559500  0.87862500  1
  O  O18  1  0.35258100  0.53004500  0.09926100  1
  O  O19  1  0.57953600  0.66507400  0.76993900  1
