# Generated by REPEAT Assigner based on pymatgen
data_DB0-m2_o1_o11_f0_pcu.sym.12_sqe
_audit_creation_date              2022-05-24
_audit_creation_method            REPEAT_Assigner
_cell_length_a                    10.909070
_cell_length_b                    9.437212
_cell_length_c                    10.942418
_cell_angle_alpha                 90.000000
_cell_angle_beta                  90.002705
_cell_angle_gamma                 90.000000
_cell_volume                      1126.535204
_symmetry_space_group_name_H-M    P1
_symmetry_Int_Tables_number       1
loop_
    _symmetry_equiv_pos_site_id
    _symmetry_equiv_pos_as_xyz
    1  x,y,z
loop_
    _atom_site_type_symbol
    _atom_site_label
    _atom_site_fract_x
    _atom_site_fract_y
    _atom_site_fract_z
    _atom_type_partial_charge
    O   O1   0.326282  0.615412  0.537946  -0.400782
    O   O2   0.673765  0.615831  0.462768  -0.400867
    O   O3   0.323300  0.381025  0.477218  -0.556950
    O   O4   0.677278  0.381715  0.523215  -0.555956
    C   C1   0.266093  0.501498  0.503424  0.627257
    C   C2   0.734359  0.501924  0.495801  0.627240
    O   O5   0.462562  0.616230  0.326865  -0.635053
    O   O6   0.537446  0.615919  0.673912  -0.634023
    O   O7   0.524701  0.381423  0.324304  -0.636125
    O   O8   0.475746  0.381039  0.676115  -0.632917
    C   C3   0.490825  0.498953  0.268278  0.742196
    C   C4   0.508411  0.498692  0.732065  0.739765
    Cu  Cu1  0.499911  0.637485  0.500498  0.593410
    Cu  Cu2  0.500388  0.359127  0.499947  0.959548
    C   C5   0.494424  0.385282  0.932553  -0.018144
    C   C6   0.503331  0.385393  0.067099  -0.016118
    C   C7   0.514378  0.501477  0.865808  -0.292756
    C   C8   0.483916  0.501617  0.134462  -0.296685
    H   H1   0.476748  0.284945  0.887664  0.104270
    H   H2   0.521125  0.285243  0.111767  0.104830
    H   H3   0.540285  0.600314  0.908659  0.161585
    H   H4   0.457643  0.600816  0.092336  0.162075
    C   C9   0.063486  0.383710  0.500324  -0.070030
    C   C10  0.936928  0.383994  0.497548  -0.076944
    H   H5   0.110393  0.283078  0.502828  0.075959
    H   H6   0.889606  0.283738  0.494595  0.075340
    C   C11  0.871029  0.509046  0.498842  -0.142935
    C   C12  0.129437  0.508745  0.499617  -0.151823
    C   C13  0.935994  0.637778  0.502471  0.045720
    C   C14  0.064645  0.637620  0.496389  0.065859
    C   C15  0.438553  0.069034  0.413121  0.222492
    C   C16  0.561423  0.069273  0.588212  0.230806
    C   C17  0.444810  0.922552  0.411354  -0.217238
    C   C18  0.556073  0.922527  0.589535  -0.235008
    H   H7   0.401307  0.865552  0.337937  0.161948
    H   H8   0.600796  0.865993  0.662456  0.168405
    N   N1   0.499765  0.849811  0.500698  0.271380
    N   N2   0.500513  0.146000  0.500251  -0.295921
    C   C19  0.869593  0.776528  0.521448  -0.018347
    C   C20  0.829230  0.839959  0.399711  -0.192566
    H   H9   0.887055  0.932501  0.376092  0.036381
    H   H10  0.836900  0.759152  0.326445  0.048006
    H   H11  0.733286  0.877417  0.405782  0.011549
    H   H12  0.791718  0.762704  0.584835  0.035197
    H   H13  0.925656  0.854411  0.571058  0.034440
    C   C21  0.130932  0.776246  0.477190  -0.042878
    C   C22  0.169518  0.841242  0.598686  -0.197510
    H   H14  0.112668  0.935529  0.619366  0.038308
    H   H15  0.158893  0.762106  0.672813  0.051058
    H   H16  0.266130  0.876313  0.593815  0.012071
    H   H17  0.210070  0.762213  0.415387  0.039960
    H   H18  0.074792  0.853326  0.426645  0.037571
    C   C23  0.362338  0.130635  0.311459  -0.029554
    C   C24  0.230742  0.079424  0.319609  -0.177105
    H   H19  0.220912  0.974602  0.275038  0.030948
    H   H20  0.202290  0.073164  0.416581  0.133279
    H   H21  0.170626  0.155863  0.271244  0.033240
    H   H22  0.357086  0.244993  0.309238  0.089041
    H   H23  0.401078  0.095649  0.222802  0.037938
    C   C25  0.637666  0.131131  0.689768  -0.033647
    C   C26  0.768958  0.080642  0.679049  -0.173490
    H   H24  0.779528  0.975068  0.721977  0.029877
    H   H25  0.794683  0.076122  0.581230  0.129300
    H   H26  0.829884  0.156122  0.727414  0.033570
    H   H27  0.643191  0.245878  0.693294  0.092137
    H   H28  0.600260  0.094964  0.778718  0.037412
