# generated using pymatgen
data_ZnH17C27BrNO4
_symmetry_space_group_name_H-M   'P 1'
_cell_length_a   19.48148700
_cell_length_b   18.28177100
_cell_length_c   11.14063500
_cell_angle_alpha   90.00000000
_cell_angle_beta   90.00737800
_cell_angle_gamma   90.00000000
_symmetry_Int_Tables_number   1
_chemical_formula_structural   ZnH17C27BrNO4
_chemical_formula_sum   'Zn2 H34 C54 Br2 N2 O8'
_cell_volume   3967.80490280
_cell_formula_units_Z   2
loop_
 _symmetry_equiv_pos_site_id
 _symmetry_equiv_pos_as_xyz
  1  'x, y, z'
loop_
 _atom_site_type_symbol
 _atom_site_label
 _atom_site_symmetry_multiplicity
 _atom_site_fract_x
 _atom_site_fract_y
 _atom_site_fract_z
 _atom_site_occupancy
  Zn  Zn1  1  0.50000000  0.58316300  0.50000000  1
  Zn  Zn2  1  0.50000000  0.41656000  0.50000000  1
  H  H1  1  0.50144900  0.38866200  0.88945200  1
  H  H2  1  0.49855100  0.38866200  0.11054800  1
  H  H3  1  0.49711300  0.55614300  0.90563100  1
  H  H4  1  0.50288700  0.55614300  0.09436800  1
  H  H5  1  0.71788800  0.39766400  0.40853000  1
  H  H6  1  0.28211200  0.39766400  0.59146900  1
  H  H7  1  0.84164500  0.39894700  0.40229400  1
  H  H8  1  0.15835500  0.39894700  0.59770500  1
  H  H9  1  0.84180800  0.60083300  0.59897100  1
  H  H10  1  0.15819200  0.60083300  0.40102800  1
  H  H11  1  0.71800200  0.60207900  0.59333800  1
  H  H12  1  0.28199800  0.60207900  0.40666100  1
  H  H13  1  0.93871800  0.61710500  0.49556000  1
  H  H14  1  0.06128200  0.61710500  0.50443900  1
  H  H15  1  0.06125400  0.38269500  0.49495800  1
  H  H16  1  0.93874600  0.38269500  0.50504100  1
  H  H17  1  0.51795400  0.70012800  0.68629300  1
  H  H18  1  0.48204600  0.70012800  0.31370600  1
  H  H19  1  0.51635800  0.83261000  0.68989300  1
  H  H20  1  0.48364200  0.83260900  0.31010600  1
  H  H21  1  0.42010700  0.93384500  0.36890200  1
  H  H22  1  0.57989300  0.93384500  0.63109700  1
  H  H23  1  0.46124600  0.16622200  0.67885100  1
  H  H24  1  0.53875400  0.16622100  0.32114900  1
  H  H25  1  0.46095400  0.30006400  0.67614100  1
  H  H26  1  0.53904600  0.30006400  0.32385800  1
  H  H27  1  0.35295000  0.12788100  0.49399300  1
  H  H28  1  0.26875000  0.18826300  0.36396800  1
  H  H29  1  0.35951600  0.08811400  0.05754500  1
  H  H30  1  0.44466800  0.02832700  0.18676400  1
  H  H31  1  0.64705000  0.12788100  0.50600600  1
  H  H32  1  0.73125000  0.18826300  0.63603100  1
  H  H33  1  0.64048400  0.08811400  0.94245500  1
  H  H34  1  0.55533200  0.02832700  0.81323500  1
  C  C1  1  0.36572200  0.49988200  0.49907700  1
  C  C2  1  0.63427800  0.49988200  0.50092200  1
  C  C3  1  0.50052500  0.49997000  0.26515800  1
  C  C4  1  0.49947400  0.49997000  0.73484100  1
  C  C5  1  0.50025500  0.44149800  0.93345000  1
  C  C6  1  0.49974500  0.44149800  0.06654900  1
  C  C7  1  0.49892700  0.50227300  0.86630600  1
  C  C8  1  0.50107200  0.50227300  0.13369300  1
  C  C9  1  0.74503500  0.44248700  0.45035200  1
  C  C10  1  0.25496500  0.44248700  0.54964700  1
  C  C11  1  0.81580300  0.44308300  0.44810500  1
  C  C12  1  0.18419700  0.44308300  0.55189400  1
  C  C13  1  0.85222100  0.49988500  0.50062500  1
  C  C14  1  0.14777800  0.49988500  0.49937500  1
  C  C15  1  0.81588300  0.55667000  0.55335800  1
  C  C16  1  0.18411700  0.55667000  0.44664100  1
  C  C17  1  0.74510300  0.55724200  0.55147700  1
  C  C18  1  0.25489700  0.55724200  0.44852200  1
  C  C19  1  0.70938800  0.49985800  0.50099500  1
  C  C20  1  0.29061200  0.49985800  0.49900400  1
  C  C21  1  0.96460900  0.56495700  0.49922200  1
  C  C22  1  0.03539100  0.56495700  0.50077700  1
  C  C23  1  0.07180000  0.49990100  0.49965700  1
  C  C24  1  0.92820000  0.49990100  0.50034200  1
  C  C25  1  0.03538500  0.43484900  0.49887600  1
  C  C26  1  0.96461500  0.43484900  0.50112300  1
  C  C27  1  0.51000800  0.72942900  0.60335100  1
  C  C28  1  0.48999200  0.72942900  0.39664800  1
  C  C29  1  0.50992800  0.80485400  0.60502500  1
  C  C30  1  0.49007100  0.80485400  0.39497400  1
  C  C31  1  0.50000000  0.84362300  0.50000000  1
  C  C32  1  0.45644700  0.96258000  0.42495300  1
  C  C33  1  0.54355200  0.96258000  0.57504700  1
  C  C34  1  0.45559200  0.03809400  0.42544700  1
  C  C35  1  0.54440800  0.03809400  0.57455200  1
  C  C36  1  0.50000000  0.07646400  0.50000000  1
  C  C37  1  0.50000000  0.92423700  0.50000000  1
  C  C38  1  0.47871200  0.19506400  0.59983800  1
  C  C39  1  0.52128800  0.19506400  0.40016200  1
  C  C40  1  0.47854800  0.27048900  0.59807500  1
  C  C41  1  0.52145200  0.27048900  0.40192400  1
  C  C42  1  0.50000000  0.15674300  0.50000000  1
  C  C43  1  0.40565800  0.07569800  0.34858500  1
  C  C44  1  0.35557100  0.12004800  0.39795600  1
  C  C45  1  0.30776900  0.15354900  0.32506100  1
  C  C46  1  0.30938000  0.14239500  0.20275400  1
  C  C47  1  0.35850000  0.09725400  0.15339400  1
  C  C48  1  0.40626500  0.06361000  0.22618700  1
  C  C49  1  0.59434200  0.07569800  0.65141400  1
  C  C50  1  0.64442900  0.12004800  0.60204400  1
  C  C51  1  0.69223100  0.15354900  0.67493900  1
  C  C52  1  0.69061900  0.14239500  0.79724500  1
  C  C53  1  0.64150000  0.09725400  0.84660500  1
  C  C54  1  0.59373500  0.06361000  0.77381200  1
  Br  Br1  1  0.24319100  0.18861900  0.10214300  1
  Br  Br2  1  0.75680900  0.18861900  0.89785700  1
  N  N1  1  0.50000000  0.69265700  0.50000000  1
  N  N2  1  0.50000000  0.30710200  0.50000000  1
  O  O1  1  0.39772900  0.56306700  0.49820500  1
  O  O2  1  0.60227100  0.56306700  0.50179400  1
  O  O3  1  0.39773500  0.43670500  0.50034800  1
  O  O4  1  0.60226500  0.43670500  0.49965100  1
  O  O5  1  0.50095500  0.56294000  0.32130400  1
  O  O6  1  0.49904500  0.56294000  0.67869600  1
  O  O7  1  0.49980800  0.43668300  0.32095400  1
  O  O8  1  0.50019200  0.43668300  0.67904500  1
