# generated using pymatgen
data_Fe2H9C39N5O24
_symmetry_space_group_name_H-M   'P 1'
_cell_length_a   16.15542400
_cell_length_b   9.50950500
_cell_length_c   14.91254700
_cell_angle_alpha   87.46627700
_cell_angle_beta   85.27332200
_cell_angle_gamma   108.67193000
_symmetry_Int_Tables_number   1
_chemical_formula_structural   Fe2H9C39N5O24
_chemical_formula_sum   'Fe2 H9 C39 N5 O24'
_cell_volume   2156.99810493
_cell_formula_units_Z   1
loop_
 _symmetry_equiv_pos_site_id
 _symmetry_equiv_pos_as_xyz
  1  'x, y, z'
loop_
 _atom_site_type_symbol
 _atom_site_label
 _atom_site_symmetry_multiplicity
 _atom_site_fract_x
 _atom_site_fract_y
 _atom_site_fract_z
 _atom_site_occupancy
  Fe  Fe1  1  0.52030000  0.00073800  0.13610300  1
  Fe  Fe2  1  0.50899700  0.99397800  0.80149600  1
  H  H1  1  0.92215800  0.91223400  0.82958300  1
  H  H2  1  0.02097100  0.87015600  0.89294500  1
  H  H3  1  0.78238700  0.89381800  0.78416700  1
  H  H4  1  0.24177500  0.08444800  0.14753400  1
  H  H5  1  0.96452500  0.18674600  0.17668700  1
  H  H6  1  0.82578900  0.16075600  0.12885400  1
  H  H7  1  0.46368500  0.13288700  0.56556800  1
  H  H8  1  0.52638700  0.73804600  0.51737300  1
  H  H9  1  0.51429400  0.72200900  0.38220400  1
  C  C1  1  0.87757300  0.93855900  0.87831500  1
  C  C2  1  0.26855100  0.93778300  0.95088200  1
  C  C3  1  0.18418100  0.91109600  0.92461100  1
  C  C4  1  0.12288600  0.95880100  0.97520000  1
  C  C5  1  0.03988800  0.93767800  0.94806400  1
  C  C6  1  0.98100400  0.99662000  0.99333600  1
  C  C7  1  0.79748400  0.93028500  0.85031700  1
  C  C8  1  0.73575800  0.96498000  0.90544500  1
  C  C9  1  0.89949500  0.98753800  0.96244800  1
  C  C10  1  0.83919300  0.03304800  0.01571100  1
  C  C11  1  0.75459800  0.01125800  0.99074800  1
  C  C12  1  0.28589500  0.99411200  0.03458000  1
  C  C13  1  0.22449800  0.03898300  0.08407400  1
  C  C14  1  0.14450400  0.02743900  0.05332000  1
  C  C15  1  0.08489300  0.07897900  0.10231300  1
  C  C16  1  0.00401600  0.06527400  0.07182000  1
  C  C17  1  0.94707700  0.12435200  0.11850000  1
  C  C18  1  0.86555500  0.10672700  0.09162400  1
  C  C19  1  0.68297500  0.01581900  0.05813800  1
  C  C20  1  0.52039200  0.73456200  0.20623500  1
  C  C21  1  0.37084900  0.02408900  0.07057300  1
  C  C22  1  0.49926300  0.20598700  0.25467500  1
  C  C23  1  0.52203400  0.77934500  0.68574600  1
  C  C24  1  0.65043600  0.94410100  0.87211700  1
  C  C25  1  0.48183500  0.24148800  0.72228200  1
  C  C26  1  0.34100100  0.92999500  0.88498900  1
  C  C27  1  0.49671000  0.50764900  0.70045800  1
  C  C28  1  0.50778300  0.63555200  0.64655500  1
  C  C29  1  0.51381600  0.63267600  0.55432500  1
  C  C30  1  0.49085000  0.37483400  0.66168500  1
  C  C31  1  0.49203100  0.37090000  0.56774600  1
  C  C32  1  0.50365500  0.50041800  0.51327600  1
  C  C33  1  0.50521100  0.49372700  0.41903800  1
  C  C34  1  0.51223300  0.61572500  0.35939000  1
  C  C35  1  0.51491900  0.60409200  0.26693800  1
  C  C36  1  0.47952200  0.23819400  0.52731400  1
  C  C37  1  0.49844100  0.35939800  0.38308700  1
  C  C38  1  0.50470200  0.34873600  0.29103900  1
  C  C39  1  0.51282600  0.47016900  0.23276200  1
  N  N1  1  0.48495400  0.23624000  0.43731200  1
  N  N2  1  0.50235200  0.51749700  0.79501100  1
  N  N3  1  0.50787400  0.45092600  0.13895900  1
  N  N4  1  0.16111000  0.83818100  0.84429800  1
  N  N5  1  0.10734700  0.14855900  0.18376100  1
  O  O1  1  0.61130200  0.03547800  0.03279500  1
  O  O2  1  0.53863100  0.73550700  0.11883000  1
  O  O3  1  0.68477300  0.97787200  0.14348800  1
  O  O4  1  0.50884800  0.85373600  0.23849200  1
  O  O5  1  0.40349500  0.91689400  0.08775600  1
  O  O6  1  0.41273500  0.15948100  0.09014300  1
  O  O7  1  0.55365500  0.20219000  0.18517500  1
  O  O8  1  0.43685800  0.08376200  0.28728300  1
  O  O9  1  0.46537100  0.79532300  0.74955000  1
  O  O10  1  0.59112600  0.89344300  0.65581300  1
  O  O11  1  0.62792500  0.05999100  0.84713300  1
  O  O12  1  0.59947100  0.80942900  0.86031100  1
  O  O13  1  0.32936900  0.91724100  0.79930100  1
  O  O14  1  0.52499300  0.14851100  0.70209100  1
  O  O15  1  0.42157300  0.96578300  0.90750400  1
  O  O16  1  0.43530100  0.22175500  0.80086800  1
  O  O17  1  0.56440900  0.48378100  0.83190800  1
  O  O18  1  0.43824700  0.53671400  0.84611800  1
  O  O19  1  0.43807900  0.45583700  0.10298300  1
  O  O20  1  0.57907000  0.46422000  0.08696600  1
  O  O21  1  0.16953100  0.70795600  0.83490300  1
  O  O22  1  0.14448400  0.91034600  0.77565600  1
  O  O23  1  0.16986400  0.27573300  0.18121200  1
  O  O24  1  0.06403100  0.08664800  0.26053400  1
