# generated using pymatgen
data_Zn2H21C38N9O22
_symmetry_space_group_name_H-M   'P 1'
_cell_length_a   10.83722300
_cell_length_b   12.49587300
_cell_length_c   13.70506300
_cell_angle_alpha   86.66265500
_cell_angle_beta   90.01534100
_cell_angle_gamma   101.98251600
_symmetry_Int_Tables_number   1
_chemical_formula_structural   Zn2H21C38N9O22
_chemical_formula_sum   'Zn2 H21 C38 N9 O22'
_cell_volume   1812.29642210
_cell_formula_units_Z   1
loop_
 _symmetry_equiv_pos_site_id
 _symmetry_equiv_pos_as_xyz
  1  'x, y, z'
loop_
 _atom_site_type_symbol
 _atom_site_label
 _atom_site_symmetry_multiplicity
 _atom_site_fract_x
 _atom_site_fract_y
 _atom_site_fract_z
 _atom_site_occupancy
  Zn  Zn1  1  0.47399600  0.38587300  0.47311900  1
  Zn  Zn2  1  0.53267500  0.62535400  0.51965700  1
  H  H1  1  0.85009800  0.33401700  0.46106900  1
  H  H2  1  0.85665500  0.35651600  0.58893100  1
  H  H3  1  0.05233300  0.35329200  0.43714000  1
  H  H4  1  0.91714100  0.48222900  0.34718200  1
  H  H5  1  0.12530600  0.51880400  0.34943900  1
  H  H6  1  0.92940500  0.65540800  0.57517000  1
  H  H7  1  0.88701100  0.53323000  0.64870000  1
  H  H8  1  0.13884100  0.64605200  0.40194100  1
  H  H9  1  0.43388100  0.74515600  0.89011900  1
  H  H10  1  0.49792400  0.80653300  0.04320500  1
  H  H11  1  0.51193900  0.43346100  0.16385400  1
  H  H12  1  0.55739500  0.33537000  0.05935000  1
  H  H13  1  0.54278100  0.20517000  0.94083700  1
  H  H14  1  0.40689900  0.60961300  0.77428600  1
  H  H15  1  0.27805900  0.87044600  0.34223200  1
  H  H16  1  0.23763400  0.04410700  0.31981900  1
  H  H17  1  0.57640300  0.19625300  0.53769000  1
  H  H18  1  0.70736200  0.75531000  0.64755600  1
  H  H19  1  0.67345700  0.08469300  0.60701200  1
  H  H20  1  0.77193000  0.94772100  0.68444100  1
  H  H21  1  0.39098900  0.74528900  0.41465200  1
  C  C1  1  0.49225200  0.44936800  0.68527200  1
  C  C2  1  0.74553700  0.50695500  0.49357200  1
  C  C3  1  0.51592700  0.56218900  0.30805700  1
  C  C4  1  0.26018100  0.50310200  0.50267300  1
  C  C5  1  0.89945700  0.38766300  0.51684500  1
  C  C6  1  0.03932100  0.38537100  0.50913700  1
  C  C7  1  0.94841600  0.54604800  0.40001600  1
  C  C8  1  0.94240200  0.57001800  0.58287300  1
  C  C9  1  0.88331300  0.50477100  0.49756700  1
  C  C10  1  0.12064000  0.50341800  0.50733200  1
  C  C11  1  0.09015500  0.55927000  0.41048900  1
  C  C12  1  0.08274000  0.56621900  0.59425900  1
  C  C13  1  0.50136500  0.72424900  0.07025300  1
  C  C14  1  0.52142800  0.59556800  0.20205200  1
  C  C15  1  0.50196000  0.30983700  0.82249000  1
  C  C16  1  0.52675700  0.28549400  0.91843100  1
  C  C17  1  0.53148500  0.36087800  0.98737100  1
  C  C18  1  0.50354100  0.46251700  0.96339900  1
  C  C19  1  0.47985900  0.48938800  0.86542200  1
  C  C20  1  0.50223000  0.53911800  0.03478200  1
  C  C21  1  0.48663400  0.64275100  0.00554000  1
  C  C22  1  0.45491100  0.66622100  0.91122000  1
  C  C23  1  0.44498500  0.58888100  0.84343700  1
  C  C24  1  0.51304800  0.51522200  0.13497600  1
  C  C25  1  0.52682400  0.70357200  0.16704400  1
  C  C26  1  0.48715900  0.41534900  0.79236800  1
  C  C27  1  0.31303300  0.07612800  0.36852700  1
  C  C28  1  0.66040300  0.81525100  0.61245200  1
  C  C29  1  0.69694300  0.92351600  0.63314300  1
  C  C30  1  0.63939600  0.00141700  0.58851200  1
  C  C31  1  0.54260900  0.97061800  0.52292000  1
  C  C32  1  0.50977100  0.85971100  0.50303200  1
  C  C33  1  0.47771100  0.04633700  0.47608100  1
  C  C34  1  0.38150000  0.00739200  0.41318700  1
  C  C35  1  0.35200400  0.89948300  0.39311500  1
  C  C36  1  0.41657600  0.82726400  0.43603400  1
  C  C37  1  0.50339800  0.15933700  0.48968900  1
  C  C38  1  0.34037500  0.18552300  0.38360900  1
  N  N1  1  0.43590400  0.22680700  0.44334000  1
  N  N2  1  0.56856100  0.78402500  0.54775000  1
  N  N3  1  0.15748400  0.67830000  0.59566700  1
  N  N4  1  0.91414800  0.64622700  0.35977200  1
  N  N5  1  0.55987700  0.79476400  0.22690200  1
  N  N6  1  0.49396600  0.22419900  0.75698500  1
  N  N7  1  0.26351700  0.25215000  0.33649600  1
  N  N8  1  0.07497100  0.30821100  0.58312100  1
  N  N9  1  0.10139100  0.51075800  0.68858200  1
  O  O1  1  0.47286800  0.37312400  0.62125700  1
  O  O2  1  0.52195300  0.55434800  0.65704200  1
  O  O3  1  0.66492500  0.41573400  0.47742400  1
  O  O4  1  0.71034600  0.59840200  0.51195400  1
  O  O5  1  0.49082200  0.45752800  0.33582500  1
  O  O6  1  0.53294200  0.63757100  0.37163000  1
  O  O7  1  0.29668600  0.41405500  0.47986900  1
  O  O8  1  0.34150600  0.59307500  0.51918000  1
  O  O9  1  0.13557700  0.75683200  0.53610000  1
  O  O10  1  0.23161100  0.70412900  0.66905800  1
  O  O11  1  0.85782100  0.64520000  0.27596800  1
  O  O12  1  0.94382800  0.73753900  0.40332800  1
  O  O13  1  0.51020800  0.87980700  0.20820000  1
  O  O14  1  0.66575200  0.80805200  0.27393400  1
  O  O15  1  0.57782700  0.16338600  0.76307800  1
  O  O16  1  0.38519900  0.18441100  0.71906700  1
  O  O17  1  0.31071700  0.31761200  0.26267700  1
  O  O18  1  0.14209800  0.21560900  0.33934400  1
  O  O19  1  0.13100000  0.23313100  0.55388200  1
  O  O20  1  0.01889200  0.29123700  0.66822500  1
  O  O21  1  0.20398500  0.47366700  0.70252800  1
  O  O22  1  0.04287900  0.53254800  0.76553500  1
