# Generated by REPEAT Assigner based on pymatgen
data_DB0-m3_o24_o84_f0_fsc
_audit_creation_date              2022-05-24
_audit_creation_method            REPEAT_Assigner
_cell_length_a                    6.613945
_cell_length_b                    9.143198
_cell_length_c                    13.768004
_cell_angle_alpha                 79.566572
_cell_angle_beta                  100.272698
_cell_angle_gamma                 90.063977
_cell_volume                      805.277201
_symmetry_space_group_name_H-M    P1
_symmetry_Int_Tables_number       1
loop_
    _symmetry_equiv_pos_site_id
    _symmetry_equiv_pos_as_xyz
    1  x,y,z
loop_
    _atom_site_type_symbol
    _atom_site_label
    _atom_site_fract_x
    _atom_site_fract_y
    _atom_site_fract_z
    _atom_type_partial_charge
    O   O1   0.160194  0.896775  0.896630  -0.736043
    O   O2   0.839806  0.103226  0.103370  -0.735881
    O   O3   0.183929  0.145527  0.892502  -0.739142
    O   O4   0.816070  0.854473  0.107498  -0.739121
    C   C1   0.231150  0.025156  0.860744  0.801896
    C   C2   0.768850  0.974845  0.139256  0.801713
    O   O5   0.764204  0.156917  0.885624  -0.732831
    O   O6   0.235795  0.843083  0.114376  -0.732934
    O   O7   0.744458  0.906812  0.894966  -0.733517
    O   O8   0.255541  0.093188  0.105034  -0.733492
    C   C3   0.672354  0.042112  0.854610  0.893107
    C   C4   0.327645  0.957889  0.145389  0.893254
    Zn  Zn1  0.009589  0.161455  0.996258  1.061112
    Zn  Zn2  0.990410  0.838546  0.003742  1.061252
    C   C5   0.171723  0.440555  0.042789  -0.133643
    C   C6   0.828276  0.559445  0.957211  -0.133546
    C   C7   0.029952  0.523227  0.088582  -0.018303
    C   C8   0.970047  0.476773  0.911418  -0.018389
    H   H1   0.055691  0.543068  0.166899  0.074017
    H   H2   0.944308  0.456933  0.833101  0.074042
    H   H3   0.323811  0.388777  0.080300  0.110203
    H   H4   0.676188  0.611223  0.919700  0.110197
    N   N1   0.991478  0.647084  0.003075  0.288030
    N   N2   0.008522  0.352916  0.996925  0.288103
    C   C9   0.132949  0.569386  0.957389  -0.069475
    C   C10  0.867050  0.430614  0.042611  -0.069475
    H   H5   0.250903  0.630464  0.919589  0.092639
    H   H6   0.749096  0.369537  0.080411  0.092643
    C   C11  0.576178  0.088527  0.671317  0.005433
    C   C12  0.423821  0.911474  0.328683  0.005273
    H   H7   0.736054  0.107275  0.667152  0.089875
    H   H8   0.263945  0.892725  0.332848  0.089926
    C   C13  0.436239  0.082928  0.584791  -0.276014
    C   C14  0.563760  0.917072  0.415209  -0.275919
    H   H9   0.486294  0.101513  0.513131  0.141489
    H   H10  0.513706  0.898488  0.486869  0.141416
    C   C15  0.235353  0.046888  0.590070  0.264989
    C   C16  0.764646  0.953112  0.409930  0.264998
    C   C17  0.172531  0.028506  0.681644  -0.270930
    C   C18  0.827468  0.971494  0.318355  -0.271018
    H   H11  0.014485  0.006937  0.687557  0.186310
    H   H12  0.985514  0.993063  0.312443  0.186323
    C   C19  0.310396  0.039545  0.767648  0.046361
    C   C20  0.689603  0.960456  0.232351  0.046465
    C   C21  0.514982  0.063615  0.763514  -0.241747
    C   C22  0.485017  0.936386  0.236485  -0.241782
    C   C23  0.093054  0.028094  0.498420  -0.218037
    C   C24  0.906945  0.971907  0.501580  -0.218148
    H   H13  0.144570  0.059098  0.427499  0.114162
    H   H14  0.855429  0.940902  0.572501  0.114159
