# Generated by REPEAT Assigner based on pymatgen
data_DB0-m2_o4_o17_f0_nbo.sym.8
_audit_creation_date              2022-05-24
_audit_creation_method            REPEAT_Assigner
_cell_length_a                    29.934122
_cell_length_b                    30.638776
_cell_length_c                    21.444029
_cell_angle_alpha                 90.000000
_cell_angle_beta                  134.244302
_cell_angle_gamma                 90.000000
_cell_volume                      14089.076018
_symmetry_space_group_name_H-M    P1
_symmetry_Int_Tables_number       1
loop_
    _symmetry_equiv_pos_site_id
    _symmetry_equiv_pos_as_xyz
    1  x,y,z
loop_
    _atom_site_type_symbol
    _atom_site_label
    _atom_site_fract_x
    _atom_site_fract_y
    _atom_site_fract_z
    _atom_type_partial_charge
    O   O1    0.316836  0.767526  0.141202  -0.588629
    O   O2    0.683164  0.767526  0.858798  -0.588633
    O   O3    0.816836  0.267526  0.141202  -0.588681
    O   O4    0.183164  0.267526  0.858798  -0.588652
    O   O5    0.265583  0.819909  0.033307  -0.586460
    O   O6    0.734417  0.819909  0.966693  -0.586430
    O   O7    0.765583  0.319909  0.033307  -0.586471
    O   O8    0.234417  0.319909  0.966693  -0.586433
    C   C1    0.304498  0.808320  0.115390  0.684766
    C   C2    0.695503  0.808320  0.884610  0.684775
    C   C3    0.804498  0.308320  0.115390  0.684803
    C   C4    0.195503  0.308320  0.884610  0.684800
    O   O9    0.342908  0.724323  0.057120  -0.620535
    O   O10   0.657093  0.724323  0.942879  -0.620577
    O   O11   0.842908  0.224323  0.057120  -0.620596
    O   O12   0.157093  0.224323  0.942879  -0.620583
    O   O13   0.288246  0.775269  0.946653  -0.558128
    O   O14   0.711754  0.775269  0.053347  -0.558058
    O   O15   0.788246  0.275269  0.946653  -0.558149
    O   O16   0.211754  0.275269  0.053347  -0.558056
    C   C5    0.337521  0.750829  0.004033  0.693949
    C   C6    0.662479  0.750829  0.995967  0.693771
    C   C7    0.837521  0.250829  0.004033  0.693988
    C   C8    0.162479  0.250829  0.995967  0.693775
    Cu  Cu1   0.279947  0.718129  0.061080  0.996812
    Cu  Cu2   0.720053  0.718129  0.938920  0.997067
    Cu  Cu3   0.779947  0.218129  0.061080  0.996930
    Cu  Cu4   0.220053  0.218129  0.938920  0.997077
    Cu  Cu5   0.218263  0.778606  0.936503  0.964354
    Cu  Cu6   0.781737  0.778606  0.063497  0.964294
    Cu  Cu7   0.718263  0.278606  0.936503  0.964355
    Cu  Cu8   0.281737  0.278606  0.063497  0.964283
    O   O17   0.230899  0.676915  0.964043  -0.624166
    O   O18   0.769101  0.676915  0.035956  -0.624137
    O   O19   0.730899  0.176915  0.964043  -0.624142
    O   O20   0.269101  0.176915  0.035956  -0.624128
    O   O21   0.183174  0.729242  0.856678  -0.581803
    O   O22   0.816826  0.729242  0.143322  -0.581750
    O   O23   0.683174  0.229242  0.856678  -0.581777
    O   O24   0.316826  0.229242  0.143322  -0.581741
    O   O25   0.211236  0.722763  0.053509  -0.621130
    O   O26   0.788764  0.722763  0.946490  -0.621172
    O   O27   0.711236  0.222763  0.053509  -0.621204
    O   O28   0.288764  0.222763  0.946490  -0.621176
    O   O29   0.154441  0.771206  0.938505  -0.621987
    O   O30   0.845559  0.771206  0.061495  -0.622015
    O   O31   0.654441  0.271206  0.938505  -0.622002
    O   O32   0.345559  0.271206  0.061495  -0.621997
    C   C9    0.193797  0.688489  0.882142  0.759371
    C   C10   0.806203  0.688489  0.117858  0.759191
    C   C11   0.693797  0.188489  0.882142  0.759292
    C   C12   0.306203  0.188489  0.117858  0.759167
    C   C13   0.161745  0.746872  0.995485  0.726427
    C   C14   0.838255  0.746872  0.004515  0.726457
    C   C15   0.661745  0.246872  0.995485  0.726468
    C   C16   0.338255  0.246872  0.004515  0.726443
    C   C17   0.590359  0.791377  0.994962  -0.040900
    C   C18   0.409641  0.791377  0.005038  -0.040904
    C   C19   0.090359  0.291377  0.994962  -0.040910
    C   C20   0.909641  0.291377  0.005038  -0.040919
    C   C21   0.612403  0.751993  0.993630  0.016973
    C   C22   0.387597  0.751993  0.006370  0.016967
    C   C23   0.112403  0.251993  0.993630  0.016985
    C   C24   0.887597  0.251993  0.006370  0.016989
    C   C25   0.588199  0.713361  0.992288  -0.277954
    C   C26   0.411801  0.713361  0.007712  -0.277945
    C   C27   0.088199  0.213361  0.992288  -0.277976
    C   C28   0.911801  0.213361  0.007712  -0.277957
    C   C29   0.543911  0.713699  0.995764  0.196606
    C   C30   0.456089  0.713699  0.004236  0.196538
    C   C31   0.043911  0.213699  0.995764  0.196630
    C   C32   0.956089  0.213699  0.004236  0.196547
    C   C33   0.522285  0.752793  0.998321  -0.009304
    C   C34   0.477715  0.752793  0.001679  -0.009214
    C   C35   0.022285  0.252793  0.998321  -0.009314
    C   C36   0.977715  0.252793  0.001679  -0.009219
    C   C37   0.545043  0.791740  0.997183  0.130699
    C   C38   0.454957  0.791740  0.002817  0.130668
    C   C39   0.045043  0.291740  0.997183  0.130706
    C   C40   0.954957  0.291740  0.002817  0.130667
    C   C41   0.521789  0.674766  0.997669  -0.214886
    C   C42   0.478211  0.674766  0.002331  -0.214879
    C   C43   0.021789  0.174766  0.997669  -0.214901
    C   C44   0.978211  0.174766  0.002331  -0.214881
    C   C45   0.477712  0.830637  0.001328  -0.169268
    C   C46   0.522288  0.830637  0.998672  -0.169279
    C   C47   0.977712  0.330637  0.001328  -0.169261
    C   C48   0.022288  0.330637  0.998672  -0.169282
    H   H1    0.605641  0.682674  0.991559  0.159456
    H   H2    0.394359  0.682674  0.008441  0.159502
    H   H3    0.105641  0.182674  0.991559  0.159463
    H   H4    0.894359  0.182674  0.008441  0.159503
    H   H5    0.538732  0.644077  0.995981  0.143249
    H   H6    0.461268  0.644077  0.004019  0.143238
    H   H7    0.038732  0.144077  0.995981  0.143253
    H   H8    0.961268  0.144077  0.004019  0.143240
    H   H9    0.461591  0.861952  0.001906  0.120646
    H   H10   0.538409  0.861952  0.998094  0.120648
    H   H11   0.961591  0.361952  0.001906  0.120643
    H   H12   0.038409  0.361952  0.998094  0.120647
    C   C49   0.347415  0.839243  0.254787  0.086712
    C   C50   0.652585  0.839243  0.745213  0.086718
    C   C51   0.847415  0.339243  0.254787  0.086711
    C   C52   0.152585  0.339243  0.745213  0.086718
    C   C53   0.336378  0.842597  0.181246  -0.066853
    C   C54   0.663622  0.842597  0.818754  -0.066894
    C   C55   0.836378  0.342597  0.181246  -0.066853
    C   C56   0.163622  0.342597  0.818754  -0.066898
    C   C57   0.357820  0.880021  0.172711  -0.342930
    C   C58   0.642180  0.880021  0.827289  -0.342895
    C   C59   0.857820  0.380021  0.172711  -0.342934
    C   C60   0.142180  0.380021  0.827289  -0.342898
    H   H13   0.350762  0.884312  0.116314  0.239834
    H   H14   0.649238  0.884312  0.883686  0.239811
    H   H15   0.850762  0.384312  0.116314  0.239834
    H   H16   0.149238  0.384312  0.883686  0.239811
    C   C61   0.391299  0.911306  0.238610  0.005125
    C   C62   0.608701  0.911306  0.761390  0.005145
    C   C63   0.891299  0.411306  0.238610  0.005116
    C   C64   0.108701  0.411306  0.761390  0.005147
    H   H17   0.409346  0.939607  0.232094  0.100957
    H   H18   0.590654  0.939607  0.767906  0.100939
    H   H19   0.909346  0.439607  0.232094  0.100961
    H   H20   0.090654  0.439607  0.767906  0.100938
    C   C65   0.400703  0.906697  0.311473  -0.224841
    C   C66   0.599297  0.906697  0.688527  -0.224914
    C   C67   0.900703  0.406697  0.311473  -0.224820
    C   C68   0.099297  0.406697  0.688527  -0.224896
    C   C69   0.376281  0.870160  0.315197  0.228472
    C   C70   0.623719  0.870160  0.684803  0.228445
    C   C71   0.876281  0.370160  0.315197  0.228459
    C   C72   0.123719  0.370160  0.684803  0.228438
    C   C73   0.372595  0.846481  0.371758  -0.234661
    C   C74   0.627405  0.846481  0.628242  -0.234708
    C   C75   0.872595  0.346481  0.371758  -0.234697
    C   C76   0.127405  0.346481  0.628242  -0.234715
    C   C77   0.338088  0.810256  0.300268  -0.118760
    C   C78   0.661912  0.810256  0.699732  -0.118604
    C   C79   0.838088  0.310256  0.300268  -0.118701
    C   C80   0.161912  0.310256  0.699732  -0.118631
    H   H21   0.419123  0.836035  0.434011  0.092983
    H   H22   0.580877  0.836035  0.565988  0.093011
    H   H23   0.919123  0.336035  0.434011  0.092990
    H   H24   0.080877  0.336035  0.565988  0.093011
    H   H25   0.342108  0.863283  0.376248  0.090386
    H   H26   0.657892  0.863283  0.623752  0.090406
    H   H27   0.842108  0.363283  0.376248  0.090394
    H   H28   0.157892  0.363283  0.623752  0.090410
    H   H29   0.365217  0.779559  0.322901  0.076217
    H   H30   0.634783  0.779559  0.677098  0.076143
    H   H31   0.865217  0.279559  0.322901  0.076205
    H   H32   0.134783  0.279559  0.677098  0.076166
    H   H33   0.288176  0.806962  0.264367  0.071901
    H   H34   0.711824  0.806962  0.735633  0.071854
    H   H35   0.788176  0.306962  0.264367  0.071880
    H   H36   0.211824  0.306962  0.735633  0.071864
    C   C81   0.870010  0.745442  0.925483  -0.242216
    C   C82   0.129990  0.745442  0.074517  -0.242139
    C   C83   0.370010  0.245442  0.925483  -0.242203
    C   C84   0.629990  0.245442  0.074517  -0.242143
    C   C85   0.886690  0.747279  0.003836  0.002660
    C   C86   0.113310  0.747279  0.996164  0.002536
    C   C87   0.386690  0.247279  0.003836  0.002649
    C   C88   0.613310  0.247279  0.996164  0.002538
    C   C89   0.948812  0.749447  0.080747  -0.248618
    C   C90   0.051188  0.749447  0.919253  -0.248463
    C   C91   0.448812  0.249447  0.080747  -0.248616
    C   C92   0.551188  0.249447  0.919253  -0.248464
    C   C93   0.994177  0.748526  0.079267  0.207309
    C   C94   0.005823  0.748526  0.920733  0.207241
    C   C95   0.494177  0.248526  0.079267  0.207308
    C   C96   0.505823  0.248526  0.920733  0.207234
    C   C97   0.977357  0.747634  0.000790  -0.023405
    C   C98   0.022643  0.747634  0.999210  -0.023397
    C   C99   0.477357  0.247634  0.000790  -0.023402
    C   C100  0.522643  0.247634  0.999210  -0.023384
    C   C101  0.915240  0.746670  0.923869  0.190506
    C   C102  0.084760  0.746670  0.076131  0.190474
    C   C103  0.415240  0.246670  0.923869  0.190494
    C   C104  0.584760  0.246670  0.076131  0.190460
    C   C105  0.056391  0.748361  0.156210  -0.223666
    C   C106  0.943609  0.748361  0.843790  -0.223636
    C   C107  0.556391  0.248361  0.156210  -0.223670
    C   C108  0.443609  0.248361  0.843790  -0.223635
    C   C109  0.101611  0.746909  0.154638  -0.204609
    C   C110  0.898389  0.746909  0.845362  -0.204645
    C   C111  0.601611  0.246909  0.154638  -0.204600
    C   C112  0.398389  0.246909  0.845362  -0.204637
    H   H37   0.821326  0.744421  0.865079  0.139050
    H   H38   0.178674  0.744421  0.134921  0.138988
    H   H39   0.321326  0.244421  0.865079  0.139048
    H   H40   0.678674  0.244421  0.134921  0.139004
    H   H41   0.961986  0.750374  0.142211  0.142694
    H   H42   0.038014  0.750374  0.857789  0.142628
    H   H43   0.461986  0.250374  0.142211  0.142688
    H   H44   0.538014  0.250374  0.857789  0.142627
    H   H45   0.069972  0.748881  0.217973  0.143895
    H   H46   0.930028  0.748881  0.782027  0.143904
    H   H47   0.569972  0.248881  0.217973  0.143898
    H   H48   0.430028  0.248881  0.782027  0.143904
    H   H49   0.150254  0.746336  0.215202  0.134028
    H   H50   0.849746  0.746336  0.784798  0.134025
    H   H51   0.650254  0.246336  0.215202  0.134023
    H   H52   0.349746  0.246336  0.784798  0.134022
    C   C113  0.138697  0.617919  0.820126  0.206208
    C   C114  0.861303  0.617919  0.179874  0.206100
    C   C115  0.638697  0.117919  0.820126  0.206169
    C   C116  0.361303  0.117919  0.179874  0.206106
    C   C117  0.162727  0.654478  0.815781  -0.231499
    C   C118  0.837273  0.654478  0.184219  -0.231444
    C   C119  0.662727  0.154478  0.815781  -0.231453
    C   C120  0.337273  0.154478  0.184219  -0.231430
    C   C121  0.154602  0.658261  0.743823  -0.097933
    C   C122  0.845398  0.658261  0.256177  -0.097906
    C   C123  0.654602  0.158261  0.743823  -0.097939
    C   C124  0.345398  0.158261  0.256177  -0.097905
    H   H53   0.172878  0.686352  0.737213  0.119944
    H   H54   0.827122  0.686352  0.262787  0.119941
    H   H55   0.672878  0.186352  0.737213  0.119940
    H   H56   0.327122  0.186352  0.262787  0.119938
    C   C125  0.123999  0.625598  0.680463  -0.106464
    C   C126  0.876001  0.625598  0.319537  -0.106479
    C   C127  0.623999  0.125598  0.680463  -0.106455
    C   C128  0.376001  0.125598  0.319537  -0.106474
    H   H57   0.118405  0.628972  0.625153  0.133821
    H   H58   0.881595  0.628972  0.374847  0.133827
    H   H59   0.618405  0.128972  0.625153  0.133822
    H   H60   0.381595  0.128972  0.374847  0.133828
    C   C129  0.098303  0.590014  0.686140  -0.219672
    C   C130  0.901697  0.590014  0.313860  -0.219747
    C   C131  0.598303  0.090014  0.686140  -0.219695
    C   C132  0.401697  0.090014  0.313860  -0.219757
    C   C133  0.106715  0.588116  0.757607  0.129053
    C   C134  0.893285  0.588116  0.242393  0.129147
    C   C135  0.606715  0.088116  0.757607  0.129073
    C   C136  0.393285  0.088116  0.242393  0.129139
    C   C137  0.092436  0.561295  0.799436  -0.176588
    C   C138  0.907564  0.561295  0.200564  -0.176702
    C   C139  0.592436  0.061295  0.799436  -0.176603
    C   C140  0.407564  0.061295  0.200564  -0.176644
    C   C141  0.129664  0.596602  0.872725  -0.146455
    C   C142  0.870336  0.596602  0.127275  -0.146247
    C   C143  0.629664  0.096602  0.872725  -0.146408
    C   C144  0.370336  0.096602  0.127275  -0.146339
    H   H61   0.041957  0.561088  0.761486  0.084376
    H   H62   0.958043  0.561088  0.238514  0.084373
    H   H63   0.541957  0.061088  0.761486  0.084371
    H   H64   0.458043  0.061088  0.238514  0.084352
    H   H65   0.116128  0.529132  0.821271  0.084106
    H   H66   0.883872  0.529132  0.178729  0.084122
    H   H67   0.616128  0.029132  0.821271  0.084112
    H   H68   0.383872  0.029132  0.178729  0.084115
    H   H69   0.099842  0.616247  0.875257  0.066210
    H   H70   0.900158  0.616247  0.124742  0.066162
    H   H71   0.599842  0.116247  0.875257  0.066208
    H   H72   0.400158  0.116247  0.124742  0.066209
    H   H73   0.173992  0.584126  0.935686  0.070960
    H   H74   0.826008  0.584126  0.064314  0.070913
    H   H75   0.673992  0.084126  0.935686  0.070937
    H   H76   0.326008  0.084126  0.064314  0.070930
    O   O33   0.990008  0.543677  0.408312  -0.579843
    O   O34   0.009992  0.543677  0.591688  -0.579855
    O   O35   0.490008  0.043677  0.408312  -0.579823
    O   O36   0.509992  0.043677  0.591688  -0.579834
    O   O37   0.917614  0.543800  0.417470  -0.609358
    O   O38   0.082386  0.543800  0.582530  -0.609353
    O   O39   0.417614  0.043800  0.417470  -0.609336
    O   O40   0.582386  0.043800  0.582530  -0.609334
    C   C145  0.937112  0.556560  0.381353  0.781600
    C   C146  0.062888  0.556560  0.618647  0.781539
    C   C147  0.437112  0.056560  0.381353  0.781592
    C   C148  0.562888  0.056560  0.618647  0.781537
    O   O41   0.487420  0.954130  0.403659  -0.637558
    O   O42   0.512580  0.954130  0.596341  -0.637578
    O   O43   0.987420  0.454130  0.403659  -0.637552
    O   O44   0.012580  0.454130  0.596341  -0.637572
    O   O45   0.415317  0.953965  0.413010  -0.616689
    O   O46   0.584683  0.953965  0.586990  -0.616744
    O   O47   0.915317  0.453965  0.413010  -0.616686
    O   O48   0.084683  0.453965  0.586990  -0.616741
    C   C149  0.437455  0.938526  0.381971  0.742042
    C   C150  0.562545  0.938526  0.618029  0.742200
    C   C151  0.937455  0.438526  0.381971  0.742025
    C   C152  0.062545  0.438526  0.618029  0.742180
    Cu  Cu9   0.541784  0.997703  0.494726  0.981369
    Cu  Cu10  0.458216  0.997703  0.505274  0.981353
    Cu  Cu11  0.041784  0.497703  0.494726  0.981403
    Cu  Cu12  0.958216  0.497703  0.505274  0.981388
    Cl  Cl1   0.617198  0.840382  0.987796  -0.077870
    Cl  Cl2   0.382802  0.840382  0.012204  -0.077864
    Cl  Cl3   0.117198  0.340382  0.987796  -0.077868
    Cl  Cl4   0.882802  0.340382  0.012204  -0.077859
