# generated using pymatgen
data_V2H19C26NO10
_symmetry_space_group_name_H-M   'P 1'
_cell_length_a   20.50292200
_cell_length_b   6.76020300
_cell_length_c   19.90554800
_cell_angle_alpha   90.00000000
_cell_angle_beta   102.03793300
_cell_angle_gamma   90.00000000
_symmetry_Int_Tables_number   1
_chemical_formula_structural   V2H19C26NO10
_chemical_formula_sum   'V4 H38 C52 N2 O20'
_cell_volume   2698.31603289
_cell_formula_units_Z   2
loop_
 _symmetry_equiv_pos_site_id
 _symmetry_equiv_pos_as_xyz
  1  'x, y, z'
loop_
 _atom_site_type_symbol
 _atom_site_label
 _atom_site_symmetry_multiplicity
 _atom_site_fract_x
 _atom_site_fract_y
 _atom_site_fract_z
 _atom_site_occupancy
  V  V1  1  0.49747500  0.88350800  0.48807500  1
  V  V2  1  0.50252500  0.38350800  0.51192500  1
  V  V3  1  0.00146700  0.35508900  0.00855600  1
  V  V4  1  0.99853300  0.85508900  0.99144300  1
  H  H1  1  0.83976700  0.85483700  0.82301600  1
  H  H2  1  0.16023300  0.35483700  0.17698400  1
  H  H3  1  0.82561200  0.46193300  0.87566700  1
  H  H4  1  0.17438800  0.96193300  0.12433300  1
  H  H5  1  0.76508200  0.72237800  0.72480600  1
  H  H6  1  0.23491800  0.22237800  0.27519400  1
  H  H7  1  0.73075500  0.50443500  0.77848000  1
  H  H8  1  0.26924500  0.00443500  0.22152000  1
  H  H9  1  0.67078500  0.76698100  0.62689800  1
  H  H10  1  0.32921400  0.26698000  0.37310200  1
  H  H11  1  0.65708300  0.37308000  0.68068200  1
  H  H12  1  0.34291700  0.87308000  0.31931800  1
  H  H13  1  0.29810200  0.24370500  0.85576700  1
  H  H14  1  0.70189700  0.74370500  0.14423300  1
  H  H15  1  0.20368500  0.81212100  0.77463800  1
  H  H16  1  0.79631500  0.31212000  0.22536200  1
  H  H17  1  0.26473000  0.89065200  0.84930900  1
  H  H18  1  0.73527000  0.39065200  0.15069000  1
  H  H19  1  0.34568200  0.92686800  0.78750000  1
  H  H20  1  0.65431800  0.42686800  0.21250000  1
  H  H21  1  0.29114400  0.78602100  0.72144200  1
  H  H22  1  0.70885600  0.28602200  0.27855800  1
  H  H23  1  0.15493400  0.31569100  0.71082100  1
  H  H24  1  0.84506600  0.81569100  0.28917900  1
  H  H25  1  0.12650700  0.06136100  0.70694600  1
  H  H26  1  0.87349200  0.56136100  0.29305400  1
  H  H27  1  0.20970000  0.22618900  0.62704200  1
  H  H28  1  0.79030000  0.72618800  0.37295800  1
  H  H29  1  0.24116400  0.42966800  0.81160100  1
  H  H30  1  0.75883500  0.92966900  0.18839900  1
  H  H31  1  0.28606300  0.41886200  0.71621600  1
  H  H32  1  0.71393700  0.91886200  0.28378400  1
  H  H33  1  0.20113200  0.96453900  0.64315800  1
  H  H34  1  0.79886800  0.46453900  0.35684200  1
  H  H35  1  0.38181200  0.44033600  0.80143700  1
  H  H36  1  0.38454000  0.19510700  0.81674600  1
  H  H37  1  0.61818800  0.94033600  0.19856300  1
  H  H38  1  0.61546000  0.69510700  0.18325300  1
  C  C1  1  0.58325600  0.60164200  0.42592300  1
  C  C2  1  0.41674400  0.10164200  0.57407700  1
  C  C3  1  0.39840100  0.59818900  0.40845400  1
  C  C4  1  0.60159900  0.09818900  0.59154600  1
  C  C5  1  0.83785000  0.15565000  0.85539200  1
  C  C6  1  0.16215000  0.65565000  0.14460800  1
  C  C7  1  0.65876100  0.07319900  0.64777000  1
  C  C8  1  0.34123900  0.57319900  0.35223000  1
  C  C9  1  0.74123300  0.86510600  0.71522300  1
  C  C10  1  0.25876700  0.36510600  0.28477700  1
  C  C11  1  0.68866600  0.89041200  0.66019100  1
  C  C12  1  0.31133400  0.39041200  0.33980900  1
  C  C13  1  0.68100400  0.23037100  0.69023000  1
  C  C14  1  0.31899600  0.73037100  0.30977000  1
  C  C15  1  0.73296900  0.20459600  0.74559900  1
  C  C16  1  0.26703100  0.70459600  0.25440100  1
  C  C17  1  0.76313500  0.02204100  0.75819800  1
  C  C18  1  0.23686500  0.52204100  0.24180200  1
  C  C19  1  0.81545600  0.99699900  0.81350400  1
  C  C20  1  0.18454300  0.49699900  0.18649600  1
  C  C21  1  0.80753400  0.33769600  0.84285000  1
  C  C22  1  0.19246600  0.83769500  0.15715000  1
  C  C23  1  0.75470100  0.36189700  0.78825900  1
  C  C24  1  0.24529800  0.86189700  0.21174100  1
  C  C25  1  0.26378300  0.28271300  0.80676400  1
  C  C26  1  0.73621700  0.78271300  0.19323600  1
  C  C27  1  0.24208900  0.92470100  0.79495000  1
  C  C28  1  0.75791100  0.42470100  0.20505000  1
  C  C29  1  0.29579900  0.92279700  0.75284600  1
  C  C30  1  0.70420100  0.42279700  0.24715400  1
  C  C31  1  0.37031300  0.08941200  0.61912900  1
  C  C32  1  0.62968700  0.58941200  0.38087100  1
  C  C33  1  0.20975500  0.12725400  0.79002500  1
  C  C34  1  0.79024500  0.62725400  0.20997500  1
  C  C35  1  0.30198300  0.28831800  0.74932200  1
  C  C36  1  0.69801700  0.78831800  0.25067800  1
  C  C37  1  0.28711200  0.10221900  0.70626200  1
  C  C38  1  0.71288800  0.60221900  0.29373800  1
  C  C39  1  0.21538100  0.11038200  0.66730400  1
  C  C40  1  0.78461900  0.61038200  0.33269600  1
  C  C41  1  0.17096500  0.15892600  0.71722600  1
  C  C42  1  0.82903500  0.65892600  0.28277400  1
  C  C43  1  0.33231000  0.09067100  0.65805300  1
  C  C44  1  0.66769000  0.59067100  0.34194700  1
  C  C45  1  0.16475600  0.14011700  0.83840200  1
  C  C46  1  0.83524400  0.64011700  0.16159800  1
  C  C47  1  0.12731700  0.14421000  0.87788800  1
  C  C48  1  0.87268300  0.64421000  0.12211200  1
  C  C49  1  0.10397100  0.63756400  0.08915200  1
  C  C50  1  0.89602900  0.13756400  0.91084800  1
  C  C51  1  0.91803100  0.63749700  0.07580500  1
  C  C52  1  0.08196900  0.13749700  0.92419500  1
  N  N1  1  0.37294700  0.30173900  0.77818500  1
  N  N2  1  0.62705200  0.80173900  0.22181500  1
  O  O1  1  0.42304800  0.43098900  0.43886700  1
  O  O2  1  0.57695200  0.93098900  0.56113300  1
  O  O3  1  0.55755500  0.78111700  0.43010200  1
  O  O4  1  0.44244500  0.28111700  0.56989800  1
  O  O5  1  0.42290100  0.78111200  0.41725200  1
  O  O6  1  0.57709900  0.28111200  0.58274700  1
  O  O7  1  0.43321800  0.93134000  0.54768000  1
  O  O8  1  0.56678200  0.43134000  0.45232000  1
  O  O9  1  0.50615200  0.61695400  0.54081700  1
  O  O10  1  0.49384800  0.11695400  0.45918300  1
  O  O11  1  0.93585100  0.80529500  0.05218400  1
  O  O12  1  0.06414900  0.30529500  0.94781600  1
  O  O13  1  0.07761200  0.46201400  0.07635200  1
  O  O14  1  0.92238800  0.96201400  0.92364800  1
  O  O15  1  0.94223200  0.46352600  0.06634600  1
  O  O16  1  0.05776700  0.96352600  0.93365300  1
  O  O17  1  0.92084200  0.30367700  0.93766400  1
  O  O18  1  0.07915800  0.80367700  0.06233600  1
  O  O19  1  0.99413100  0.62868000  0.95776700  1
  O  O20  1  0.00586900  0.12868000  0.04223300  1
