# Generated by REPEAT Assigner based on pymatgen
data_DB0-m2_o14_o19_f0_pcu.sym.49
_audit_creation_date              2022-05-24
_audit_creation_method            REPEAT_Assigner
_cell_length_a                    11.823194
_cell_length_b                    10.847505
_cell_length_c                    9.497832
_cell_angle_alpha                 89.986569
_cell_angle_beta                  89.996353
_cell_angle_gamma                 89.996440
_cell_volume                      1218.117458
_symmetry_space_group_name_H-M    P1
_symmetry_Int_Tables_number       1
loop_
    _symmetry_equiv_pos_site_id
    _symmetry_equiv_pos_as_xyz
    1  x,y,z
loop_
    _atom_site_type_symbol
    _atom_site_label
    _atom_site_fract_x
    _atom_site_fract_y
    _atom_site_fract_z
    _atom_type_partial_charge
    O   O1   0.506080  0.316347  0.610384  -0.590566
    O   O2   0.504229  0.314928  0.367613  -0.587754
    C   C1   0.507949  0.257806  0.489228  0.829019
    O   O3   0.342965  0.488935  0.611310  -0.566045
    O   O4   0.341168  0.488675  0.367509  -0.477695
    C   C2   0.289616  0.491565  0.489891  0.780075
    Cu  Cu1  0.507526  0.495797  0.628055  0.792954
    Cu  Cu2  0.505333  0.493935  0.345645  0.727284
    O   O5   0.500036  0.674611  0.605972  -0.551138
    O   O6   0.498997  0.673153  0.364889  -0.582135
    O   O7   0.671627  0.493397  0.604888  -0.592680
    O   O8   0.669854  0.490837  0.364766  -0.544867
    C   C3   0.498948  0.731689  0.485064  0.673133
    C   C4   0.723663  0.495911  0.484282  0.876426
    C   C5   0.168245  0.491998  0.490223  -0.292231
    C   C6   0.066343  0.493367  0.488450  0.086043
    C   C7   0.946948  0.495139  0.485549  0.070920
    C   C8   0.845031  0.495814  0.483889  -0.298574
    C   C9   0.324178  0.124705  0.615931  -0.305187
    H   H1   0.318942  0.223813  0.614548  0.175171
    C   C10  0.236326  0.062864  0.679446  0.000234
    H   H2   0.167989  0.114040  0.727416  0.066662
    C   C11  0.234141  0.936445  0.679721  -0.113566
    H   H3   0.164133  0.888160  0.727876  0.109421
    C   C12  0.319508  0.871162  0.615681  -0.265906
    H   H4   0.311366  0.772191  0.613747  0.172157
    C   C13  0.409786  0.932112  0.552901  0.166940
    C   C14  0.412854  0.060299  0.553740  0.228775
    C   C15  0.502287  0.122362  0.488822  -0.317725
    C   C16  0.585061  0.055347  0.418666  0.112882
    H   H5   0.644887  0.875722  0.364130  0.149799
    C   C17  0.579133  0.928541  0.415111  -0.208487
    C   C18  0.494381  0.866557  0.484197  -0.123251
    C   C19  0.650982  0.653856  0.132316  -0.159486
    H   H6   0.657985  0.663173  0.242453  0.130510
    C   C20  0.722361  0.732252  0.062542  -0.105808
    H   H7   0.777278  0.793172  0.121163  0.113654
    C   C21  0.723609  0.733910  0.919925  -0.051059
    H   H8   0.779349  0.795949  0.864061  0.093543
    C   C22  0.653370  0.656753  0.847544  -0.212658
    H   H9   0.659660  0.665413  0.736663  0.142338
    C   C23  0.579964  0.575118  0.915127  0.202494
    C   C24  0.577667  0.572658  0.062474  0.131777
    N   N1   0.506161  0.494074  0.133728  -0.074906
    C   C25  0.433695  0.424624  0.053850  0.087843
    H   H10  0.380656  0.370824  0.848588  0.151547
    C   C26  0.438392  0.427629  0.908226  -0.095536
    N   N2   0.512205  0.499132  0.839143  -0.072046
    C   C27  0.686873  0.116112  0.356177  -0.113364
    C   C28  0.760346  0.164185  0.471199  0.044634
    C   C29  0.862505  0.208226  0.441685  -0.488031
    H   H11  0.663486  0.190544  0.281983  0.085591
    H   H12  0.736326  0.047246  0.295866  0.055760
    H   H13  0.733044  0.157852  0.579916  0.073087
    H   H14  0.891641  0.212482  0.333566  0.198143
    H   H15  0.917602  0.237686  0.526405  0.181079
    C   C30  0.342390  0.343177  0.111534  -0.001321
    C   C31  0.230873  0.405643  0.094956  -0.090451
    C   C32  0.136276  0.347867  0.132007  -0.311717
    H   H16  0.352972  0.315319  0.220988  0.090919
    H   H17  0.341198  0.256404  0.049802  0.044248
    H   H18  0.226753  0.498473  0.052968  0.101957
    H   H19  0.139820  0.255083  0.174218  0.127650
    H   H20  0.055338  0.393618  0.119981  0.119521
