# generated using pymatgen
data_FeH11C27NO10
_symmetry_space_group_name_H-M   'P 1'
_cell_length_a   14.58002300
_cell_length_b   20.71646900
_cell_length_c   11.23358500
_cell_angle_alpha   114.39570600
_cell_angle_beta   94.19588000
_cell_angle_gamma   69.66817200
_symmetry_Int_Tables_number   1
_chemical_formula_structural   FeH11C27NO10
_chemical_formula_sum   'Fe2 H22 C54 N2 O20'
_cell_volume   2887.74095916
_cell_formula_units_Z   2
loop_
 _symmetry_equiv_pos_site_id
 _symmetry_equiv_pos_as_xyz
  1  'x, y, z'
loop_
 _atom_site_type_symbol
 _atom_site_label
 _atom_site_symmetry_multiplicity
 _atom_site_fract_x
 _atom_site_fract_y
 _atom_site_fract_z
 _atom_site_occupancy
  Fe  Fe1  1  0.49868000  0.99897400  0.16100400  1
  Fe  Fe2  1  0.48952000  0.98931200  0.66615200  1
  H  H1  1  0.18639300  0.91398100  0.64594600  1
  H  H2  1  0.05202200  0.92031700  0.76445400  1
  H  H3  1  0.92958000  0.03298600  0.82875700  1
  H  H4  1  0.78003500  0.02094400  0.73354800  1
  H  H5  1  0.22985900  0.03220700  0.21061300  1
  H  H6  1  0.09815300  0.03498500  0.32650000  1
  H  H7  1  0.94684600  0.02215300  0.33607200  1
  H  H8  1  0.80143700  0.00513900  0.24170700  1
  H  H9  1  0.11693200  0.56393900  0.66145000  1
  H  H10  1  0.94031400  0.31301000  0.22525500  1
  H  H11  1  0.82899300  0.40963300  0.16507200  1
  H  H12  1  0.26830700  0.22218000  0.35147900  1
  H  H13  1  0.22055000  0.25097500  0.80140700  1
  H  H14  1  0.12513500  0.35159100  0.73667600  1
  H  H15  1  0.68960600  0.75944300  0.46898600  1
  H  H16  1  0.80574100  0.61305100  0.07732800  1
  H  H17  1  0.64164300  0.70446500  0.91880900  1
  H  H18  1  0.74409900  0.73946300  0.94411000  1
  H  H19  1  0.76477800  0.64296300  0.90888100  1
  H  H20  1  0.03840300  0.70153300  0.55527400  1
  H  H21  1  0.93975800  0.72514500  0.67448800  1
  H  H22  1  0.06531500  0.68454300  0.69947300  1
  C  C1  1  0.25698100  0.96339400  0.81602700  1
  C  C2  1  0.18274900  0.93927100  0.75182300  1
  C  C3  1  0.10282000  0.94616400  0.82068800  1
  C  C4  1  0.88612100  0.01441600  0.87253700  1
  C  C5  1  0.25325700  0.98915500  0.95157700  1
  C  C6  1  0.17106800  0.99793100  0.02113200  1
  C  C7  1  0.09101300  0.98235700  0.95676000  1
  C  C8  1  0.00628800  0.99616400  0.03039100  1
  C  C9  1  0.79829300  0.01145300  0.82137000  1
  C  C10  1  0.73604700  0.99328700  0.87786300  1
  C  C11  1  0.91419000  0.99803400  0.98069700  1
  C  C12  1  0.84303600  0.99357000  0.05059300  1
  C  C13  1  0.75565000  0.98742700  0.99582000  1
  C  C14  1  0.17025200  0.01992100  0.15536800  1
  C  C15  1  0.09455300  0.02184500  0.22300400  1
  C  C16  1  0.01376200  0.00944600  0.16139800  1
  C  C17  1  0.93976100  0.01217600  0.23407400  1
  C  C18  1  0.85696600  0.00105500  0.17820500  1
  C  C19  1  0.68052000  0.97936500  0.06369000  1
  C  C20  1  0.58877300  0.85581500  0.15481300  1
  C  C21  1  0.33501800  0.00744800  0.02327200  1
  C  C22  1  0.37606600  0.10009700  0.38230100  1
  C  C23  1  0.59061700  0.87930900  0.43582300  1
  C  C24  1  0.64991200  0.98029800  0.81155000  1
  C  C25  1  0.35384600  0.11732100  0.65512400  1
  C  C26  1  0.33507500  0.96296700  0.73817400  1
  C  C27  1  0.81455800  0.55339500  0.26411500  1
  C  C28  1  0.87875400  0.64321200  0.41092900  1
  C  C29  1  0.94224600  0.58974000  0.45300600  1
  C  C30  1  0.94182400  0.51632900  0.39421300  1
  C  C31  1  0.87817800  0.49828000  0.29927100  1
  C  C32  1  0.00660600  0.60674800  0.55086100  1
  C  C33  1  0.06784800  0.55049200  0.58582700  1
  C  C34  1  0.06741300  0.47764900  0.52534700  1
  C  C35  1  0.00475900  0.46066300  0.42939200  1
  C  C36  1  0.00529000  0.38751000  0.36902600  1
  C  C37  1  0.94169900  0.36981000  0.27386700  1
  C  C38  1  0.87809100  0.42505600  0.23969500  1
  C  C39  1  0.12920100  0.42164700  0.56087200  1
  C  C40  1  0.06884300  0.33253600  0.40516100  1
  C  C41  1  0.25930000  0.22867900  0.45093000  1
  C  C42  1  0.31275800  0.17030500  0.48548600  1
  C  C43  1  0.29880400  0.17735800  0.61224400  1
  C  C44  1  0.23225300  0.24359100  0.70204800  1
  C  C45  1  0.17890600  0.30125900  0.66629800  1
  C  C46  1  0.19113400  0.29355200  0.54011200  1
  C  C47  1  0.69279700  0.74855400  0.36633700  1
  C  C48  1  0.64099500  0.80588300  0.32882600  1
  C  C49  1  0.64420000  0.79382700  0.19638000  1
  C  C50  1  0.70249400  0.72196300  0.10491700  1
  C  C51  1  0.75682800  0.66666667  0.14674600  1
  C  C52  1  0.75313500  0.67983000  0.27692600  1
  C  C53  1  0.71334300  0.70167800  0.96112600  1
  C  C54  1  0.01229500  0.68411700  0.62355000  1
  N  N1  1  0.81596200  0.62434000  0.31947500  1
  N  N2  1  0.12937200  0.35029800  0.50015200  1
  O  O1  1  0.58719800  0.01810900  0.06444800  1
  O  O2  1  0.58415100  0.84295100  0.03050000  1
  O  O3  1  0.70601300  0.93198100  0.11958300  1
  O  O4  1  0.54839200  0.92584100  0.24183000  1
  O  O5  1  0.41236200  0.95326000  0.03123000  1
  O  O6  1  0.32535400  0.07845900  0.09372900  1
  O  O7  1  0.43957600  0.10174700  0.30767500  1
  O  O8  1  0.36347200  0.03608600  0.35662100  1
  O  O9  1  0.52770000  0.88503100  0.52071000  1
  O  O10  1  0.62295700  0.93523200  0.46301000  1
  O  O11  1  0.59381300  0.02753200  0.76448100  1
  O  O12  1  0.63022000  0.92013600  0.79546200  1
  O  O13  1  0.32370400  0.95145800  0.61494400  1
  O  O14  1  0.43206200  0.06151600  0.58501400  1
  O  O15  1  0.41157300  0.98015600  0.79165400  1
  O  O16  1  0.32673000  0.12089300  0.76715600  1
  O  O17  1  0.74994300  0.53659100  0.17538500  1
  O  O18  1  0.88112100  0.71351100  0.45628400  1
  O  O19  1  0.19060600  0.43783000  0.65481900  1
  O  O20  1  0.06829100  0.26148000  0.34840000  1
