# Generated by REPEAT Assigner based on pymatgen
data_DB0-m2_o25_o26_f0_pcu.sym.78_sqe
_audit_creation_date              2022-05-24
_audit_creation_method            REPEAT_Assigner
_cell_length_a                    14.510202
_cell_length_b                    15.935072
_cell_length_c                    17.393161
_cell_angle_alpha                 90.003031
_cell_angle_beta                  86.286951
_cell_angle_gamma                 90.006931
_cell_volume                      4013.224177
_symmetry_space_group_name_H-M    P1
_symmetry_Int_Tables_number       1
loop_
    _symmetry_equiv_pos_site_id
    _symmetry_equiv_pos_as_xyz
    1  x,y,z
loop_
    _atom_site_type_symbol
    _atom_site_label
    _atom_site_fract_x
    _atom_site_fract_y
    _atom_site_fract_z
    _atom_type_partial_charge
    O   O1   0.421543  0.629217  0.497352  -0.648856
    O   O2   0.581924  0.385629  0.489379  -0.594890
    O   O3   0.580505  0.629527  0.490713  -0.628137
    O   O4   0.422976  0.385319  0.496064  -0.603645
    C   C1   0.500933  0.668472  0.494140  0.877719
    C   C2   0.502542  0.346371  0.492600  0.817727
    O   O5   0.414604  0.509489  0.606002  -0.545085
    O   O6   0.588866  0.505392  0.380749  -0.580973
    O   O7   0.573047  0.503902  0.604665  -0.573654
    O   O8   0.430406  0.510926  0.382094  -0.596721
    C   C3   0.491459  0.506350  0.641518  0.573073
    C   C4   0.511985  0.508542  0.345236  0.620983
    Cu  Cu1  0.409513  0.507226  0.494085  0.954706
    Cu  Cu2  0.593958  0.507619  0.492672  0.944413
    C   C5   0.486142  0.504985  0.726011  0.001506
    C   C6   0.517194  0.510047  0.260739  -0.025641
    C   C7   0.565784  0.499232  0.765172  -0.082577
    C   C8   0.437452  0.515458  0.221665  -0.069754
    C   C9   0.561197  0.497140  0.844575  -0.216700
    C   C10  0.441900  0.517683  0.142266  -0.227065
    C   C11  0.476542  0.501461  0.886099  0.259323
    C   C12  0.526523  0.513870  0.100647  0.271832
    C   C13  0.397084  0.506055  0.846685  -0.233741
    C   C14  0.606067  0.509646  0.139976  -0.243598
    C   C15  0.401620  0.508197  0.767288  -0.089830
    C   C16  0.601665  0.507352  0.219369  -0.075380
    C   C17  0.467010  0.498250  0.970995  -0.223305
    C   C18  0.535951  0.517150  0.015745  -0.232833
    H   H1   0.632750  0.495411  0.734387  0.111148
    H   H2   0.370497  0.518868  0.252513  0.108597
    H   H3   0.665204  0.503594  0.248325  0.113039
    H   H4   0.338140  0.512250  0.738266  0.126448
    H   H5   0.602803  0.535343  0.990132  0.135291
    H   H6   0.400126  0.480107  0.996569  0.139954
    H   H7   0.330395  0.508636  0.878109  0.121327
    H   H8   0.672730  0.507467  0.108482  0.127990
    H   H9   0.378063  0.524635  0.114439  0.128462
    H   H10  0.624928  0.489858  0.872497  0.129880
    C   C19  0.480091  0.034552  0.427895  0.535678
    C   C20  0.523396  0.980290  0.558776  0.547589
    C   C21  0.563264  0.979873  0.438854  -0.156044
    C   C22  0.440223  0.034968  0.547818  -0.164065
    H   H11  0.612076  0.956680  0.391934  0.087135
    H   H12  0.391412  0.058161  0.594739  0.090159
    H   H13  0.655114  0.058312  0.521139  0.112080
    H   H14  0.348372  0.956531  0.465533  0.112287
    C   C23  0.500790  0.758507  0.493779  -0.234859
    C   C24  0.502688  0.256336  0.492934  -0.207166
    C   C25  0.417416  0.979819  0.479299  -0.297013
    C   C26  0.586070  0.035023  0.507374  -0.300619
    C   C27  0.501130  0.925932  0.492284  0.343335
    C   C28  0.502356  0.088910  0.494388  0.368412
    C   C29  0.500852  0.834110  0.493190  -0.208110
    C   C30  0.502631  0.180732  0.493501  -0.224125
    C   C31  0.030464  0.428515  0.507997  -0.247477
    C   C32  0.973170  0.584332  0.480515  -0.242668
    C   C33  0.965273  0.480257  0.562628  -0.241512
    C   C34  0.037812  0.532633  0.425929  -0.247080
    H   H15  0.934492  0.460975  0.619932  0.129376
    H   H16  0.068143  0.551709  0.368423  0.123146
    H   H17  0.055074  0.363617  0.517117  0.132887
    H   H18  0.949038  0.649421  0.471616  0.124117
    N   N1   0.731845  0.508080  0.491914  -0.137240
    N   N2   0.271628  0.506734  0.494873  -0.139499
    C   C35  0.976095  0.457401  0.441718  0.518025
    C   C36  0.027270  0.555292  0.546948  0.511845
    C   C37  0.912181  0.507833  0.494548  0.369762
    C   C38  0.091185  0.505286  0.493765  0.373047
    C   C39  0.811487  0.508074  0.492888  -0.060200
    C   C40  0.191946  0.506122  0.494466  -0.059013
    O   O9   0.055625  0.609093  0.602436  -0.546104
    C   C41  0.101228  0.582010  0.662927  0.799012
    O   O10  0.117224  0.507542  0.671085  -0.531378
    C   C42  0.132241  0.643600  0.720207  -0.464036
    H   H19  0.111688  0.707724  0.703411  0.129557
    H   H20  0.208445  0.640494  0.721858  0.152675
    H   H21  0.099709  0.628421  0.777985  0.140519
    O   O11  0.948122  0.406123  0.384174  -0.554708
    C   C43  0.895949  0.337206  0.399098  0.811702
    O   O12  0.872932  0.317352  0.465270  -0.532168
    C   C44  0.866407  0.284890  0.334184  -0.484630
    H   H22  0.893749  0.312463  0.278773  0.131028
    H   H23  0.789904  0.283025  0.335778  0.158474
    H   H24  0.893565  0.220266  0.339672  0.149674
    O   O13  0.458923  0.064148  0.356997  -0.592141
    C   C45  0.382465  0.110120  0.347256  0.861070
    O   O14  0.328318  0.126026  0.401846  -0.558639
    C   C46  0.363977  0.141479  0.269117  -0.518662
    H   H25  0.420230  0.120860  0.227154  0.138040
    H   H26  0.360761  0.211008  0.269977  0.152303
    H   H27  0.297207  0.115918  0.252050  0.146153
    O   O15  0.544567  0.950690  0.629673  -0.595072
    C   C47  0.621025  0.904715  0.639408  0.867121
    O   O16  0.675169  0.888812  0.584815  -0.558821
    C   C48  0.639515  0.873347  0.717543  -0.517143
    H   H28  0.583262  0.893959  0.759509  0.136930
    H   H29  0.706284  0.898907  0.734612  0.147462
    H   H30  0.642733  0.803818  0.716675  0.148557
