# generated using pymatgen
data_Cd4H24C31O19
_symmetry_space_group_name_H-M   'P 1'
_cell_length_a   12.44385700
_cell_length_b   12.89122000
_cell_length_c   12.74616000
_cell_angle_alpha   81.90448000
_cell_angle_beta   64.15984600
_cell_angle_gamma   114.91204800
_symmetry_Int_Tables_number   1
_chemical_formula_structural   Cd4H24C31O19
_chemical_formula_sum   'Cd4 H24 C31 O19'
_cell_volume   1531.54521776
_cell_formula_units_Z   1
loop_
 _symmetry_equiv_pos_site_id
 _symmetry_equiv_pos_as_xyz
  1  'x, y, z'
loop_
 _atom_site_type_symbol
 _atom_site_label
 _atom_site_symmetry_multiplicity
 _atom_site_fract_x
 _atom_site_fract_y
 _atom_site_fract_z
 _atom_site_occupancy
  Cd  Cd1  1  0.75291600  0.28155500  0.02963100  1
  Cd  Cd2  1  0.22028700  0.66946300  0.95576300  1
  Cd  Cd3  1  0.82060100  0.50790500  0.19049200  1
  Cd  Cd4  1  0.15233100  0.44238200  0.79556300  1
  H  H1  1  0.50051200  0.67314100  0.96098800  1
  H  H2  1  0.47430200  0.27892900  0.02372800  1
  H  H3  1  0.24013200  0.30506600  0.13487400  1
  H  H4  1  0.38758800  0.49210100  0.19683700  1
  H  H5  1  0.85780900  0.36135500  0.41304600  1
  H  H6  1  0.09871400  0.59507100  0.38647600  1
  H  H7  1  0.75734400  0.29577500  0.64531400  1
  H  H8  1  0.05985700  0.49131300  0.56114200  1
  H  H9  1  0.29997300  0.89480400  0.70564700  1
  H  H10  1  0.50240800  0.86806500  0.48167400  1
  H  H11  1  0.46405000  0.12303800  0.57455400  1
  H  H12  1  0.57306300  0.04725300  0.35222700  1
  H  H13  1  0.08085700  0.95394800  0.89944600  1
  H  H14  1  0.75129200  0.91607900  0.13951800  1
  H  H15  1  0.06467800  0.11397300  0.93860700  1
  H  H16  1  0.85266100  0.82633400  0.28292600  1
  H  H17  1  0.87304600  0.71157000  0.22790200  1
  H  H18  1  0.64520600  0.70635000  0.35877100  1
  H  H19  1  0.78672300  0.72861700  0.74079900  1
  H  H20  1  0.84242200  0.63831600  0.79900400  1
  H  H21  1  0.84744000  0.83682200  0.82839200  1
  H  H22  1  0.70693300  0.46611400  0.72888000  1
  H  H23  1  0.62827400  0.53671400  0.68235100  1
  H  H24  1  0.53507000  0.28655900  0.79137500  1
  C  C1  1  0.88859900  0.37665200  0.76016600  1
  C  C2  1  0.07737100  0.79948700  0.99760600  1
  C  C3  1  0.64343800  0.47026300  0.09434900  1
  C  C4  1  0.32160700  0.70778500  0.65946900  1
  C  C5  1  0.08640700  0.57334600  0.22512100  1
  C  C6  1  0.89472100  0.15041300  0.99255300  1
  C  C7  1  0.32975700  0.48053800  0.89138300  1
  C  C8  1  0.65136900  0.24217300  0.32502400  1
  C  C9  1  0.61852700  0.56786900  0.91621800  1
  C  C10  1  0.49385000  0.58322300  0.97635500  1
  C  C11  1  0.41564500  0.48018000  0.94420000  1
  C  C12  1  0.54026000  0.46624900  0.88374000  1
  C  C13  1  0.47970300  0.36829200  0.00931500  1
  C  C14  1  0.35324200  0.38252300  0.07049400  1
  C  C15  1  0.43269900  0.48539400  0.10332400  1
  C  C16  1  0.55791800  0.47131200  0.04137800  1
  C  C17  1  0.91885400  0.42034400  0.44399100  1
  C  C18  1  0.03524000  0.53250100  0.35964900  1
  C  C19  1  0.86665100  0.37286200  0.57968700  1
  C  C20  1  0.94816100  0.41929400  0.62385000  1
  C  C21  1  0.38845100  0.92545800  0.61088000  1
  C  C22  1  0.41437300  0.84122500  0.57531200  1
  C  C23  1  0.47546000  0.06027700  0.52868200  1
  C  C24  1  0.56286200  0.10722800  0.40210800  1
  C  C25  1  0.91251400  0.86869500  0.09131300  1
  C  C26  1  0.02502200  0.88136700  0.99172300  1
  C  C27  1  0.86263000  0.95140600  0.07498900  1
  C  C28  1  0.95063900  0.07093400  0.99370100  1
  C  C29  1  0.83547400  0.77491400  0.22317500  1
  C  C30  1  0.77242800  0.67484900  0.82697400  1
  C  C31  1  0.60590300  0.45874000  0.75543000  1
  O  O1  1  0.96171000  0.43421200  0.80391700  1
  O  O2  1  0.75189600  0.29862900  0.84749300  1
  O  O3  1  0.00571700  0.68452700  0.01163700  1
  O  O4  1  0.21479600  0.84730600  0.93936600  1
  O  O5  1  0.74866000  0.45606600  0.03657400  1
  O  O6  1  0.64934400  0.52272300  0.17483200  1
  O  O7  1  0.21892000  0.66292400  0.77795000  1
  O  O8  1  0.31708800  0.62227400  0.61274700  1
  O  O9  1  0.01187000  0.51641800  0.18179100  1
  O  O10  1  0.22223800  0.65298900  0.13726700  1
  O  O11  1  0.96708200  0.26628400  0.97478000  1
  O  O12  1  0.75778400  0.10336800  0.04654700  1
  O  O13  1  0.22460300  0.49481600  0.94905700  1
  O  O14  1  0.32317300  0.42724500  0.81159900  1
  O  O15  1  0.75429300  0.28783000  0.20726700  1
  O  O16  1  0.65604500  0.32716000  0.37290700  1
  O  O17  1  0.69031800  0.70463500  0.27359800  1
  O  O18  1  0.80843800  0.75293400  0.88728400  1
  O  O19  1  0.51331500  0.34543200  0.76116000  1
