data_DB0-m3_o11_o29_f0_pcu.sym.13_repeat
_audit_creation_date              2024-02-20
_audit_creation_method            'Materials Studio'
_symmetry_space_group_name_H-M    'P1'
_symmetry_Int_Tables_number       1
_symmetry_cell_setting            triclinic
loop_
_symmetry_equiv_pos_as_xyz
  x,y,z
_cell_length_a                    27.6033
_cell_length_b                    11.1359
_cell_length_c                    9.9027
_cell_angle_alpha                 89.9974
_cell_angle_beta                  89.9930
_cell_angle_gamma                 89.9936
loop_
_atom_site_label
_atom_site_type_symbol
_atom_site_fract_x
_atom_site_fract_y
_atom_site_fract_z
_atom_site_U_iso_or_equiv
_atom_site_adp_type
_atom_site_occupancy
O1     O     0.50313   0.32509   0.61932   0.00000  Uiso   1.00
O2     O     0.50460   0.32256   0.38676   0.00000  Uiso   1.00
C1     C     0.50488   0.26770   0.50391   0.00000  Uiso   1.00
O3     O     0.42682   0.49367   0.60755   0.00000  Uiso   1.00
O4     O     0.42905   0.49299   0.37498   0.00000  Uiso   1.00
C2     C     0.40528   0.49042   0.48967   0.00000  Uiso   1.00
Zn1    Zn    0.49831   0.50420   0.65208   0.00000  Uiso   1.00
Zn2    Zn    0.50160   0.50055   0.34495   0.00000  Uiso   1.00
O5     O     0.49491   0.68203   0.61073   0.00000  Uiso   1.00
O6     O     0.49806   0.68017   0.37728   0.00000  Uiso   1.00
O7     O     0.57084   0.51403   0.62237   0.00000  Uiso   1.00
O8     O     0.57315   0.50937   0.38913   0.00000  Uiso   1.00
C3     C     0.49516   0.73684   0.49363   0.00000  Uiso   1.00
C4     C     0.59462   0.51420   0.50733   0.00000  Uiso   1.00
C5     C     0.17577   0.38214   0.49969   0.00000  Uiso   1.00
O9     O     0.20093   0.27929   0.51021   0.00000  Uiso   1.00
N1     N     0.20031   0.48563   0.48448   0.00000  Uiso   1.00
C6     C     0.17684   0.59084   0.47292   0.00000  Uiso   1.00
C7     C     0.27726   0.50939   0.36771   0.00000  Uiso   1.00
C8     C     0.32725   0.50919   0.36838   0.00000  Uiso   1.00
C9     C     0.32663   0.46106   0.60351   0.00000  Uiso   1.00
C10    C     0.27672   0.45906   0.60188   0.00000  Uiso   1.00
C11    C     0.25192   0.48412   0.48439   0.00000  Uiso   1.00
C12    C     0.10063   0.49000   0.49280   0.00000  Uiso   1.00
C13    C     0.12531   0.38228   0.50246   0.00000  Uiso   1.00
C14    C     0.09906   0.27718   0.51676   0.00000  Uiso   1.00
C15    C     0.12685   0.59453   0.47839   0.00000  Uiso   1.00
C16    C     0.35220   0.48605   0.48671   0.00000  Uiso   1.00
H1     H     0.34523   0.44222   0.69715   0.00000  Uiso   1.00
H2     H     0.25702   0.43983   0.69374   0.00000  Uiso   1.00
C17    C     0.64773   0.51675   0.51024   0.00000  Uiso   1.00
C18    C     0.97337   0.39102   0.49928   0.00000  Uiso   1.00
C19    C     0.97589   0.60682   0.51138   0.00000  Uiso   1.00
C20    C     0.94966   0.50063   0.50767   0.00000  Uiso   1.00
C21    C     0.94562   0.28734   0.48442   0.00000  Uiso   1.00
C22    C     0.89593   0.29232   0.48440   0.00000  Uiso   1.00
C23    C     0.87256   0.40037   0.49997   0.00000  Uiso   1.00
C24    C     0.89931   0.50411   0.51193   0.00000  Uiso   1.00
C25    C     0.87515   0.61138   0.52759   0.00000  Uiso   1.00
C26    C     0.82503   0.61348   0.53157   0.00000  Uiso   1.00
N2     N     0.79960   0.51114   0.51739   0.00000  Uiso   1.00
C27    C     0.82248   0.40537   0.50140   0.00000  Uiso   1.00
C28    C     0.72358   0.48936   0.39713   0.00000  Uiso   1.00
C29    C     0.67369   0.49137   0.39423   0.00000  Uiso   1.00
C30    C     0.67230   0.54216   0.62860   0.00000  Uiso   1.00
C31    C     0.72231   0.54235   0.63052   0.00000  Uiso   1.00
C32    C     0.74802   0.51485   0.51506   0.00000  Uiso   1.00
O10    O     0.79630   0.30427   0.48865   0.00000  Uiso   1.00
C33    C     0.02404   0.38755   0.50439   0.00000  Uiso   1.00
C34    C     0.05021   0.49363   0.49779   0.00000  Uiso   1.00
C35    C     0.02630   0.60340   0.49631   0.00000  Uiso   1.00
C36    C     0.04934   0.28017   0.51737   0.00000  Uiso   1.00
H3     H     0.65546   0.47049   0.30059   0.00000  Uiso   1.00
H4     H     0.74354   0.46823   0.30625   0.00000  Uiso   1.00
H5     H     0.87592   0.20969   0.47185   0.00000  Uiso   1.00
H6     H     0.96094   0.19993   0.46705   0.00000  Uiso   1.00
H7     H     0.03192   0.19508   0.53370   0.00000  Uiso   1.00
O11    O     0.20245   0.69277   0.45956   0.00000  Uiso   1.00
C37    C     0.10306   0.70261   0.46886   0.00000  Uiso   1.00
H8     H     0.34642   0.52970   0.27605   0.00000  Uiso   1.00
H9     H     0.25798   0.52893   0.27527   0.00000  Uiso   1.00
H10    H     0.12265   0.78563   0.45455   0.00000  Uiso   1.00
C38    C     0.95087   0.71409   0.53123   0.00000  Uiso   1.00
C39    C     0.90121   0.71598   0.53958   0.00000  Uiso   1.00
O12    O     0.80135   0.71815   0.54585   0.00000  Uiso   1.00
C40    C     0.05352   0.70737   0.47812   0.00000  Uiso   1.00
H11    H     0.96849   0.79920   0.54570   0.00000  Uiso   1.00
H12    H     0.65282   0.56263   0.72043   0.00000  Uiso   1.00
H13    H     0.88336   0.80123   0.55499   0.00000  Uiso   1.00
H14    H     0.74129   0.56191   0.72344   0.00000  Uiso   1.00
H15    H     0.03776   0.79494   0.46548   0.00000  Uiso   1.00
C41    C     0.50422   0.93722   0.39279   0.00000  Uiso   1.00
C42    C     0.49127   0.86792   0.49685   0.00000  Uiso   1.00
H16    H     0.51526   0.89542   0.29888   0.00000  Uiso   1.00
H17    H     0.47719   0.90655   0.58881   0.00000  Uiso   1.00
C43    C     0.50129   0.06995   0.39675   0.00000  Uiso   1.00
C44    C     0.50856   0.13629   0.50831   0.00000  Uiso   1.00
H18    H     0.49452   0.11496   0.30162   0.00000  Uiso   1.00
C45    C     0.52447   0.57614   0.92301   0.00000  Uiso   1.00
N3     N     0.49589   0.50891   0.85388   0.00000  Uiso   1.00
H19    H     0.55076   0.63171   0.87103   0.00000  Uiso   1.00
H20    H     0.46753   0.46976   0.90459   0.00000  Uiso   1.00
C46    C     0.52069   0.58487   0.07173   0.00000  Uiso   1.00
N4     N     0.50468   0.49713   0.14317   0.00000  Uiso   1.00
H21    H     0.53365   0.66540   0.12137   0.00000  Uiso   1.00
H22    H     0.49851   0.41752   0.09373   0.00000  Uiso   1.00
O13    O     0.52230   0.08435   0.62771   0.00000  Uiso   1.00
H23    H     0.49413   0.09526   0.68845   0.00000  Uiso   1.00
O14    O     0.12133   0.16825   0.53059   0.00000  Uiso   1.00
H24    H     0.12036   0.13266   0.43899   0.00000  Uiso   1.00
