data_DB0-m3_o520_o156_f0_fsc.sym.13_repeat
_audit_creation_date              2024-02-20
_audit_creation_method            'Materials Studio'
_symmetry_space_group_name_H-M    'P1'
_symmetry_Int_Tables_number       1
_symmetry_cell_setting            triclinic
loop_
_symmetry_equiv_pos_as_xyz
  x,y,z
_cell_length_a                    17.4718
_cell_length_b                    8.5473
_cell_length_c                    14.9965
_cell_angle_alpha                 90.0000
_cell_angle_beta                  90.9848
_cell_angle_gamma                 90.0000
loop_
_atom_site_label
_atom_site_type_symbol
_atom_site_fract_x
_atom_site_fract_y
_atom_site_fract_z
_atom_site_U_iso_or_equiv
_atom_site_adp_type
_atom_site_occupancy
H1     H     0.03055   0.00001   0.56229   0.00000  Uiso   1.00
H2     H     0.96946   0.00001   0.43772   0.00000  Uiso   1.00
C1     C     0.00946   0.13955   0.67581   0.00000  Uiso   1.00
C2     C     0.99054   0.86046   0.32420   0.00000  Uiso   1.00
C3     C     0.99053   0.13955   0.32419   0.00000  Uiso   1.00
C4     C     0.00947   0.86046   0.67581   0.00000  Uiso   1.00
C5     C     0.99923   0.14050   0.76676   0.00000  Uiso   1.00
C6     C     0.00077   0.85950   0.23324   0.00000  Uiso   1.00
C7     C     0.00076   0.14050   0.23323   0.00000  Uiso   1.00
C8     C     0.99925   0.85951   0.76676   0.00000  Uiso   1.00
H3     H     0.99404   0.25107   0.80108   0.00000  Uiso   1.00
H4     H     0.00597   0.74891   0.19896   0.00000  Uiso   1.00
H5     H     0.00594   0.25108   0.19894   0.00000  Uiso   1.00
H6     H     0.99407   0.74894   0.80108   0.00000  Uiso   1.00
C9     C     0.99811   0.00001   0.81316   0.00000  Uiso   1.00
C10    C     0.00190   0.99999   0.18684   0.00000  Uiso   1.00
C11    C     0.01938   0.00001   0.63242   0.00000  Uiso   1.00
C12    C     0.98063   0.00001   0.36758   0.00000  Uiso   1.00
N1     N     0.99883   0.86393   0.95592   0.00000  Uiso   1.00
N2     N     0.00117   0.13606   0.04409   0.00000  Uiso   1.00
N3     N     0.00121   0.86393   0.04408   0.00000  Uiso   1.00
N4     N     0.99878   0.13607   0.95593   0.00000  Uiso   1.00
C13    C     0.00276   0.99999   0.08917   0.00000  Uiso   1.00
C14    C     0.99724   0.00000   0.91084   0.00000  Uiso   1.00
O1     O     0.06972   0.66925   0.58606   0.00000  Uiso   1.00
O2     O     0.93028   0.33076   0.41393   0.00000  Uiso   1.00
O3     O     0.93029   0.66924   0.41393   0.00000  Uiso   1.00
O4     O     0.06971   0.33076   0.58606   0.00000  Uiso   1.00
O5     O     0.93834   0.66338   0.59902   0.00000  Uiso   1.00
O6     O     0.06166   0.33663   0.40098   0.00000  Uiso   1.00
O7     O     0.06167   0.66337   0.40098   0.00000  Uiso   1.00
O8     O     0.93833   0.33663   0.59902   0.00000  Uiso   1.00
C15    C     0.00611   0.71835   0.62181   0.00000  Uiso   1.00
C16    C     0.99389   0.28166   0.37818   0.00000  Uiso   1.00
C17    C     0.99390   0.71834   0.37818   0.00000  Uiso   1.00
C18    C     0.00610   0.28166   0.62182   0.00000  Uiso   1.00
Zn1    Zn    0.91491   0.50000   0.50545   0.00000  Uiso   1.00
Zn2    Zn    0.08509   0.50000   0.49455   0.00000  Uiso   1.00
C19    C     0.77693   0.50013   0.43017   0.00000  Uiso   1.00
C20    C     0.22307   0.49984   0.56983   0.00000  Uiso   1.00
N5     N     0.81467   0.50001   0.50926   0.00000  Uiso   1.00
N6     N     0.18533   0.49998   0.49073   0.00000  Uiso   1.00
C21    C     0.77626   0.49993   0.58634   0.00000  Uiso   1.00
C22    C     0.22374   0.50004   0.41366   0.00000  Uiso   1.00
C23    C     0.65909   0.50034   0.34531   0.00000  Uiso   1.00
C24    C     0.34091   0.49965   0.65470   0.00000  Uiso   1.00
C25    C     0.69792   0.50018   0.42645   0.00000  Uiso   1.00
C26    C     0.30207   0.49980   0.57355   0.00000  Uiso   1.00
C27    C     0.65783   0.50005   0.50454   0.00000  Uiso   1.00
C28    C     0.34217   0.49994   0.49546   0.00000  Uiso   1.00
C29    C     0.69714   0.49995   0.58497   0.00000  Uiso   1.00
C30    C     0.30286   0.50002   0.41503   0.00000  Uiso   1.00
C31    C     0.65730   0.49990   0.66358   0.00000  Uiso   1.00
C32    C     0.34269   0.50011   0.33642   0.00000  Uiso   1.00
C33    C     0.54051   0.50024   0.26204   0.00000  Uiso   1.00
C34    C     0.45949   0.49972   0.73796   0.00000  Uiso   1.00
C35    C     0.57994   0.50025   0.34279   0.00000  Uiso   1.00
C36    C     0.42006   0.49975   0.65721   0.00000  Uiso   1.00
C37    C     0.53994   0.50014   0.42138   0.00000  Uiso   1.00
C38    C     0.46005   0.49987   0.57861   0.00000  Uiso   1.00
C39    C     0.46163   0.50025   0.26006   0.00000  Uiso   1.00
C40    C     0.53837   0.49975   0.73994   0.00000  Uiso   1.00
C41    C     0.42173   0.50018   0.33858   0.00000  Uiso   1.00
C42    C     0.57827   0.49985   0.66142   0.00000  Uiso   1.00
C43    C     0.57892   0.50004   0.50221   0.00000  Uiso   1.00
C44    C     0.42108   0.49998   0.49779   0.00000  Uiso   1.00
C45    C     0.53906   0.49991   0.58076   0.00000  Uiso   1.00
C46    C     0.46094   0.50011   0.41924   0.00000  Uiso   1.00
H7     H     0.80934   0.50005   0.36949   0.00000  Uiso   1.00
H8     H     0.19065   0.49982   0.63050   0.00000  Uiso   1.00
H9     H     0.68796   0.49982   0.72681   0.00000  Uiso   1.00
H10    H     0.31202   0.50020   0.27320   0.00000  Uiso   1.00
H11    H     0.57060   0.50019   0.19969   0.00000  Uiso   1.00
H12    H     0.42941   0.49973   0.80031   0.00000  Uiso   1.00
H13    H     0.43130   0.50027   0.19662   0.00000  Uiso   1.00
H14    H     0.56870   0.49975   0.80338   0.00000  Uiso   1.00
H15    H     0.80753   0.49987   0.64916   0.00000  Uiso   1.00
H16    H     0.19246   0.50013   0.35083   0.00000  Uiso   1.00
O9     O     0.69890   0.50066   0.26764   0.00000  Uiso   1.00
H17    H     0.70616   0.61285   0.25371   0.00000  Uiso   1.00
O10    O     0.30111   0.49937   0.73238   0.00000  Uiso   1.00
H18    H     0.29397   0.38718   0.74641   0.00000  Uiso   1.00
