# generated using pymatgen
data_CuH8C22(NO2)4
_symmetry_space_group_name_H-M   'P 1'
_cell_length_a   23.42126300
_cell_length_b   14.43724400
_cell_length_c   13.01511600
_cell_angle_alpha   90.00000000
_cell_angle_beta   90.00000000
_cell_angle_gamma   90.00000000
_symmetry_Int_Tables_number   1
_chemical_formula_structural   CuH8C22(NO2)4
_chemical_formula_sum   'Cu2 H16 C44 N8 O16'
_cell_volume   4400.91165474
_cell_formula_units_Z   2
loop_
 _symmetry_equiv_pos_site_id
 _symmetry_equiv_pos_as_xyz
  1  'x, y, z'
loop_
 _atom_site_type_symbol
 _atom_site_label
 _atom_site_symmetry_multiplicity
 _atom_site_fract_x
 _atom_site_fract_y
 _atom_site_fract_z
 _atom_site_occupancy
  Cu  Cu1  1  0.50016300  0.50165100  0.60098100  1
  Cu  Cu2  1  0.49949000  0.50162800  0.39562600  1
  H  H1  1  0.94682600  0.26526700  0.51157600  1
  H  H2  1  0.05226700  0.72531500  0.51103900  1
  H  H3  1  0.94930000  0.72671100  0.50910300  1
  H  H4  1  0.04987900  0.26384800  0.50764200  1
  H  H5  1  0.21228000  0.58044100  0.37278800  1
  H  H6  1  0.78589300  0.41415400  0.37358500  1
  H  H7  1  0.21545200  0.40562900  0.63436700  1
  H  H8  1  0.78444700  0.58543000  0.63874200  1
  H  H9  1  0.39621700  0.67496500  0.33362400  1
  H  H10  1  0.34626400  0.74114700  0.39037200  1
  H  H11  1  0.64442300  0.27367600  0.34060000  1
  H  H12  1  0.70556800  0.28776700  0.27353300  1
  H  H13  1  0.40151000  0.31879700  0.66555600  1
  H  H14  1  0.35260400  0.25030300  0.60942700  1
  H  H15  1  0.59783900  0.67673000  0.66647600  1
  H  H16  1  0.64644500  0.74847900  0.61440800  1
  C  C1  1  0.50270600  0.32394700  0.49856200  1
  C  C2  1  0.49712200  0.67936400  0.49799300  1
  C  C3  1  0.38977900  0.49696200  0.49976800  1
  C  C4  1  0.60983400  0.50657800  0.49676300  1
  C  C5  1  0.88196000  0.57811400  0.50761300  1
  C  C6  1  0.11730500  0.41259300  0.50471600  1
  C  C7  1  0.88096500  0.41576300  0.51254400  1
  C  C8  1  0.11808100  0.57493400  0.51035900  1
  C  C9  1  0.94004800  0.41380700  0.51126800  1
  C  C10  1  0.05905100  0.57673200  0.51017800  1
  C  C11  1  0.94097900  0.57832200  0.50955700  1
  C  C12  1  0.05823700  0.41222300  0.50798400  1
  C  C13  1  0.97012200  0.49564500  0.51037800  1
  C  C14  1  0.02903700  0.49485500  0.50965500  1
  C  C15  1  0.96928700  0.33061800  0.51098900  1
  C  C16  1  0.02984400  0.65992800  0.51077100  1
  C  C17  1  0.97104000  0.66072200  0.50953100  1
  C  C18  1  0.02813000  0.32982600  0.50855800  1
  C  C19  1  0.23630500  0.54176000  0.42922000  1
  C  C20  1  0.76261400  0.45289100  0.43101100  1
  C  C21  1  0.23807600  0.44472400  0.57644700  1
  C  C22  1  0.76148800  0.54884100  0.57924000  1
  C  C23  1  0.29518500  0.54648800  0.42928600  1
  C  C24  1  0.70392700  0.45735500  0.42482900  1
  C  C25  1  0.29700100  0.44198200  0.57323600  1
  C  C26  1  0.70277900  0.55659700  0.57310100  1
  C  C27  1  0.32663200  0.49491500  0.50059700  1
  C  C28  1  0.67293800  0.50915800  0.49637000  1
  C  C29  1  0.20747300  0.49303400  0.50384300  1
  C  C30  1  0.79171800  0.49861500  0.50759800  1
  C  C31  1  0.50259900  0.22457700  0.49841300  1
  C  C32  1  0.49727800  0.77872600  0.49808900  1
  C  C33  1  0.50188600  0.14113400  0.49831900  1
  C  C34  1  0.49803100  0.86216500  0.49813400  1
  C  C35  1  0.50059700  0.04336800  0.49822600  1
  C  C36  1  0.49936000  0.95993000  0.49817300  1
  C  C37  1  0.49919800  0.50156200  0.15307500  1
  C  C38  1  0.50048200  0.50177400  0.84353100  1
  C  C39  1  0.49960900  0.50167500  0.04459300  1
  C  C40  1  0.50002600  0.50174700  0.95201600  1
  C  C41  1  0.32126000  0.61202900  0.35650700  1
  C  C42  1  0.67678800  0.40213900  0.34381500  1
  C  C43  1  0.32518300  0.37773600  0.64489200  1
  C  C44  1  0.67508700  0.62081200  0.64551700  1
  N  N1  1  0.85277600  0.49738500  0.50998300  1
  N  N2  1  0.14639300  0.49345100  0.50644400  1
  N  N3  1  0.49899200  0.50149300  0.24196500  1
  N  N4  1  0.50072100  0.50176300  0.75464000  1
  N  N5  1  0.36436900  0.67507600  0.38969900  1
  N  N6  1  0.68481500  0.30424300  0.34213000  1
  N  N7  1  0.36932200  0.31732400  0.61014500  1
  N  N8  1  0.63049400  0.68099400  0.61212400  1
  O  O1  1  0.49992900  0.36699500  0.58688800  1
  O  O2  1  0.49900000  0.63628800  0.40963600  1
  O  O3  1  0.49631600  0.63612600  0.58632000  1
  O  O4  1  0.50417300  0.36721600  0.41027000  1
  O  O5  1  0.41717100  0.49568500  0.58766800  1
  O  O6  1  0.58239200  0.50922800  0.40911600  1
  O  O7  1  0.58312100  0.50124200  0.58522000  1
  O  O8  1  0.41653500  0.50045800  0.41126400  1
  O  O9  1  0.85357600  0.65875600  0.50032500  1
  O  O10  1  0.14579200  0.33207100  0.49714100  1
  O  O11  1  0.85150200  0.33603300  0.51810300  1
  O  O12  1  0.14739000  0.65478000  0.51656800  1
  O  O13  1  0.30062300  0.62123700  0.27110600  1
  O  O14  1  0.65324100  0.44014600  0.27166100  1
  O  O15  1  0.30565100  0.36717600  0.73093300  1
  O  O16  1  0.69485600  0.63064600  0.73148900  1
