# generated using pymatgen
data_ZnH7C10NO8
_symmetry_space_group_name_H-M   'P 1'
_cell_length_a   10.13723500
_cell_length_b   11.26900300
_cell_length_c   13.14025400
_cell_angle_alpha   91.09072700
_cell_angle_beta   93.94576700
_cell_angle_gamma   92.47429500
_symmetry_Int_Tables_number   1
_chemical_formula_structural   ZnH7C10NO8
_chemical_formula_sum   'Zn2 H14 C20 N2 O16'
_cell_volume   1495.77799503
_cell_formula_units_Z   2
loop_
 _symmetry_equiv_pos_site_id
 _symmetry_equiv_pos_as_xyz
  1  'x, y, z'
loop_
 _atom_site_type_symbol
 _atom_site_label
 _atom_site_symmetry_multiplicity
 _atom_site_fract_x
 _atom_site_fract_y
 _atom_site_fract_z
 _atom_site_occupancy
  Zn  Zn1  1  0.64696400  0.48023100  0.51919200  1
  Zn  Zn2  1  0.35290400  0.52091000  0.48559600  1
  H  H1  1  0.28276100  0.63769500  0.98438400  1
  H  H2  1  0.71771900  0.36457300  0.01992400  1
  H  H3  1  0.38223400  0.90340400  0.49137200  1
  H  H4  1  0.61762300  0.09774000  0.51347100  1
  H  H5  1  0.89511600  0.57739300  0.43988900  1
  H  H6  1  0.10493900  0.42524500  0.56619000  1
  H  H7  1  0.26302500  0.54810700  0.16100700  1
  H  H8  1  0.61356700  0.31388700  0.82943200  1
  H  H9  1  0.80050500  0.41621800  0.21715300  1
  H  H10  1  0.32263500  0.72103000  0.78900100  1
  H  H11  1  0.73158000  0.90150900  0.59469400  1
  H  H12  1  0.26828100  0.09962700  0.41014400  1
  H  H13  1  0.87137500  0.29623800  0.56894000  1
  H  H14  1  0.11235900  0.58511400  0.32964400  1
  C  C1  1  0.44914100  0.27079800  0.50021300  1
  C  C2  1  0.55071800  0.73034400  0.50461300  1
  C  C3  1  0.48074900  0.50895700  0.70049900  1
  C  C4  1  0.51911000  0.49219600  0.30420700  1
  C  C5  1  0.52977400  0.48491900  0.19272300  1
  C  C6  1  0.46996600  0.51620000  0.81185500  1
  C  C7  1  0.36100700  0.58694200  0.95602800  1
  C  C8  1  0.63897700  0.41460500  0.04840500  1
  C  C9  1  0.37066400  0.57956900  0.85211400  1
  C  C10  1  0.62997000  0.42264500  0.15238600  1
  C  C11  1  0.55938400  0.46072400  0.87799200  1
  C  C12  1  0.43936400  0.53926800  0.12646400  1
  C  C13  1  0.54942900  0.46905000  0.98261700  1
  C  C14  1  0.44988600  0.53166000  0.02184800  1
  C  C15  1  0.41882400  0.14225700  0.49703900  1
  C  C16  1  0.58103400  0.85888500  0.50780000  1
  C  C17  1  0.51537000  0.06511800  0.50453100  1
  C  C18  1  0.48448800  0.93602500  0.50031400  1
  C  C19  1  0.07134800  0.49019000  0.51161600  1
  C  C20  1  0.92860800  0.51164000  0.49374300  1
  N  N1  1  0.15929300  0.54740900  0.46362500  1
  N  N2  1  0.84057500  0.45371400  0.54110600  1
  O  O1  1  0.57291600  0.31015600  0.51364500  1
  O  O2  1  0.42693500  0.69099000  0.49117200  1
  O  O3  1  0.34982800  0.34112900  0.48820200  1
  O  O4  1  0.65004200  0.66001400  0.51660800  1
  O  O5  1  0.59684100  0.49130900  0.66560400  1
  O  O6  1  0.40311300  0.50984300  0.33921400  1
  O  O7  1  0.37402700  0.52216900  0.64005200  1
  O  O8  1  0.62577400  0.47898800  0.36472800  1
  O  O9  1  0.34160600  0.60378900  0.16400400  1
  O  O10  1  0.65562000  0.39452300  0.84025500  1
  O  O11  1  0.71872300  0.36456600  0.21418300  1
  O  O12  1  0.28334600  0.63913000  0.79026100  1
  O  O13  1  0.71071500  0.89909600  0.51992700  1
  O  O14  1  0.28914300  0.10204600  0.48491200  1
  O  O15  1  0.88535600  0.37303400  0.60686000  1
  O  O16  1  0.11434900  0.62684600  0.39676800  1
