# generated using pymatgen
data_Fe2H20C50O17
_symmetry_space_group_name_H-M   'P 1'
_cell_length_a   17.79163800
_cell_length_b   9.38548600
_cell_length_c   15.16385600
_cell_angle_alpha   94.18891200
_cell_angle_beta   79.25026500
_cell_angle_gamma   110.62962300
_symmetry_Int_Tables_number   1
_chemical_formula_structural   Fe2H20C50O17
_chemical_formula_sum   'Fe2 H20 C50 O17'
_cell_volume   2328.08360780
_cell_formula_units_Z   1
loop_
 _symmetry_equiv_pos_site_id
 _symmetry_equiv_pos_as_xyz
  1  'x, y, z'
loop_
 _atom_site_type_symbol
 _atom_site_label
 _atom_site_symmetry_multiplicity
 _atom_site_fract_x
 _atom_site_fract_y
 _atom_site_fract_z
 _atom_site_occupancy
  Fe  Fe1  1  0.52549400  0.08182500  0.14792900  1
  Fe  Fe2  1  0.49374200  0.96408200  0.83352700  1
  H  H1  1  0.26819300  0.16568500  0.20027900  1
  H  H2  1  0.14218200  0.20461400  0.23843200  1
  H  H3  1  0.21756300  0.83476700  0.86245300  1
  H  H4  1  0.01565700  0.19064300  0.20491900  1
  H  H5  1  0.09396200  0.81676700  0.82463200  1
  H  H6  1  0.92469300  0.22718400  0.15733600  1
  H  H7  1  0.00511400  0.85906600  0.77576800  1
  H  H8  1  0.80137900  0.20948900  0.11929300  1
  H  H9  1  0.74988600  0.88137700  0.78117700  1
  H  H10  1  0.52783300  0.54154500  0.17865200  1
  H  H11  1  0.50638200  0.84246800  0.39855800  1
  H  H12  1  0.49112900  0.50408200  0.80279600  1
  H  H13  1  0.51254300  0.20315300  0.58289200  1
  H  H14  1  0.52207700  0.27800200  0.43681100  1
  H  H15  1  0.49688400  0.76764600  0.54463700  1
  H  H16  1  0.80079100  0.64906400  0.80458000  1
  H  H17  1  0.89046500  0.62626000  0.73488900  1
  H  H18  1  0.83103200  0.62369900  0.59887200  1
  H  H19  1  0.76455200  0.47482100  0.67605500  1
  H  H20  1  0.74146400  0.64622500  0.66863800  1
  C  C1  1  0.25152500  0.11213000  0.13779500  1
  C  C2  1  0.12620400  0.15599100  0.17473800  1
  C  C3  1  0.30591000  0.06168200  0.07934400  1
  C  C4  1  0.28619100  0.99828100  0.99740800  1
  C  C5  1  0.17808500  0.10112900  0.11589000  1
  C  C6  1  0.15634400  0.03482800  0.03622200  1
  C  C7  1  0.20925500  0.97800400  0.97863200  1
  C  C8  1  0.18357400  0.89786600  0.90359000  1
  C  C9  1  0.05351800  0.14977100  0.15352300  1
  C  C10  1  0.03149100  0.08979500  0.07149400  1
  C  C11  1  0.08257500  0.02766300  0.01384400  1
  C  C12  1  0.06044400  0.95839300  0.93406100  1
  C  C13  1  0.11022500  0.88702400  0.88201800  1
  C  C14  1  0.90879600  0.15773600  0.09958700  1
  C  C15  1  0.95880800  0.08714000  0.04730700  1
  C  C16  1  0.93669600  0.01792800  0.96743800  1
  C  C17  1  0.98793600  0.95629500  0.90975600  1
  C  C18  1  0.96641300  0.89756500  0.82742900  1
  C  C19  1  0.83548100  0.14678700  0.07796600  1
  C  C20  1  0.80991600  0.06706400  0.00276400  1
  C  C21  1  0.86290200  0.01057600  0.94492500  1
  C  C22  1  0.84124800  0.94462100  0.86496500  1
  C  C23  1  0.73297000  0.04692000  0.98417800  1
  C  C24  1  0.71323800  0.98404700  0.90224300  1
  C  C25  1  0.89364100  0.89028100  0.80593700  1
  C  C26  1  0.76753800  0.93400400  0.84342400  1
  C  C27  1  0.66902300  0.06575800  0.05621000  1
  C  C28  1  0.51919200  0.81852700  0.21934700  1
  C  C29  1  0.38699500  0.09714500  0.10187300  1
  C  C30  1  0.51706200  0.30797600  0.27072200  1
  C  C31  1  0.50201100  0.73772100  0.71073400  1
  C  C32  1  0.63208500  0.94867200  0.87996100  1
  C  C33  1  0.49970100  0.22707800  0.76210700  1
  C  C34  1  0.35013100  0.97937500  0.92541300  1
  C  C35  1  0.52049400  0.45802900  0.30787600  1
  C  C36  1  0.52394100  0.56741400  0.24960900  1
  C  C37  1  0.51806000  0.70516700  0.28170300  1
  C  C38  1  0.51074200  0.73472600  0.37276900  1
  C  C39  1  0.50984900  0.62774400  0.43130600  1
  C  C40  1  0.51464200  0.48899400  0.39941800  1
  C  C41  1  0.50385300  0.66072700  0.52204000  1
  C  C42  1  0.50434800  0.55667500  0.58202900  1
  C  C43  1  0.50912300  0.41791300  0.55014100  1
  C  C44  1  0.51512700  0.38493600  0.45940700  1
  C  C45  1  0.49851200  0.58764500  0.67357200  1
  C  C46  1  0.49501300  0.47822100  0.73183900  1
  C  C47  1  0.50085600  0.34044600  0.69974700  1
  C  C48  1  0.50820100  0.31090800  0.60867900  1
  C  C49  1  0.84095300  0.67339700  0.73807500  1
  C  C50  1  0.79116900  0.59962700  0.66557100  1
  O  O1  1  0.60727300  0.09648600  0.03775100  1
  O  O2  1  0.52700500  0.79000700  0.13274100  1
  O  O3  1  0.66778900  0.03183300  0.13903000  1
  O  O4  1  0.51415900  0.95028400  0.24939600  1
  O  O5  1  0.41528000  0.98860500  0.11206200  1
  O  O6  1  0.42707800  0.23752500  0.12393100  1
  O  O7  1  0.56182100  0.29760500  0.19291400  1
  O  O8  1  0.45948200  0.18541500  0.30663700  1
  O  O9  1  0.45738400  0.74813300  0.78862500  1
  O  O10  1  0.55952900  0.86026700  0.67471800  1
  O  O11  1  0.60406300  0.05735200  0.86927900  1
  O  O12  1  0.59166000  0.80810800  0.85856300  1
  O  O13  1  0.35119700  0.01273900  0.84253300  1
  O  O14  1  0.50497300  0.09549700  0.73203900  1
  O  O15  1  0.41205800  0.94932200  0.94389300  1
  O  O16  1  0.49173100  0.25548300  0.84872600  1
  O  O17  1  0.87453100  0.83034800  0.72470400  1
