# generated using pymatgen
data_CuH21C32N3O4
_symmetry_space_group_name_H-M   'P 1'
_cell_length_a   13.00131700
_cell_length_b   17.74250900
_cell_length_c   16.22244800
_cell_angle_alpha   89.97493300
_cell_angle_beta   95.51351800
_cell_angle_gamma   90.00962100
_symmetry_Int_Tables_number   1
_chemical_formula_structural   CuH21C32N3O4
_chemical_formula_sum   'Cu2 H42 C64 N6 O8'
_cell_volume   3724.81602152
_cell_formula_units_Z   2
loop_
 _symmetry_equiv_pos_site_id
 _symmetry_equiv_pos_as_xyz
  1  'x, y, z'
loop_
 _atom_site_type_symbol
 _atom_site_label
 _atom_site_symmetry_multiplicity
 _atom_site_fract_x
 _atom_site_fract_y
 _atom_site_fract_z
 _atom_site_occupancy
  Cu  Cu1  1  0.50267100  0.49931400  0.58904800  1
  Cu  Cu2  1  0.50087500  0.50416800  0.42433400  1
  H  H1  1  0.82575500  0.50795600  0.39917000  1
  H  H2  1  0.17771900  0.49194800  0.61403700  1
  H  H3  1  0.82682900  0.49224900  0.66128800  1
  H  H4  1  0.17659100  0.51021400  0.35207200  1
  H  H5  1  0.46753400  0.88396600  0.63138800  1
  H  H6  1  0.53094900  0.12321200  0.37467300  1
  H  H7  1  0.54578900  0.73712900  0.38893400  1
  H  H8  1  0.48253900  0.26347200  0.62915400  1
  H  H9  1  0.54950400  0.87377800  0.38456400  1
  H  H10  1  0.48595300  0.12659100  0.63048600  1
  H  H11  1  0.62894700  0.57553000  0.88004200  1
  H  H12  1  0.37721200  0.42614600  0.13349900  1
  H  H13  1  0.62771200  0.57320600  0.72889900  1
  H  H14  1  0.37785600  0.42887700  0.28459200  1
  H  H15  1  0.37831400  0.42089700  0.71099600  1
  H  H16  1  0.62370400  0.58417200  0.30235500  1
  H  H17  1  0.37628200  0.42194500  0.86228900  1
  H  H18  1  0.62598000  0.58310500  0.15105600  1
  H  H19  1  0.00250800  0.55910100  0.28772300  1
  H  H20  1  0.00988800  0.50727800  0.15955200  1
  H  H21  1  0.01600200  0.39400500  0.07456500  1
  H  H22  1  0.98958300  0.26910800  0.13470900  1
  H  H23  1  0.95543500  0.25797300  0.28059900  1
  H  H24  1  0.94813100  0.36990700  0.36649100  1
  H  H25  1  0.00461000  0.52955400  0.73263500  1
  H  H26  1  0.99063800  0.46199900  0.85096000  1
  H  H27  1  0.97286200  0.33923800  0.91648800  1
  H  H28  1  0.98883200  0.22275700  0.83677400  1
  H  H29  1  0.02439700  0.22948200  0.69088000  1
  H  H30  1  0.04350500  0.35101200  0.62429400  1
  H  H31  1  0.50560800  0.70474100  0.68624400  1
  H  H32  1  0.38198800  0.63974400  0.75562100  1
  H  H33  1  0.20201600  0.60195800  0.76177800  1
  H  H34  1  0.06429600  0.66019500  0.66844300  1
  H  H35  1  0.10743900  0.75649200  0.56863800  1
  H  H36  1  0.28449800  0.79549100  0.56124200  1
  H  H37  1  0.60115600  0.25769100  0.33263500  1
  H  H38  1  0.55220700  0.24055100  0.19440400  1
  H  H39  1  0.41388600  0.21517500  0.08494100  1
  H  H40  1  0.23256900  0.21478400  0.11613400  1
  H  H41  1  0.18980000  0.24083500  0.25765100  1
  H  H42  1  0.32603300  0.26747700  0.36757200  1
  C  C1  1  0.50226900  0.35652400  0.50142400  1
  C  C2  1  0.50140400  0.64703700  0.51200500  1
  C  C3  1  0.30297300  0.50145400  0.49301500  1
  C  C4  1  0.70056700  0.50171200  0.52034500  1
  C  C5  1  0.81399200  0.50040400  0.52883600  1
  C  C6  1  0.18950200  0.50114100  0.48447200  1
  C  C7  1  0.02937100  0.50573800  0.39819800  1
  C  C8  1  0.97399900  0.49205000  0.61484000  1
  C  C9  1  0.13590700  0.50590600  0.40692100  1
  C  C10  1  0.86753400  0.49495100  0.60633400  1
  C  C11  1  0.13550300  0.49616000  0.55360500  1
  C  C12  1  0.86796600  0.50375700  0.45960100  1
  C  C13  1  0.02836300  0.49667000  0.54547600  1
  C  C14  1  0.97507700  0.50205800  0.46765300  1
  C  C15  1  0.48496000  0.85102600  0.57844400  1
  C  C16  1  0.51966000  0.15482100  0.43005000  1
  C  C17  1  0.48051300  0.77335500  0.58221600  1
  C  C18  1  0.51639300  0.23264500  0.42763800  1
  C  C19  1  0.50321400  0.73043000  0.51378700  1
  C  C20  1  0.50374700  0.27327700  0.49960800  1
  C  C21  1  0.52770100  0.76794300  0.44311500  1
  C  C22  1  0.49301300  0.23409200  0.57224600  1
  C  C23  1  0.53052300  0.84557400  0.44021000  1
  C  C24  1  0.49490800  0.15642200  0.57350100  1
  C  C25  1  0.50922200  0.88712800  0.50795500  1
  C  C26  1  0.50841900  0.11678400  0.50251200  1
  C  C27  1  0.51019600  0.96798200  0.50520700  1
  C  C28  1  0.50986700  0.03589700  0.50379300  1
  C  C29  1  0.57374800  0.54070100  0.84339900  1
  C  C30  1  0.43155300  0.46168400  0.17007900  1
  C  C31  1  0.57308600  0.53901700  0.75844900  1
  C  C32  1  0.43197000  0.46348400  0.25500600  1
  C  C33  1  0.43411100  0.45453000  0.74850600  1
  C  C34  1  0.56884500  0.54975800  0.26487800  1
  C  C35  1  0.43274200  0.45507000  0.83346800  1
  C  C36  1  0.57036500  0.54920600  0.17992100  1
  C  C37  1  0.50314500  0.49846300  0.88127000  1
  C  C38  1  0.50116200  0.50482700  0.13217200  1
  C  C39  1  0.50238000  0.50062700  0.96962000  1
  C  C40  1  0.50199700  0.50270800  0.04382500  1
  C  C41  1  0.98102400  0.44689500  0.26966600  1
  C  C42  1  0.99846100  0.45280600  0.18713300  1
  C  C43  1  0.00181500  0.38904500  0.13891600  1
  C  C44  1  0.98692600  0.31906500  0.17256300  1
  C  C45  1  0.96805200  0.31284900  0.25440100  1
  C  C46  1  0.96487000  0.37643700  0.30294500  1
  C  C47  1  0.01590100  0.41560700  0.73240100  1
  C  C48  1  0.99761500  0.41136200  0.81487700  1
  C  C49  1  0.98763500  0.34222300  0.85212300  1
  C  C50  1  0.99660400  0.27692900  0.80749000  1
  C  C51  1  0.01629700  0.28074000  0.72566400  1
  C  C52  1  0.02623200  0.34975300  0.68809700  1
  C  C53  1  0.34775200  0.71894600  0.65719000  1
  C  C54  1  0.32243200  0.66523100  0.71359900  1
  C  C55  1  0.22101800  0.64403800  0.71748100  1
  C  C56  1  0.14386100  0.67662600  0.66525300  1
  C  C57  1  0.16814500  0.73054100  0.60922600  1
  C  C58  1  0.26946500  0.75204300  0.60510400  1
  C  C59  1  0.44945400  0.25407200  0.28923300  1
  C  C60  1  0.47290600  0.24037200  0.20923900  1
  C  C61  1  0.39511700  0.22611200  0.14731000  1
  C  C62  1  0.29350400  0.22589700  0.16475400  1
  C  C63  1  0.26957400  0.24039900  0.24411100  1
  C  C64  1  0.34707700  0.25476100  0.30624800  1
  N  N1  1  0.50444200  0.49573300  0.71237500  1
  N  N2  1  0.49946000  0.50765600  0.30102800  1
  N  N3  1  0.97696200  0.51290800  0.31823200  1
  N  N4  1  0.02639200  0.48694600  0.69500600  1
  N  N5  1  0.45256200  0.74095600  0.65651500  1
  N  N6  1  0.52986300  0.26925200  0.35216500  1
  O  O1  1  0.49914400  0.39018100  0.57313100  1
  O  O2  1  0.50457200  0.61330200  0.44030000  1
  O  O3  1  0.50464000  0.39436500  0.43228400  1
  O  O4  1  0.49880900  0.60912800  0.58105700  1
  O  O5  1  0.35230600  0.50211200  0.56736700  1
  O  O6  1  0.65121600  0.50122700  0.44605900  1
  O  O7  1  0.35090100  0.50113500  0.42563800  1
  O  O8  1  0.65262700  0.50239100  0.58766000  1
