# Generated by REPEAT Assigner based on pymatgen
data_DB0-m3_o2_o6_f0_pcu.sym.3_sqe
_audit_creation_date              2022-05-24
_audit_creation_method            REPEAT_Assigner
_cell_length_a                    15.195166
_cell_length_b                    14.168598
_cell_length_c                    16.130406
_cell_angle_alpha                 90.000000
_cell_angle_beta                  90.006176
_cell_angle_gamma                 90.000000
_cell_volume                      3472.782831
_symmetry_space_group_name_H-M    P1
_symmetry_Int_Tables_number       1
loop_
    _symmetry_equiv_pos_site_id
    _symmetry_equiv_pos_as_xyz
    1  x,y,z
loop_
    _atom_site_type_symbol
    _atom_site_label
    _atom_site_fract_x
    _atom_site_fract_y
    _atom_site_fract_z
    _atom_type_partial_charge
    O   O1   0.368939  0.581588  0.500252  -0.569923
    O   O2   0.631074  0.418558  0.500980  -0.636989
    O   O3   0.631062  0.581588  0.499748  -0.569927
    O   O4   0.368927  0.418558  0.499020  -0.636980
    C   C1   0.327790  0.500005  0.499734  0.579235
    C   C2   0.672210  0.500005  0.500266  0.579240
    O   O5   0.500348  0.581991  0.376508  -0.662911
    O   O6   0.498483  0.418949  0.623397  -0.609910
    O   O7   0.499652  0.581991  0.623492  -0.662910
    O   O8   0.501517  0.418949  0.376602  -0.609899
    C   C3   0.501205  0.500438  0.338077  0.841076
    C   C4   0.498795  0.500438  0.661923  0.841083
    Zn  Zn1  0.500000  0.608201  0.500000  1.020188
    Zn  Zn2  0.500000  0.392338  0.500000  1.040434
    H   H1   0.500537  0.650525  0.076253  0.140377
    H   H2   0.499465  0.349831  0.923736  0.142790
    H   H3   0.499463  0.650525  0.923747  0.140393
    H   H4   0.500535  0.349831  0.076264  0.142769
    C   C5   0.499700  0.584458  0.957261  -0.178691
    C   C6   0.500300  0.415898  0.042745  -0.186193
    C   C7   0.500301  0.584458  0.042739  -0.178572
    C   C8   0.499700  0.415898  0.957255  -0.186275
    C   C9   0.499415  0.500184  0.914520  0.257020
    C   C10  0.500585  0.500184  0.085480  0.256926
    C   C11  0.498994  0.500226  0.825569  -0.094168
    C   C12  0.501007  0.500226  0.174431  -0.094155
    C   C13  0.501212  0.500325  0.249130  -0.266074
    C   C14  0.498788  0.500325  0.750870  -0.266073
    C   C15  0.094367  0.578509  0.524012  -0.129160
    C   C16  0.905039  0.418930  0.522860  -0.125540
    C   C17  0.905634  0.578509  0.475988  -0.129154
    C   C18  0.094961  0.418930  0.477140  -0.125553
    H   H5   0.060075  0.640923  0.544885  0.101640
    H   H6   0.938850  0.356086  0.543434  0.105261
    H   H7   0.939925  0.640923  0.455115  0.101642
    H   H8   0.061151  0.356086  0.456566  0.105267
    C   C19  0.185080  0.578971  0.523830  -0.142285
    C   C20  0.814279  0.419233  0.522479  -0.153519
    C   C21  0.814920  0.578971  0.476170  -0.142324
    C   C22  0.185721  0.419233  0.477521  -0.153495
    H   H9   0.219139  0.641623  0.544336  0.118707
    H   H10  0.779646  0.356342  0.541745  0.119111
    H   H11  0.780861  0.641623  0.455664  0.118720
    H   H12  0.220354  0.356342  0.458255  0.119104
    C   C23  0.231308  0.499538  0.500181  0.050614
    C   C24  0.768692  0.499538  0.499819  0.050648
    C   C25  0.048451  0.498653  0.500253  0.070600
    C   C26  0.951549  0.498653  0.499747  0.070603
    C   C27  0.462210  0.102941  0.436633  -0.374132
    C   C28  0.565615  0.897622  0.538195  -0.369644
    C   C29  0.537790  0.102941  0.563367  -0.374124
    C   C30  0.434386  0.897622  0.461805  -0.369657
    H   H13  0.435034  0.066584  0.383740  0.164159
    H   H14  0.620591  0.933990  0.565943  0.162613
    H   H15  0.564966  0.066584  0.616260  0.164156
    H   H16  0.379409  0.933990  0.434057  0.162617
    C   C31  0.460094  0.200488  0.438003  0.377883
    C   C32  0.564042  0.800080  0.540198  0.381655
    C   C33  0.539906  0.200488  0.561997  0.377884
    C   C34  0.435958  0.800080  0.459802  0.381655
    N   N1   0.500000  0.250424  0.500000  -0.317731
    N   N2   0.500000  0.750114  0.500000  -0.306094
    C   C35  0.500000  0.052547  0.500000  0.210970
    C   C36  0.500000  0.948016  0.500000  0.199609
    C   C37  0.413591  0.246137  0.367057  -0.373025
    H   H17  0.373551  0.306540  0.387614  0.152630
    H   H18  0.461844  0.266476  0.318775  0.126685
    H   H19  0.367292  0.195323  0.338322  0.082826
    C   C38  0.637695  0.754568  0.586521  -0.390032
    H   H20  0.615242  0.693417  0.622761  0.149513
    H   H21  0.690856  0.735372  0.542904  0.125455
    H   H22  0.665847  0.805142  0.631730  0.088656
    C   C39  0.586409  0.246137  0.632943  -0.373012
    H   H23  0.626450  0.306540  0.612386  0.152630
    H   H24  0.538157  0.266476  0.681225  0.126679
    H   H25  0.632708  0.195323  0.661678  0.082814
    C   C40  0.362305  0.754568  0.413479  -0.390016
    H   H26  0.384758  0.693417  0.377239  0.149504
    H   H27  0.309144  0.735372  0.457096  0.125454
    H   H28  0.334153  0.805142  0.368270  0.088651
