# Generated by REPEAT Assigner based on pymatgen
data_DB0-m3_o13_o27_f0_pcu.sym.138_sqe
_audit_creation_date              2022-05-24
_audit_creation_method            REPEAT_Assigner
_cell_length_a                    11.892194
_cell_length_b                    13.075733
_cell_length_c                    19.390907
_cell_angle_alpha                 89.996846
_cell_angle_beta                  85.861197
_cell_angle_gamma                 91.192945
_cell_volume                      3006.750806
_symmetry_space_group_name_H-M    P1
_symmetry_Int_Tables_number       1
loop_
    _symmetry_equiv_pos_site_id
    _symmetry_equiv_pos_as_xyz
    1  x,y,z
loop_
    _atom_site_type_symbol
    _atom_site_label
    _atom_site_fract_x
    _atom_site_fract_y
    _atom_site_fract_z
    _atom_type_partial_charge
    O   O1   0.416431  0.634073  0.502871  -0.658879
    O   O2   0.578706  0.317601  0.497071  -0.656229
    O   O3   0.610055  0.621619  0.495883  -0.667551
    O   O4   0.385111  0.330052  0.504398  -0.665939
    C   C1   0.518060  0.675685  0.499175  0.754507
    C   C2   0.477090  0.275982  0.500936  0.715668
    O   O5   0.399682  0.482299  0.606448  -0.648217
    O   O6   0.595509  0.469760  0.393662  -0.646370
    O   O7   0.593262  0.469530  0.599259  -0.667321
    O   O8   0.401868  0.481936  0.400854  -0.662181
    C   C3   0.495833  0.476005  0.635209  0.725150
    C   C4   0.499338  0.475873  0.364902  0.719968
    Zn  Zn1  0.369907  0.484104  0.504904  1.052275
    Zn  Zn2  0.625243  0.467564  0.495208  1.052942
    C   C5   0.395112  0.495428  0.750250  -0.364611
    C   C6   0.602639  0.482357  0.249743  -0.336807
    H   H1   0.317950  0.508332  0.725655  0.127513
    H   H2   0.681393  0.485382  0.274264  0.121145
    C   C7   0.393037  0.500396  0.821476  0.716134
    C   C8   0.605666  0.487005  0.178474  0.676981
    C   C9   0.491219  0.483517  0.854804  -0.635000
    C   C10  0.505365  0.482682  0.145245  -0.619867
    C   C11  0.590176  0.465463  0.814771  0.167479
    C   C12  0.404072  0.477310  0.185385  0.175324
    H   H3   0.668229  0.452154  0.838226  0.024905
    H   H4   0.324358  0.473974  0.162008  0.022405
    C   C13  0.591867  0.463242  0.743654  -0.204281
    C   C14  0.401969  0.475350  0.256522  -0.217853
    H   H5   0.670657  0.449032  0.714258  0.118810
    H   H6   0.321354  0.471217  0.286004  0.123608
    C   C15  0.494239  0.477702  0.710943  0.042820
    C   C16  0.501244  0.477348  0.289154  0.040370
    N   N1   0.593391  0.476017  0.959499  -0.383999
    N   N2   0.402985  0.488115  0.040560  -0.379405
    N   N3   0.597527  0.475578  0.027445  -0.256766
    N   N4   0.398811  0.488171  0.972616  -0.259068
    C   C17  0.502505  0.482557  0.069093  0.909430
    C   C18  0.494020  0.483062  0.930959  0.926912
    C   C19  0.465888  0.163990  0.501342  -0.050456
    C   C20  0.529262  0.787678  0.498768  -0.072962
    C   C21  0.645172  0.939790  0.494501  -0.275637
    C   C22  0.349977  0.011879  0.505612  -0.282278
    C   C23  0.634864  0.834577  0.494841  -0.070013
    C   C24  0.360286  0.117092  0.505281  -0.081498
    C   C25  0.434251  0.847328  0.502357  -0.212937
    C   C26  0.560899  0.104341  0.497742  -0.225240
    C   C27  0.444883  0.952687  0.502016  0.223964
    C   C28  0.550267  0.998982  0.498088  0.215333
    H   H7   0.644197  0.139377  0.494622  0.123091
    H   H8   0.350953  0.812293  0.505477  0.115774
    H   H9   0.284642  0.161720  0.508131  0.101809
    H   H10  0.710509  0.789951  0.491997  0.095783
    H   H11  0.728200  0.975480  0.491410  0.141458
    H   H12  0.266950  0.976190  0.508705  0.144296
    N   N5   0.201974  0.495224  0.511707  -0.080745
    N   N6   0.793176  0.456427  0.488405  -0.070753
    C   C29  0.957953  0.379564  0.438373  -0.240647
    C   C30  0.037195  0.572065  0.561753  -0.256521
    C   C31  0.842284  0.388229  0.444363  0.022619
    C   C32  0.152863  0.563404  0.555762  0.019013
    C   C33  0.855928  0.517246  0.527289  -0.088452
    C   C34  0.139222  0.434395  0.472829  -0.063765
    C   C35  0.971877  0.510371  0.522385  0.200605
    C   C36  0.023272  0.441264  0.477737  0.170286
    H   H13  0.180001  0.380043  0.437808  0.147034
    H   H14  0.815152  0.571604  0.562306  0.155713
    H   H15  0.204259  0.611600  0.586726  0.141410
    H   H16  0.790888  0.340026  0.413404  0.131636
    H   H17  0.996624  0.324657  0.402887  0.152196
    H   H18  0.998522  0.626967  0.597244  0.158321
    N   N7   0.289827  0.522567  0.858429  -0.908365
    C   C37  0.275136  0.623398  0.869711  0.919037
    O   O9   0.356245  0.682186  0.867839  -0.591881
    C   C38  0.159444  0.663253  0.884454  -0.527710
    H   H19  0.219274  0.485779  0.841973  0.360924
    H   H20  0.119205  0.625427  0.931416  0.155648
    H   H21  0.108257  0.647453  0.839902  0.110283
    H   H22  0.164670  0.746996  0.893121  0.136732
    N   N8   0.711972  0.495944  0.141379  -0.879218
    C   C39  0.746432  0.593672  0.129206  0.910888
    O   O10  0.677969  0.661899  0.130511  -0.581145
    C   C40  0.868565  0.618519  0.114173  -0.530296
    H   H23  0.774365  0.450769  0.158202  0.352617
    H   H24  0.900814  0.576128  0.067564  0.146018
    H   H25  0.915991  0.596489  0.158890  0.117619
    H   H26  0.879975  0.701873  0.104771  0.136407
