# Generated by REPEAT Assigner based on pymatgen
data_DB0-m3_o3_o14_f0_pcu.sym.4_sqe
_audit_creation_date              2022-05-24
_audit_creation_method            REPEAT_Assigner
_cell_length_a                    19.479508
_cell_length_b                    18.255134
_cell_length_c                    11.088796
_cell_angle_alpha                 90.000000
_cell_angle_beta                  90.006331
_cell_angle_gamma                 90.000000
_cell_volume                      3943.187339
_symmetry_space_group_name_H-M    P1
_symmetry_Int_Tables_number       1
loop_
    _symmetry_equiv_pos_site_id
    _symmetry_equiv_pos_as_xyz
    1  x,y,z
loop_
    _atom_site_type_symbol
    _atom_site_label
    _atom_site_fract_x
    _atom_site_fract_y
    _atom_site_fract_z
    _atom_type_partial_charge
    O   O1   0.397749  0.562877  0.494061  -0.689442
    O   O2   0.602216  0.562879  0.506290  -0.689861
    O   O3   0.397751  0.436989  0.489620  -0.716140
    O   O4   0.602053  0.436987  0.510203  -0.717726
    C   C1   0.365635  0.499983  0.489597  0.724563
    C   C2   0.634250  0.499939  0.510499  0.728517
    O   O5   0.503538  0.562541  0.320700  -0.588087
    O   O6   0.496489  0.562371  0.679645  -0.592177
    O   O7   0.505816  0.437490  0.320403  -0.577426
    O   O8   0.493905  0.437273  0.679418  -0.584867
    C   C3   0.507466  0.500183  0.262148  0.725530
    C   C4   0.492425  0.499896  0.737893  0.738705
    Zn  Zn1  0.499984  0.582774  0.500196  1.017406
    Zn  Zn2  0.499901  0.417048  0.499881  1.053274
    C   C5   0.529532  0.632981  0.109462  -0.208403
    C   C6   0.466335  0.631691  0.889996  -0.216423
    H   H1   0.560017  0.636549  0.190217  0.126958
    H   H2   0.435935  0.633963  0.808985  0.130596
    C   C7   0.514935  0.697919  0.052473  -0.089766
    C   C8   0.478921  0.697206  0.946652  -0.087439
    H   H3   0.529471  0.749364  0.093452  0.084783
    H   H4   0.462888  0.748049  0.905368  0.085157
    C   C9   0.488732  0.565737  0.939687  0.172612
    C   C10  0.509172  0.566164  0.060137  0.162282
    C   C11  0.509724  0.500580  0.126662  -0.231550
    C   C12  0.490167  0.500156  0.873330  -0.245422
    C   C13  0.504071  0.435263  0.061795  0.097097
    C   C14  0.497861  0.435121  0.938249  0.109854
    C   C15  0.745365  0.442522  0.561095  -0.141127
    C   C16  0.254513  0.442696  0.438773  -0.148814
    H   H5   0.718457  0.397539  0.603314  0.113355
    H   H6   0.281412  0.397760  0.396404  0.117492
    C   C17  0.816210  0.442925  0.561089  -0.130718
    C   C18  0.183672  0.443092  0.438817  -0.127327
    H   H7   0.842506  0.398532  0.605833  0.101567
    H   H8   0.157374  0.398748  0.393944  0.100712
    C   C19  0.852204  0.499720  0.507089  0.074177
    C   C20  0.147683  0.499811  0.493036  0.072155
    C   C21  0.815445  0.556711  0.455457  -0.136274
    C   C22  0.184447  0.556755  0.544806  -0.135323
    H   H9   0.840909  0.600780  0.408452  0.103260
    H   H10  0.158984  0.600767  0.591958  0.103133
    C   C23  0.744747  0.557473  0.459589  -0.128745
    C   C24  0.255148  0.557529  0.540643  -0.131418
    H   H11  0.717415  0.602324  0.417839  0.110867
    H   H12  0.282487  0.602328  0.582526  0.111555
    C   C25  0.709370  0.500094  0.511268  0.002470
    C   C26  0.290516  0.500206  0.488780  0.008699
    C   C27  0.964589  0.564676  0.503118  -0.142449
    C   C28  0.035269  0.564701  0.497302  -0.142794
    H   H13  0.938827  0.616919  0.508462  0.107467
    H   H14  0.061006  0.616964  0.492122  0.107598
    C   C29  0.071719  0.499587  0.496240  0.071562
    C   C30  0.928170  0.499539  0.503957  0.070062
    C   C31  0.035370  0.434403  0.499012  -0.143534
    C   C32  0.964551  0.434380  0.501008  -0.142836
    H   H15  0.061375  0.382209  0.501280  0.109813
    H   H16  0.938572  0.382174  0.498582  0.109607
    C   C33  0.542890  0.728904  0.574002  0.039673
    C   C34  0.457054  0.728852  0.426610  0.041194
    H   H17  0.577325  0.698977  0.632438  0.110161
    H   H18  0.422640  0.698882  0.368198  0.108843
    C   C35  0.543532  0.804441  0.575166  -0.165042
    C   C36  0.456393  0.804383  0.425312  -0.164124
    H   H19  0.579478  0.832434  0.633339  0.113323
    H   H20  0.420443  0.832326  0.367082  0.112934
    C   C37  0.499964  0.843132  0.500191  0.097217
    N   N1   0.499981  0.692347  0.500325  -0.083253
    C   C38  0.491743  0.962140  0.393507  -0.156683
    C   C39  0.508176  0.962254  0.606526  -0.152329
    H   H21  0.487021  0.933666  0.308490  0.125247
    H   H22  0.512906  0.933870  0.691623  0.123911
    C   C40  0.491663  0.037681  0.393422  -0.168744
    C   C41  0.508231  0.037794  0.606387  -0.172954
    H   H23  0.486820  0.066150  0.308413  0.139978
    H   H24  0.513065  0.066353  0.691317  0.140977
    C   C42  0.499943  0.076133  0.499849  0.135136
    C   C43  0.499965  0.923761  0.500073  0.107259
    C   C44  0.544372  0.195413  0.573061  -0.164427
    C   C45  0.455530  0.195374  0.426335  -0.163962
    H   H25  0.580926  0.167380  0.630012  0.101326
    H   H26  0.418998  0.167307  0.369386  0.100429
    C   C46  0.543785  0.270943  0.571661  0.105220
    C   C47  0.456085  0.270912  0.427681  0.108015
    H   H27  0.579005  0.300880  0.628600  0.125328
    H   H28  0.420877  0.300826  0.370680  0.120270
    N   N2   0.499905  0.307471  0.499707  -0.175098
    C   C48  0.499946  0.156714  0.499741  0.070432
    Cl  Cl1  0.508823  0.347309  0.126038  -0.111894
    Cl  Cl2  0.496351  0.347059  0.873967  -0.115160
