# generated using pymatgen
data_Zn3H34C70(O3F)4
_symmetry_space_group_name_H-M   'P 1'
_cell_length_a   36.75269700
_cell_length_b   30.16270500
_cell_length_c   21.49959100
_cell_angle_alpha   90.00000000
_cell_angle_beta   55.02727900
_cell_angle_gamma   90.00000000
_symmetry_Int_Tables_number   1
_chemical_formula_structural   Zn3H34C70(O3F)4
_chemical_formula_sum   'Zn12 H136 C280 O48 F16'
_cell_volume   19529.85090256
_cell_formula_units_Z   4
loop_
 _symmetry_equiv_pos_site_id
 _symmetry_equiv_pos_as_xyz
  1  'x, y, z'
loop_
 _atom_site_type_symbol
 _atom_site_label
 _atom_site_symmetry_multiplicity
 _atom_site_fract_x
 _atom_site_fract_y
 _atom_site_fract_z
 _atom_site_occupancy
  Zn  Zn1  1  0.99986100  0.54960500  0.49976900  1
  Zn  Zn2  1  0.49986100  0.04960500  0.49976900  1
  Zn  Zn3  1  0.99974200  0.44906200  0.49965300  1
  Zn  Zn4  1  0.49974200  0.94906200  0.49965300  1
  Zn  Zn5  1  0.94921100  0.50058100  0.04872500  1
  Zn  Zn6  1  0.04988400  0.50064400  0.95116500  1
  Zn  Zn7  1  0.44921100  0.00058100  0.04872500  1
  Zn  Zn8  1  0.54988400  0.00064400  0.95116500  1
  Zn  Zn9  1  0.50035300  0.49950600  0.06946200  1
  Zn  Zn10  1  0.49925500  0.49959900  0.92991500  1
  Zn  Zn11  1  0.00035300  0.99950600  0.06946200  1
  Zn  Zn12  1  0.99925500  0.99959900  0.92991500  1
  H  H1  1  0.98632800  0.42536900  0.80408300  1
  H  H2  1  0.01547400  0.42701700  0.19411100  1
  H  H3  1  0.48632800  0.92536900  0.80408300  1
  H  H4  1  0.51547400  0.92701700  0.19411100  1
  H  H5  1  0.07322000  0.52405900  0.71557400  1
  H  H6  1  0.92508400  0.52254600  0.28521700  1
  H  H7  1  0.57322000  0.02405900  0.71557400  1
  H  H8  1  0.42508400  0.02254600  0.28521700  1
  H  H9  1  0.01533800  0.57334300  0.69507100  1
  H  H10  1  0.98135700  0.57441300  0.30633500  1
  H  H11  1  0.51533800  0.07334300  0.69507100  1
  H  H12  1  0.48135700  0.07441300  0.30633500  1
  H  H13  1  0.94397700  0.54885500  0.84252800  1
  H  H14  1  0.05335200  0.55197600  0.15814000  1
  H  H15  1  0.44397700  0.04885500  0.84252800  1
  H  H16  1  0.55335200  0.05197600  0.15814000  1
  H  H17  1  0.92950600  0.47402700  0.78043600  1
  H  H18  1  0.07071500  0.47825800  0.21833800  1
  H  H19  1  0.42950600  0.97402700  0.78043600  1
  H  H20  1  0.57071500  0.97825800  0.21833800  1
  H  H21  1  0.35901700  0.45488700  0.06400500  1
  H  H22  1  0.64084000  0.45728300  0.93730300  1
  H  H23  1  0.85901700  0.95488700  0.06400500  1
  H  H24  1  0.14084000  0.95728300  0.93730300  1
  H  H25  1  0.35950700  0.54142500  0.22008000  1
  H  H26  1  0.63983700  0.53992500  0.77767300  1
  H  H27  1  0.85950700  0.04142500  0.22008000  1
  H  H28  1  0.13983700  0.03992500  0.77767300  1
  H  H29  1  0.29100100  0.56872400  0.32812400  1
  H  H30  1  0.70819300  0.56649100  0.66831600  1
  H  H31  1  0.79100100  0.06872400  0.32812400  1
  H  H32  1  0.20819300  0.06649100  0.66831600  1
  H  H33  1  0.20989800  0.57131400  0.40526000  1
  H  H34  1  0.78928500  0.56949300  0.59088600  1
  H  H35  1  0.70989800  0.07131400  0.40526000  1
  H  H36  1  0.28928500  0.06949300  0.59088600  1
  H  H37  1  0.14088000  0.54738900  0.42976600  1
  H  H38  1  0.85843800  0.54704700  0.56733200  1
  H  H39  1  0.64088000  0.04738900  0.42976600  1
  H  H40  1  0.35843800  0.04704700  0.56733200  1
  H  H41  1  0.13778400  0.44999000  0.29127300  1
  H  H42  1  0.86211700  0.45363500  0.71042400  1
  H  H43  1  0.63778400  0.94999000  0.29127300  1
  H  H44  1  0.36211700  0.95363500  0.71042400  1
  H  H45  1  0.29045800  0.42562900  0.09386000  1
  H  H46  1  0.70960900  0.42957500  0.90889000  1
  H  H47  1  0.79045800  0.92562900  0.09386000  1
  H  H48  1  0.20960900  0.92957500  0.90889000  1
  H  H49  1  0.91049600  0.29322400  0.00043300  1
  H  H50  1  0.09011500  0.29311000  0.99935000  1
  H  H51  1  0.41049600  0.79322400  0.00043300  1
  H  H52  1  0.59011500  0.79311000  0.99935000  1
  H  H53  1  0.93977000  0.36028900  0.00845700  1
  H  H54  1  0.06094400  0.36019000  0.99117000  1
  H  H55  1  0.43977100  0.86028900  0.00845700  1
  H  H56  1  0.56094400  0.86019000  0.99117000  1
  H  H57  1  0.54730000  0.35920200  0.87889500  1
  H  H58  1  0.45180700  0.35971400  0.11863200  1
  H  H59  1  0.04730000  0.85920200  0.87889500  1
  H  H60  1  0.95180700  0.85971400  0.11863200  1
  H  H61  1  0.42203200  0.29100500  0.18547900  1
  H  H62  1  0.57662100  0.29020200  0.81284900  1
  H  H63  1  0.92203200  0.79100500  0.18547900  1
  H  H64  1  0.07662100  0.79020200  0.81284900  1
  H  H65  1  0.91978300  0.70995300  0.18510600  1
  H  H66  1  0.07828900  0.70914200  0.81414600  1
  H  H67  1  0.41978300  0.20995300  0.18510600  1
  H  H68  1  0.57828900  0.20914200  0.81414600  1
  H  H69  1  0.94642200  0.64095600  0.11791700  1
  H  H70  1  0.05115400  0.64041900  0.88213200  1
  H  H71  1  0.44642200  0.14095600  0.11791700  1
  H  H72  1  0.55115400  0.14041900  0.88213200  1
  H  H73  1  0.17913400  0.37124000  0.26990800  1
  H  H74  1  0.14409800  0.31790900  0.23322400  1
  H  H75  1  0.19267200  0.39095300  0.03035500  1
  H  H76  1  0.22750300  0.44453600  0.06701500  1
  H  H77  1  0.82117900  0.37402500  0.73601700  1
  H  H78  1  0.85681700  0.32328700  0.77520600  1
  H  H79  1  0.80812200  0.40089100  0.97370400  1
  H  H80  1  0.77267400  0.45187600  0.93453200  1
  H  H81  1  0.67913400  0.87124000  0.26990800  1
  H  H82  1  0.64409800  0.81790900  0.23322400  1
  H  H83  1  0.69267200  0.89095300  0.03035500  1
  H  H84  1  0.72750300  0.94453600  0.06701500  1
  H  H85  1  0.32117900  0.87402500  0.73601700  1
  H  H86  1  0.35681700  0.82328700  0.77520600  1
  H  H87  1  0.30812200  0.90089100  0.97370400  1
  H  H88  1  0.27267400  0.95187600  0.93453200  1
  H  H89  1  0.55238600  0.60510500  0.07638900  1
  H  H90  1  0.62342400  0.56989800  0.03184600  1
  H  H91  1  0.68037700  0.62437800  0.81174900  1
  H  H92  1  0.60886700  0.65858600  0.85532700  1
  H  H93  1  0.44795400  0.60481100  0.92457900  1
  H  H94  1  0.37691200  0.56974000  0.96883300  1
  H  H95  1  0.31936700  0.62540400  0.18831900  1
  H  H96  1  0.39091400  0.65935100  0.14513300  1
  H  H97  1  0.05238600  0.10510500  0.07638900  1
  H  H98  1  0.12342400  0.06989800  0.03184600  1
  H  H99  1  0.18037700  0.12437800  0.81174900  1
  H  H100  1  0.10886700  0.15858600  0.85532700  1
  H  H101  1  0.94795400  0.10481100  0.92457900  1
  H  H102  1  0.87691200  0.06974000  0.96883300  1
  H  H103  1  0.81936700  0.12540400  0.18831900  1
  H  H104  1  0.89091400  0.15935100  0.14513300  1
  H  H105  1  0.46218700  0.69479300  0.86353800  1
  H  H106  1  0.41502300  0.66881900  0.82386100  1
  H  H107  1  0.29958400  0.70203100  0.04150700  1
  H  H108  1  0.34665500  0.72809700  0.08123100  1
  H  H109  1  0.53859900  0.69523200  0.13674700  1
  H  H110  1  0.58604400  0.66940500  0.17593600  1
  H  H111  1  0.70114200  0.70164400  0.95729500  1
  H  H112  1  0.65378700  0.72756400  0.91806600  1
  H  H113  1  0.96218700  0.19479300  0.86353800  1
  H  H114  1  0.91502300  0.16881900  0.82386100  1
  H  H115  1  0.79958400  0.20203100  0.04150700  1
  H  H116  1  0.84665500  0.22809700  0.08123100  1
  H  H117  1  0.03859900  0.19523200  0.13674700  1
  H  H118  1  0.08604400  0.16940500  0.17593600  1
  H  H119  1  0.20114200  0.20164400  0.95729500  1
  H  H120  1  0.15378700  0.22756400  0.91806600  1
  H  H121  1  0.04082000  0.38271800  0.70019900  1
  H  H122  1  0.10013700  0.33652100  0.59975900  1
  H  H123  1  0.16271800  0.45078600  0.46241800  1
  H  H124  1  0.10304100  0.49766900  0.56260700  1
  H  H125  1  0.96213200  0.38287100  0.29712100  1
  H  H126  1  0.90460900  0.33505000  0.39715200  1
  H  H127  1  0.83927700  0.44767100  0.53755500  1
  H  H128  1  0.89706100  0.49616500  0.43769100  1
  H  H129  1  0.54082000  0.88271800  0.70019900  1
  H  H130  1  0.60013700  0.83652100  0.59975900  1
  H  H131  1  0.66271800  0.95078600  0.46241800  1
  H  H132  1  0.60304100  0.99766900  0.56260700  1
  H  H133  1  0.46213200  0.88287100  0.29712100  1
  H  H134  1  0.40460900  0.83505000  0.39715200  1
  H  H135  1  0.33927700  0.94767100  0.53755500  1
  H  H136  1  0.39706100  0.99616500  0.43769100  1
  C  C1  1  0.08663900  0.49834500  0.41319100  1
  C  C2  1  0.91297900  0.50028100  0.58623200  1
  C  C3  1  0.58663900  0.99834500  0.41319100  1
  C  C4  1  0.41297900  0.00028100  0.58623200  1
  C  C5  1  0.00073000  0.49833900  0.62020100  1
  C  C6  1  0.99886000  0.50039400  0.37921800  1
  C  C7  1  0.50073000  0.99833900  0.62020100  1
  C  C8  1  0.49886000  0.00039400  0.37921800  1
  C  C9  1  0.03205300  0.47237900  0.69858900  1
  C  C10  1  0.96825500  0.47279000  0.30063900  1
  C  C11  1  0.53205300  0.97237900  0.69858900  1
  C  C12  1  0.46825500  0.97279000  0.30063900  1
  C  C13  1  0.99337000  0.45848600  0.77713400  1
  C  C14  1  0.00731800  0.46001300  0.22171300  1
  C  C15  1  0.49337000  0.95848600  0.77713400  1
  C  C16  1  0.50731800  0.96001300  0.22171300  1
  C  C17  1  0.00133500  0.49957500  0.80786800  1
  C  C18  1  0.99777900  0.50052900  0.19203100  1
  C  C19  1  0.50133500  0.99957500  0.80786800  1
  C  C20  1  0.49777900  0.00052900  0.19203100  1
  C  C21  1  0.04047800  0.51296900  0.72992200  1
  C  C22  1  0.95826700  0.51278100  0.27035900  1
  C  C23  1  0.54047800  0.01296900  0.72992200  1
  C  C24  1  0.45826700  0.01278100  0.27035900  1
  C  C25  1  0.00898300  0.53962900  0.71982800  1
  C  C26  1  0.98887100  0.54083000  0.28083200  1
  C  C27  1  0.50898300  0.03962900  0.71982800  1
  C  C28  1  0.48887100  0.04083000  0.28083200  1
  C  C29  1  0.96996300  0.52626600  0.79888200  1
  C  C30  1  0.02824900  0.52860400  0.20139800  1
  C  C31  1  0.46996300  0.02626600  0.79888200  1
  C  C32  1  0.52824900  0.02860400  0.20139900  1
  C  C33  1  0.96204000  0.48529900  0.76683400  1
  C  C34  1  0.03775200  0.48821200  0.23237000  1
  C  C35  1  0.46204000  0.98529900  0.76683400  1
  C  C36  1  0.53775200  0.98821200  0.23237000  1
  C  C37  1  0.00107700  0.49870700  0.68876600  1
  C  C38  1  0.99835900  0.50047800  0.31081000  1
  C  C39  1  0.50107700  0.99870700  0.68876600  1
  C  C40  1  0.49835900  0.00047800  0.31081000  1
  C  C41  1  0.34124400  0.47395200  0.11593600  1
  C  C42  1  0.65851500  0.47556200  0.88454400  1
  C  C43  1  0.84124400  0.97395200  0.11593600  1
  C  C44  1  0.15851500  0.97556200  0.88454400  1
  C  C45  1  0.36439800  0.49834900  0.13676300  1
  C  C46  1  0.63522500  0.49871700  0.86267700  1
  C  C47  1  0.86439800  0.99834900  0.13676300  1
  C  C48  1  0.13522500  0.99871700  0.86267700  1
  C  C49  1  0.34154900  0.52173300  0.20404800  1
  C  C50  1  0.65792900  0.52117100  0.79447700  1
  C  C51  1  0.84154900  0.02173300  0.20404800  1
  C  C52  1  0.15792900  0.02117100  0.79447700  1
  C  C53  1  0.29574100  0.52235600  0.24852700  1
  C  C54  1  0.70373100  0.52203700  0.74992100  1
  C  C55  1  0.79574100  0.02235600  0.24852700  1
  C  C56  1  0.20373100  0.02203700  0.74992100  1
  C  C57  1  0.27261300  0.49709800  0.22864500  1
  C  C58  1  0.72700900  0.49798000  0.77085400  1
  C  C59  1  0.77261300  0.99709800  0.22864500  1
  C  C60  1  0.22700900  0.99798000  0.77085400  1
  C  C61  1  0.29543900  0.47236100  0.16299400  1
  C  C62  1  0.70433100  0.47422200  0.83758300  1
  C  C63  1  0.79543900  0.97236100  0.16299400  1
  C  C64  1  0.20433100  0.97422200  0.83758300  1
  C  C65  1  0.27308700  0.54860000  0.31250500  1
  C  C66  1  0.72622700  0.54731500  0.68478100  1
  C  C67  1  0.77308700  0.04860000  0.31250500  1
  C  C68  1  0.22622700  0.04731500  0.68478100  1
  C  C69  1  0.22741800  0.55010700  0.35585200  1
  C  C70  1  0.77189100  0.54904900  0.64125800  1
  C  C71  1  0.72741800  0.05010700  0.35585200  1
  C  C72  1  0.27189100  0.04904900  0.64125800  1
  C  C73  1  0.20421500  0.52426600  0.33682200  1
  C  C74  1  0.79524700  0.52442200  0.66139400  1
  C  C75  1  0.70421500  0.02426600  0.33682200  1
  C  C76  1  0.29524700  0.02442200  0.66139400  1
  C  C77  1  0.22674500  0.49688600  0.27404300  1
  C  C78  1  0.77287900  0.49802500  0.72544200  1
  C  C79  1  0.72674500  0.99688600  0.27404300  1
  C  C80  1  0.27287900  0.99802500  0.72544300  1
  C  C81  1  0.20348000  0.46956000  0.25663400  1
  C  C82  1  0.79630800  0.47195800  0.74412200  1
  C  C83  1  0.70348000  0.96956000  0.25663400  1
  C  C84  1  0.29630800  0.97195800  0.74412200  1
  C  C85  1  0.22679900  0.44307100  0.19198700  1
  C  C86  1  0.77315500  0.44649200  0.81000800  1
  C  C87  1  0.72679900  0.94307100  0.19198700  1
  C  C88  1  0.27315500  0.94649200  0.81000800  1
  C  C89  1  0.27248900  0.44579500  0.14453100  1
  C  C90  1  0.72744400  0.44893600  0.85728000  1
  C  C91  1  0.77248900  0.94579500  0.14453100  1
  C  C92  1  0.22744400  0.94893600  0.85728000  1
  C  C93  1  0.15849000  0.52582400  0.38083500  1
  C  C94  1  0.84096300  0.52624300  0.61725700  1
  C  C95  1  0.65849000  0.02582400  0.38083500  1
  C  C96  1  0.34096300  0.02624300  0.61725700  1
  C  C97  1  0.13511200  0.49826100  0.36466800  1
  C  C98  1  0.86450600  0.49992300  0.63473200  1
  C  C99  1  0.63511200  0.99826100  0.36466800  1
  C  C100  1  0.36450600  0.99992300  0.63473200  1
  C  C101  1  0.15738300  0.47001300  0.30326500  1
  C  C102  1  0.84240100  0.47265900  0.69748200  1
  C  C103  1  0.65738300  0.97001300  0.30326500  1
  C  C104  1  0.34240100  0.97265900  0.69748200  1
  C  C105  1  0.00049800  0.41391100  0.99949700  1
  C  C106  1  0.50049800  0.91391100  0.99949700  1
  C  C107  1  0.00118300  0.50028100  0.87689600  1
  C  C108  1  0.99791200  0.50081700  0.12301500  1
  C  C109  1  0.50118300  0.00028100  0.87689600  1
  C  C110  1  0.49791200  0.00081700  0.12301500  1
  C  C111  1  0.99859700  0.58730100  0.00037300  1
  C  C112  1  0.49859700  0.08730100  0.00037300  1
  C  C113  1  0.49969300  0.41285600  0.99843400  1
  C  C114  1  0.99969300  0.91285600  0.99843400  1
  C  C115  1  0.41292400  0.49927500  0.08828800  1
  C  C116  1  0.58670400  0.49936600  0.91107800  1
  C  C117  1  0.91292400  0.99927500  0.08828800  1
  C  C118  1  0.08670400  0.99936600  0.91107800  1
  C  C119  1  0.49990200  0.58653300  0.00094200  1
  C  C120  1  0.99990200  0.08653300  0.00094200  1
  C  C121  1  0.53468900  0.65817100  0.99461500  1
  C  C122  1  0.46544300  0.65822600  0.00625300  1
  C  C123  1  0.03468900  0.15817100  0.99461500  1
  C  C124  1  0.96544300  0.15822600  0.00625300  1
  C  C125  1  0.50000400  0.63535900  0.00061000  1
  C  C126  1  0.00000400  0.13535900  0.00061000  1
  C  C127  1  0.46693600  0.70458500  0.00079800  1
  C  C128  1  0.53337400  0.70454300  0.99967900  1
  C  C129  1  0.96693600  0.20458500  0.00079800  1
  C  C130  1  0.03337400  0.20454300  0.99967900  1
  C  C131  1  0.50017300  0.72735600  0.00020900  1
  C  C132  1  0.00017300  0.22735600  0.00020900  1
  C  C133  1  0.43554700  0.72930600  0.99763700  1
  C  C134  1  0.56489800  0.72923000  0.00250700  1
  C  C135  1  0.93554700  0.22930600  0.99763700  1
  C  C136  1  0.06489800  0.22923000  0.00250700  1
  C  C137  1  0.93472300  0.27466400  0.00310000  1
  C  C138  1  0.06579200  0.27458000  0.99690800  1
  C  C139  1  0.43472300  0.77466400  0.00310000  1
  C  C140  1  0.56579200  0.77458000  0.99690800  1
  C  C141  1  0.96679600  0.29678200  0.00407000  1
  C  C142  1  0.03372100  0.29673300  0.99598700  1
  C  C143  1  0.46679600  0.79678200  0.00407000  1
  C  C144  1  0.53372100  0.79673300  0.99598700  1
  C  C145  1  0.00022700  0.27346900  0.00009700  1
  C  C146  1  0.50022700  0.77346900  0.00009700  1
  C  C147  1  0.96622400  0.34251100  0.00559400  1
  C  C148  1  0.03441200  0.34245500  0.99422200  1
  C  C149  1  0.46622400  0.84251100  0.00559400  1
  C  C150  1  0.53441200  0.84245500  0.99422200  1
  C  C151  1  0.00035200  0.36550200  0.99984100  1
  C  C152  1  0.50035200  0.86550200  0.99984100  1
  C  C153  1  0.52601900  0.34139900  0.93160200  1
  C  C154  1  0.47298300  0.34168500  0.06614100  1
  C  C155  1  0.02601900  0.84139900  0.93160200  1
  C  C156  1  0.97298300  0.84168500  0.06614100  1
  C  C157  1  0.49957500  0.36444900  0.99873800  1
  C  C158  1  0.99957500  0.86444900  0.99873800  1
  C  C159  1  0.47197800  0.29595500  0.06612400  1
  C  C160  1  0.52671500  0.29566700  0.93214600  1
  C  C161  1  0.97197800  0.79595500  0.06612400  1
  C  C162  1  0.02671500  0.79566700  0.93214600  1
  C  C163  1  0.49926600  0.27294300  0.99926600  1
  C  C164  1  0.99926600  0.77294300  0.99926600  1
  C  C165  1  0.44365500  0.27319500  0.13290100  1
  C  C166  1  0.55487400  0.27261700  0.86563000  1
  C  C167  1  0.94365500  0.77319500  0.13290100  1
  C  C168  1  0.05487400  0.77261700  0.86563000  1
  C  C169  1  0.94237300  0.72753700  0.13268500  1
  C  C170  1  0.05582700  0.72695400  0.86636600  1
  C  C171  1  0.44237300  0.22753700  0.13268500  1
  C  C172  1  0.55582700  0.22695400  0.86636600  1
  C  C173  1  0.97022600  0.70448800  0.06603800  1
  C  C174  1  0.02780600  0.70419200  0.93327100  1
  C  C175  1  0.47022600  0.20448800  0.06603800  1
  C  C176  1  0.52780600  0.20419200  0.93327100  1
  C  C177  1  0.99910000  0.72720800  0.99952500  1
  C  C178  1  0.49910000  0.22720800  0.99952500  1
  C  C179  1  0.96926700  0.65876000  0.06587900  1
  C  C180  1  0.02843100  0.65845900  0.93395400  1
  C  C181  1  0.46926700  0.15876000  0.06587900  1
  C  C182  1  0.52843100  0.15845900  0.93395400  1
  C  C183  1  0.99876400  0.63570500  0.00004900  1
  C  C184  1  0.49876400  0.13570500  0.00004900  1
  C  C185  1  0.20464100  0.41191500  0.17167300  1
  C  C186  1  0.18172100  0.37594600  0.21765800  1
  C  C187  1  0.16219500  0.34589500  0.19696500  1
  C  C188  1  0.16595700  0.35138000  0.12985100  1
  C  C189  1  0.18947000  0.38680100  0.08322500  1
  C  C190  1  0.20903200  0.41686200  0.10384900  1
  C  C191  1  0.79554100  0.41679700  0.83189400  1
  C  C192  1  0.81866900  0.38028300  0.78786100  1
  C  C193  1  0.83854300  0.35169500  0.80995700  1
  C  C194  1  0.83492900  0.35919700  0.87653500  1
  C  C195  1  0.81120100  0.39515800  0.92124900  1
  C  C196  1  0.79128900  0.42375400  0.89922500  1
  C  C197  1  0.70464100  0.91191500  0.17167300  1
  C  C198  1  0.68172100  0.87594600  0.21765800  1
  C  C199  1  0.66219500  0.84589500  0.19696500  1
  C  C200  1  0.66595700  0.85138000  0.12985100  1
  C  C201  1  0.68947000  0.88680100  0.08322500  1
  C  C202  1  0.70903200  0.91686200  0.10384900  1
  C  C203  1  0.29554100  0.91679700  0.83189400  1
  C  C204  1  0.31866900  0.88028300  0.78786100  1
  C  C205  1  0.33854300  0.85169500  0.80995700  1
  C  C206  1  0.33492900  0.85919700  0.87653500  1
  C  C207  1  0.31120100  0.89515800  0.92124900  1
  C  C208  1  0.29128900  0.92375400  0.89922500  1
  C  C209  1  0.57569100  0.63357600  0.96831900  1
  C  C210  1  0.57989900  0.60819700  0.01748300  1
  C  C211  1  0.62005800  0.58895000  0.99283900  1
  C  C212  1  0.65624700  0.59510700  0.91918500  1
  C  C213  1  0.65200700  0.61961500  0.86959300  1
  C  C214  1  0.61178200  0.63858300  0.89397500  1
  C  C215  1  0.42439100  0.63375200  0.03245500  1
  C  C216  1  0.42031300  0.60815800  0.98334000  1
  C  C217  1  0.38014800  0.58900500  0.00779700  1
  C  C218  1  0.34379600  0.59552700  0.08118100  1
  C  C219  1  0.34787000  0.62033300  0.13069500  1
  C  C220  1  0.38811800  0.63915100  0.10654000  1
  C  C221  1  0.07569100  0.13357600  0.96831900  1
  C  C222  1  0.07989900  0.10819700  0.01748300  1
  C  C223  1  0.12005800  0.08895000  0.99283900  1
  C  C224  1  0.15624700  0.09510700  0.91918500  1
  C  C225  1  0.15200700  0.11961500  0.86959300  1
  C  C226  1  0.11178200  0.13858300  0.89397600  1
  C  C227  1  0.92439100  0.13375200  0.03245500  1
  C  C228  1  0.92031300  0.10815800  0.98334000  1
  C  C229  1  0.88014800  0.08900500  0.00779700  1
  C  C230  1  0.84379600  0.09552700  0.08118100  1
  C  C231  1  0.84787000  0.12033300  0.13069500  1
  C  C232  1  0.88811800  0.13915100  0.10654000  1
  C  C233  1  0.40735100  0.71129400  0.97593800  1
  C  C234  1  0.42645500  0.69584800  0.90302100  1
  C  C235  1  0.40001100  0.68147300  0.88063500  1
  C  C236  1  0.35443700  0.68329500  0.93061600  1
  C  C237  1  0.33531000  0.70011500  0.00260600  1
  C  C238  1  0.36173700  0.71465200  0.02491500  1
  C  C239  1  0.59323400  0.71122200  0.02390600  1
  C  C240  1  0.57431300  0.69609200  0.09694300  1
  C  C241  1  0.60091600  0.68180300  0.11905200  1
  C  C242  1  0.64647300  0.68340000  0.06866100  1
  C  C243  1  0.66542600  0.69989900  0.99652200  1
  C  C244  1  0.63884100  0.71434800  0.97448800  1
  C  C245  1  0.90735100  0.21129400  0.97593800  1
  C  C246  1  0.92645500  0.19584800  0.90302100  1
  C  C247  1  0.90001100  0.18147300  0.88063500  1
  C  C248  1  0.85443700  0.18329500  0.93061600  1
  C  C249  1  0.83531000  0.20011500  0.00260600  1
  C  C250  1  0.86173700  0.21465200  0.02491500  1
  C  C251  1  0.09323400  0.21122200  0.02390600  1
  C  C252  1  0.07431300  0.19609200  0.09694300  1
  C  C253  1  0.10091600  0.18180300  0.11905200  1
  C  C254  1  0.14647300  0.18340000  0.06866100  1
  C  C255  1  0.16542600  0.19989900  0.99652200  1
  C  C256  1  0.13884100  0.21434800  0.97448800  1
  C  C257  1  0.06802000  0.44346500  0.63820400  1
  C  C258  1  0.06737900  0.39815900  0.64837700  1
  C  C259  1  0.10077700  0.37195900  0.59173300  1
  C  C260  1  0.13496500  0.39086400  0.52492800  1
  C  C261  1  0.13577400  0.43601900  0.51470200  1
  C  C262  1  0.10231200  0.46227300  0.57111200  1
  C  C263  1  0.93338100  0.44288500  0.36066600  1
  C  C264  1  0.93533300  0.39758700  0.34952900  1
  C  C265  1  0.90295300  0.37048100  0.40593000  1
  C  C266  1  0.86850400  0.38846800  0.47347000  1
  C  C267  1  0.86639600  0.43361500  0.48466500  1
  C  C268  1  0.89880600  0.46077700  0.42845200  1
  C  C269  1  0.56802000  0.94346500  0.63820400  1
  C  C270  1  0.56737900  0.89815900  0.64837700  1
  C  C271  1  0.60077700  0.87195900  0.59173300  1
  C  C272  1  0.63496500  0.89086400  0.52492800  1
  C  C273  1  0.63577400  0.93601900  0.51470200  1
  C  C274  1  0.60231200  0.96227300  0.57111200  1
  C  C275  1  0.43338100  0.94288500  0.36066600  1
  C  C276  1  0.43533300  0.89758700  0.34952900  1
  C  C277  1  0.40295300  0.87048100  0.40593000  1
  C  C278  1  0.36850400  0.88846800  0.47347000  1
  C  C279  1  0.36639600  0.93361500  0.48466500  1
  C  C280  1  0.39880600  0.96077700  0.42845200  1
  O  O1  1  0.06587600  0.53663000  0.43312000  1
  O  O2  1  0.93348900  0.53863600  0.56379800  1
  O  O3  1  0.56587600  0.03663000  0.43312000  1
  O  O4  1  0.43348900  0.03863600  0.56379800  1
  O  O5  1  0.06609700  0.46001000  0.43454200  1
  O  O6  1  0.93377700  0.46206800  0.56733300  1
  O  O7  1  0.56609700  0.96001000  0.43454200  1
  O  O8  1  0.43377700  0.96206800  0.56733300  1
  O  O9  1  0.99921100  0.53657900  0.59281300  1
  O  O10  1  0.99838500  0.53872700  0.40830600  1
  O  O11  1  0.49921100  0.03657900  0.59281300  1
  O  O12  1  0.49838500  0.03872700  0.40830600  1
  O  O13  1  0.00178000  0.45996000  0.59056600  1
  O  O14  1  0.99983000  0.46208900  0.40712700  1
  O  O15  1  0.50178000  0.95996000  0.59056600  1
  O  O16  1  0.49983000  0.96208900  0.40712700  1
  O  O17  1  0.96219300  0.43468000  0.03749800  1
  O  O18  1  0.03892400  0.43439400  0.96112500  1
  O  O19  1  0.46219300  0.93468000  0.03749800  1
  O  O20  1  0.53892400  0.93439400  0.96112500  1
  O  O21  1  0.96273600  0.50170100  0.94313800  1
  O  O22  1  0.03636600  0.50004000  0.05675500  1
  O  O23  1  0.46273600  0.00170100  0.94313800  1
  O  O24  1  0.53636600  0.00004000  0.05675500  1
  O  O25  1  0.03946500  0.49904700  0.86830300  1
  O  O26  1  0.95962000  0.50162200  0.13161800  1
  O  O27  1  0.53946500  0.99904700  0.86830300  1
  O  O28  1  0.45962000  0.00162200  0.13161800  1
  O  O29  1  0.96018600  0.56682700  0.03982300  1
  O  O30  1  0.03688500  0.56653300  0.96135900  1
  O  O31  1  0.46018600  0.06682700  0.03982300  1
  O  O32  1  0.53688500  0.06653300  0.96135900  1
  O  O33  1  0.49817700  0.43359900  0.05358100  1
  O  O34  1  0.50134700  0.43334500  0.94300900  1
  O  O35  1  0.99817700  0.93359900  0.05358100  1
  O  O36  1  0.00134700  0.93334500  0.94300900  1
  O  O37  1  0.43382900  0.50111900  0.12115600  1
  O  O38  1  0.56580200  0.49902200  0.87814000  1
  O  O39  1  0.93382900  0.00111900  0.12115600  1
  O  O40  1  0.06580200  0.99902200  0.87814000  1
  O  O41  1  0.43345100  0.49792100  0.01431700  1
  O  O42  1  0.56618100  0.49997500  0.98507500  1
  O  O43  1  0.93345100  0.99792100  0.01431700  1
  O  O44  1  0.06618100  0.99997500  0.98507500  1
  O  O45  1  0.49932900  0.56577500  0.05512300  1
  O  O46  1  0.50039100  0.56551300  0.94701300  1
  O  O47  1  0.99932900  0.06577500  0.05512300  1
  O  O48  1  0.00039100  0.06551300  0.94701300  1
  F  F1  1  0.14687000  0.32176200  0.10941500  1
  F  F2  1  0.85438200  0.33103300  0.89832900  1
  F  F3  1  0.64687000  0.82176200  0.10941500  1
  F  F4  1  0.35438200  0.83103300  0.89832900  1
  F  F5  1  0.69602600  0.57726400  0.89565000  1
  F  F6  1  0.30403600  0.57770200  0.10455100  1
  F  F7  1  0.19602600  0.07726400  0.89565000  1
  F  F8  1  0.80403600  0.07770200  0.10455100  1
  F  F9  1  0.32845000  0.66905000  0.90868200  1
  F  F10  1  0.67261600  0.66925400  0.09033200  1
  F  F11  1  0.82845000  0.16905000  0.90868200  1
  F  F12  1  0.17261600  0.16925400  0.09033200  1
  F  F13  1  0.16778500  0.36507300  0.46934400  1
  F  F14  1  0.83670700  0.36177800  0.52882700  1
  F  F15  1  0.66778500  0.86507300  0.46934400  1
  F  F16  1  0.33670700  0.86177800  0.52882700  1
