# generated using pymatgen
data_Zn2H14C45(N3O7)2
_symmetry_space_group_name_H-M   'P 1'
_cell_length_a   8.54555600
_cell_length_b   10.79792900
_cell_length_c   17.51070700
_cell_angle_alpha   97.81385100
_cell_angle_beta   90.11075800
_cell_angle_gamma   90.00834400
_symmetry_Int_Tables_number   1
_chemical_formula_structural   Zn2H14C45(N3O7)2
_chemical_formula_sum   'Zn2 H14 C45 N6 O14'
_cell_volume   1600.78263551
_cell_formula_units_Z   1
loop_
 _symmetry_equiv_pos_site_id
 _symmetry_equiv_pos_as_xyz
  1  'x, y, z'
loop_
 _atom_site_type_symbol
 _atom_site_label
 _atom_site_symmetry_multiplicity
 _atom_site_fract_x
 _atom_site_fract_y
 _atom_site_fract_z
 _atom_site_occupancy
  Zn  Zn1  1  0.49886200  0.50449800  0.08572800  1
  Zn  Zn2  1  0.49703100  0.49934100  0.91470300  1
  H  H1  1  0.99246500  0.59329700  0.03841400  1
  H  H2  1  0.99651900  0.40876100  0.96357700  1
  H  H3  1  0.25279800  0.90419600  0.99228200  1
  H  H4  1  0.24879600  0.09537500  0.01132300  1
  H  H5  1  0.55815000  0.31759800  0.17688000  1
  H  H6  1  0.60685200  0.20822600  0.28432900  1
  H  H7  1  0.39671100  0.80650400  0.34277800  1
  H  H8  1  0.65222200  0.09970800  0.39159000  1
  H  H9  1  0.33762500  0.90483000  0.46812300  1
  H  H10  1  0.32470500  0.89803000  0.60712300  1
  H  H11  1  0.62311000  0.20672200  0.66543800  1
  H  H12  1  0.37298700  0.79070100  0.71542300  1
  H  H13  1  0.42628300  0.68441700  0.82288000  1
  H  H14  1  0.56775200  0.30762300  0.79053300  1
  C  C1  1  0.99486800  0.68960300  0.02857500  1
  C  C2  1  0.13528800  0.74601300  0.01807700  1
  C  C3  1  0.13945700  0.86811800  0.00401900  1
  C  C4  1  0.85720800  0.75024600  0.01800800  1
  C  C5  1  0.86002400  0.87454700  0.00638800  1
  C  C6  1  0.00138800  0.93676700  0.00316800  1
  C  C7  1  0.00059800  0.06412800  0.99567900  1
  C  C8  1  0.13849500  0.13290700  0.99743100  1
  C  C9  1  0.13739300  0.25473100  0.98292600  1
  C  C10  1  0.72078400  0.05672600  0.99070300  1
  C  C11  1  0.85841700  0.12503300  0.98982000  1
  C  C12  1  0.85790700  0.25204300  0.98122700  1
  C  C13  1  0.99740300  0.31200100  0.97247000  1
  C  C14  1  0.27628800  0.66949200  0.01239100  1
  C  C15  1  0.28034300  0.33033200  0.98807700  1
  C  C16  1  0.71798900  0.33189200  0.98758900  1
  C  C17  1  0.71377300  0.67527400  0.01256500  1
  C  C18  1  0.53282000  0.40200400  0.21529300  1
  C  C19  1  0.46846200  0.61484800  0.23486700  1
  C  C20  1  0.57521400  0.29100200  0.32309500  1
  C  C21  1  0.53491800  0.39911800  0.29389900  1
  C  C22  1  0.49659900  0.50449100  0.34335800  1
  C  C23  1  0.46200900  0.61301400  0.31381800  1
  C  C24  1  0.42276800  0.71928800  0.36360100  1
  C  C25  1  0.62042000  0.18176600  0.43091300  1
  C  C26  1  0.57691300  0.28890200  0.40181300  1
  C  C27  1  0.53441100  0.39355700  0.45128400  1
  C  C28  1  0.61928900  0.17730000  0.50940700  1
  C  C29  1  0.57650600  0.28307200  0.55976300  1
  C  C30  1  0.49446000  0.50161300  0.42192200  1
  C  C31  1  0.45265300  0.60691200  0.47105000  1
  C  C32  1  0.41500300  0.71527100  0.44179800  1
  C  C33  1  0.36932600  0.81997200  0.49076500  1
  C  C34  1  0.53362200  0.39076400  0.52997100  1
  C  C35  1  0.49135200  0.49672500  0.57890800  1
  C  C36  1  0.44974300  0.60423900  0.54944300  1
  C  C37  1  0.40590100  0.70945100  0.59845800  1
  C  C38  1  0.36285200  0.81649300  0.56899500  1
  C  C39  1  0.58067800  0.28486700  0.63929700  1
  C  C40  1  0.53575100  0.39051200  0.68772400  1
  C  C41  1  0.49162500  0.49590400  0.65745500  1
  C  C42  1  0.45044700  0.60127400  0.70639100  1
  C  C43  1  0.40603200  0.70794600  0.67698200  1
  C  C44  1  0.53590800  0.39135400  0.76680500  1
  C  C45  1  0.45501000  0.60024000  0.78492500  1
  N  N1  1  0.72471700  0.93475300  0.99892200  1
  N  N2  1  0.49951200  0.50870500  0.18640300  1
  N  N3  1  0.49672500  0.49590800  0.81422200  1
  N  N4  1  0.66023300  0.06259900  0.53642300  1
  N  N5  1  0.44290600  0.72969100  0.20531100  1
  N  N6  1  0.57317100  0.11363500  0.98333200  1
  O  O1  1  0.32673400  0.62609500  0.94333300  1
  O  O2  1  0.33223000  0.63322100  0.07539800  1
  O  O3  1  0.33181100  0.37453600  0.05723200  1
  O  O4  1  0.33454500  0.36708700  0.92458100  1
  O  O5  1  0.66945200  0.37776800  0.05697300  1
  O  O6  1  0.66225500  0.36916000  0.92461000  1
  O  O7  1  0.66416200  0.62917500  0.94349800  1
  O  O8  1  0.66016500  0.63750300  0.07565700  1
  O  O9  1  0.75586900  0.98656400  0.49584800  1
  O  O10  1  0.57348300  0.01975800  0.58780400  1
  O  O11  1  0.30364100  0.77876700  0.20926000  1
  O  O12  1  0.56235600  0.79899600  0.19328000  1
  O  O13  1  0.50891100  0.17190700  0.04513800  1
  O  O14  1  0.48507400  0.07211700  0.92480500  1
