# Generated by REPEAT Assigner based on pymatgen
data_DB0-m2_o11_o28_f0_pcu.sym.106_sqe
_audit_creation_date              2022-05-24
_audit_creation_method            REPEAT_Assigner
_cell_length_a                    23.350168
_cell_length_b                    11.023580
_cell_length_c                    9.637983
_cell_angle_alpha                 90.020308
_cell_angle_beta                  90.003815
_cell_angle_gamma                 90.011444
_cell_volume                      2480.840115
_symmetry_space_group_name_H-M    P1
_symmetry_Int_Tables_number       1
loop_
    _symmetry_equiv_pos_site_id
    _symmetry_equiv_pos_as_xyz
    1  x,y,z
loop_
    _atom_site_type_symbol
    _atom_site_label
    _atom_site_fract_x
    _atom_site_fract_y
    _atom_site_fract_z
    _atom_type_partial_charge
    O   O1   0.496352  0.320528  0.627865  -0.618813
    O   O2   0.501534  0.321832  0.389169  -0.546233
    C   C1   0.498317  0.264585  0.508376  0.787954
    O   O3   0.418104  0.506699  0.632756  -0.506415
    O   O4   0.417017  0.495714  0.393743  -0.558679
    C   C2   0.390718  0.502626  0.513783  0.645789
    Cu  Cu1  0.501333  0.496208  0.649649  0.909295
    Cu  Cu2  0.500152  0.498476  0.372007  0.891705
    O   O5   0.502083  0.672683  0.632606  -0.570343
    O   O6   0.502852  0.674476  0.394357  -0.563265
    O   O7   0.584427  0.494450  0.626982  -0.586709
    O   O8   0.583432  0.492672  0.389306  -0.596513
    C   C3   0.503025  0.730329  0.514079  0.696893
    C   C4   0.610863  0.492555  0.507512  0.658249
    C   C5   0.880552  0.591320  0.439871  0.336550
    N   N1   0.853451  0.498918  0.503842  -0.125004
    C   C6   0.883100  0.411103  0.568820  0.439178
    C   C7   0.942144  0.414254  0.571413  -0.080367
    C   C8   0.971092  0.507257  0.505903  0.054223
    C   C9   0.940386  0.597013  0.438660  -0.022433
    C   C10  0.972226  0.324139  0.639026  -0.043546
    C   C11  0.030986  0.326805  0.641654  -0.032430
    C   C12  0.060243  0.419401  0.576314  -0.100580
    C   C13  0.030466  0.509722  0.508131  0.053770
    C   C14  0.060347  0.601758  0.442700  0.010935
    C   C15  0.029424  0.692336  0.375084  -0.059390
    C   C16  0.970479  0.689971  0.373040  -0.017478
    C   C17  0.119310  0.421164  0.578130  0.448990
    N   N2   0.148102  0.510392  0.513521  -0.128777
    C   C18  0.120210  0.600183  0.446926  0.331384
    O   O9   0.848597  0.678691  0.381232  -0.383160
    O   O10  0.854910  0.318745  0.628965  -0.472623
    H   H1   0.950517  0.250505  0.691032  0.132905
    H   H2   0.053355  0.255124  0.695515  0.127606
    O   O11  0.148448  0.331850  0.641486  -0.457676
    O   O12  0.151420  0.688440  0.387625  -0.391916
    C   C19  0.238913  0.515469  0.637602  -0.175433
    H   H3   0.215998  0.522818  0.734710  0.138802
    C   C20  0.297988  0.514323  0.637884  -0.071689
    H   H4   0.320219  0.520702  0.735875  0.126892
    C   C21  0.327882  0.505556  0.514354  -0.040285
    C   C22  0.297939  0.499257  0.390681  -0.074369
    H   H5   0.320052  0.492263  0.292542  0.121949
    C   C23  0.238937  0.501338  0.390683  -0.174414
    H   H6   0.216046  0.495104  0.293434  0.143165
    C   C24  0.209189  0.509198  0.514024  0.235285
    C   C25  0.762262  0.492417  0.381190  -0.168883
    H   H7   0.784865  0.490939  0.283315  0.142582
    C   C26  0.703213  0.490715  0.381916  -0.091364
    H   H8   0.680710  0.488932  0.283964  0.129350
    C   C27  0.673660  0.491777  0.506271  -0.022331
    C   C28  0.703857  0.493767  0.629699  -0.103285
    H   H9   0.681893  0.494982  0.728364  0.132650
    C   C29  0.762877  0.495457  0.628660  -0.152550
    H   H10  0.785904  0.499047  0.725890  0.135826
    C   C30  0.792342  0.495213  0.504516  0.218662
    C   C31  0.503699  0.929500  0.401334  -0.062264
    C   C32  0.504387  0.863137  0.517834  -0.260003
    H   H11  0.503316  0.884035  0.301742  0.165078
    H   H12  0.506691  0.904134  0.619380  0.160416
    C   C33  0.504707  0.063732  0.399309  0.029688
    C   C34  0.496722  0.131909  0.512391  -0.333181
    H   H13  0.511568  0.107473  0.300047  0.098976
    H   H14  0.488616  0.092116  0.612754  0.192700
    C   C35  0.465435  0.438294  0.933902  0.051920
    N   N3   0.502669  0.493321  0.857360  -0.250648
    H   H15  0.541192  0.513174  0.903582  0.269543
    C   C36  0.471505  0.425278  0.086603  0.070869
    N   N4   0.499305  0.500871  0.164262  -0.197851
    C   C37  0.419686  0.370306  0.871213  0.338633
    N   N5   0.382949  0.314574  0.821850  -0.345146
    C   C38  0.439939  0.326986  0.147915  0.351513
    N   N6   0.414090  0.247902  0.196008  -0.352023
    C   C39  0.504583  0.617588  0.112041  0.476994
    N   N7   0.508946  0.715002  0.068600  -0.464642
    C   C40  0.056110  0.792185  0.304205  0.376505
    N   N8   0.077361  0.872787  0.247077  -0.391851
    C   C41  0.942912  0.787168  0.299398  0.351946
    N   N9   0.920940  0.865605  0.239998  -0.390810
