# generated using pymatgen
data_ZnH13C19NO4
_symmetry_space_group_name_H-M   'P 1'
_cell_length_a   10.94290800
_cell_length_b   11.87768300
_cell_length_c   13.09228500
_cell_angle_alpha   91.18979600
_cell_angle_beta   89.99290400
_cell_angle_gamma   85.81353400
_symmetry_Int_Tables_number   1
_chemical_formula_structural   ZnH13C19NO4
_chemical_formula_sum   'Zn2 H26 C38 N2 O8'
_cell_volume   1696.77923753
_cell_formula_units_Z   2
loop_
 _symmetry_equiv_pos_site_id
 _symmetry_equiv_pos_as_xyz
  1  'x, y, z'
loop_
 _atom_site_type_symbol
 _atom_site_label
 _atom_site_symmetry_multiplicity
 _atom_site_fract_x
 _atom_site_fract_y
 _atom_site_fract_z
 _atom_site_occupancy
  Zn  Zn1  1  0.50126700  0.35857100  0.49181800  1
  Zn  Zn2  1  0.48150200  0.61364600  0.47177100  1
  H  H1  1  0.87019100  0.59178700  0.36096100  1
  H  H2  1  0.77762200  0.38427500  0.65600900  1
  H  H3  1  0.89781100  0.29243900  0.78731300  1
  H  H4  1  0.12157700  0.29361500  0.78633100  1
  H  H5  1  0.22434400  0.38646500  0.65409200  1
  H  H6  1  0.09286700  0.59231200  0.35945900  1
  H  H7  1  0.45407000  0.62515800  0.14636500  1
  H  H8  1  0.43450400  0.71323700  0.98383200  1
  H  H9  1  0.55746200  0.26044200  0.97292800  1
  H  H10  1  0.43938200  0.69923900  0.79755300  1
  H  H11  1  0.53142800  0.34415900  0.81539700  1
  H  H12  1  0.37950600  0.17592500  0.39234000  1
  H  H13  1  0.65133200  0.18849400  0.61577400  1
  H  H14  1  0.66784200  0.98224200  0.62627500  1
  H  H15  1  0.33076000  0.77875000  0.34871300  1
  H  H16  1  0.60378100  0.80249300  0.57074400  1
  H  H17  1  0.24631500  0.92901000  0.26517500  1
  H  H18  1  0.31925700  0.05833300  0.26399400  1
  H  H19  1  0.12759400  0.00073100  0.42948600  1
  H  H20  1  0.16839000  0.20477700  0.29794900  1
  H  H21  1  0.04832200  0.19068400  0.39782900  1
  H  H22  1  0.58149700  0.16598600  0.11421800  1
  H  H23  1  0.49836500  0.21390400  0.22449300  1
  H  H24  1  0.73937100  0.31966600  0.21978000  1
  H  H25  1  0.69209000  0.07883000  0.27841500  1
  H  H26  1  0.82726800  0.16052100  0.31246500  1
  C  C1  1  0.48724200  0.50864000  0.68123100  1
  C  C2  1  0.73064000  0.48585500  0.48539500  1
  C  C3  1  0.49685900  0.46285700  0.28165000  1
  C  C4  1  0.25205400  0.48675100  0.48205400  1
  C  C5  1  0.87576000  0.38218200  0.64845900  1
  C  C6  1  0.94347600  0.33087800  0.72517900  1
  C  C7  1  0.06861600  0.33152400  0.72461800  1
  C  C8  1  0.12659200  0.38335800  0.64728400  1
  C  C9  1  0.06003200  0.43278300  0.56716400  1
  C  C10  1  0.93287700  0.43229100  0.56788300  1
  C  C11  1  0.86451700  0.48697600  0.49114800  1
  C  C12  1  0.92290900  0.54723500  0.41930200  1
  C  C13  1  0.04855900  0.54756100  0.41844500  1
  C  C14  1  0.11808500  0.48771200  0.48950200  1
  C  C15  1  0.50305700  0.44880100  0.16878900  1
  C  C16  1  0.48525500  0.52032600  0.79305300  1
  C  C17  1  0.45595700  0.63196500  0.94687200  1
  C  C18  1  0.45900900  0.62396000  0.84136300  1
  C  C19  1  0.50953900  0.42581000  0.85136400  1
  C  C20  1  0.50766300  0.43443700  0.95643900  1
  C  C21  1  0.48037600  0.53684300  0.00462100  1
  C  C22  1  0.47748700  0.54391600  0.11013500  1
  C  C23  1  0.53413300  0.34482700  0.11836500  1
  C  C24  1  0.53433800  0.33966800  0.01283900  1
  C  C25  1  0.37389100  0.94752900  0.38702600  1
  C  C26  1  0.38728900  0.83118000  0.39431300  1
  C  C27  1  0.53944600  0.84391800  0.51855300  1
  C  C28  1  0.52979300  0.95999900  0.51332900  1
  C  C29  1  0.44710900  0.01329000  0.44748900  1
  C  C30  1  0.44103200  0.13033700  0.44355100  1
  C  C31  1  0.59367500  0.13898100  0.56838000  1
  C  C32  1  0.60292700  0.02310100  0.57419400  1
  C  C33  1  0.27933200  0.99711300  0.31480800  1
  C  C34  1  0.17168100  0.04974600  0.37311700  1
  C  C35  1  0.12710800  0.15472800  0.35510200  1
  C  C36  1  0.57064100  0.23640000  0.17105400  1
  C  C37  1  0.69100500  0.24339300  0.22359600  1
  C  C38  1  0.73972600  0.15552000  0.27458900  1
  N  N1  1  0.51366200  0.19045700  0.50338400  1
  N  N2  1  0.46877600  0.78164900  0.45927600  1
  O  O1  1  0.49600300  0.40605800  0.64128200  1
  O  O2  1  0.48046700  0.60004300  0.62588200  1
  O  O3  1  0.68105100  0.38883200  0.49098700  1
  O  O4  1  0.66598500  0.58247600  0.47554800  1
  O  O5  1  0.50173700  0.37312400  0.33806600  1
  O  O6  1  0.48741400  0.56540500  0.32221600  1
  O  O7  1  0.31691900  0.38994600  0.48843000  1
  O  O8  1  0.30164300  0.58324500  0.47227700  1
