# Generated by REPEAT Assigner based on pymatgen
data_DB0-m2_o20_o22_f0_nbo.sym.64
_audit_creation_date              2022-05-24
_audit_creation_method            REPEAT_Assigner
_cell_length_a                    33.093061
_cell_length_b                    28.871691
_cell_length_c                    21.071361
_cell_angle_alpha                 90.000000
_cell_angle_beta                  119.765860
_cell_angle_gamma                 90.000000
_cell_volume                      17476.409430
_symmetry_space_group_name_H-M    P1
_symmetry_Int_Tables_number       1
loop_
    _symmetry_equiv_pos_site_id
    _symmetry_equiv_pos_as_xyz
    1  x,y,z
loop_
    _atom_site_type_symbol
    _atom_site_label
    _atom_site_fract_x
    _atom_site_fract_y
    _atom_site_fract_z
    _atom_type_partial_charge
    O   O1    0.933519  0.959876  0.932136  -0.625116
    O   O2    0.066814  0.038919  0.069197  -0.625961
    O   O3    0.067654  0.959220  0.062422  -0.611307
    O   O4    0.932754  0.039606  0.938282  -0.609880
    O   O5    0.433630  0.459705  0.932117  -0.624462
    O   O6    0.566673  0.539181  0.068885  -0.624393
    O   O7    0.567745  0.459471  0.062587  -0.609601
    O   O8    0.432584  0.539425  0.938206  -0.609035
    C   C1    0.911405  0.999743  0.913856  0.883302
    C   C2    0.088965  0.999073  0.087166  0.886774
    C   C3    0.411375  0.499499  0.913812  0.882887
    C   C4    0.588941  0.499396  0.087090  0.883478
    O   O9    0.011581  0.960333  0.917520  -0.580050
    O   O10   0.988535  0.038456  0.083242  -0.583192
    O   O11   0.992828  0.958654  0.085374  -0.612578
    O   O12   0.007824  0.040159  0.915900  -0.612525
    O   O13   0.511758  0.460374  0.917671  -0.580366
    O   O14   0.488473  0.538507  0.083143  -0.583005
    O   O15   0.492856  0.458709  0.085380  -0.612490
    O   O16   0.507556  0.540180  0.915601  -0.612251
    C   C5    0.012593  0.000622  0.890001  0.502946
    C   C6    0.987827  0.998171  0.111050  0.509028
    C   C7    0.512524  0.500648  0.889907  0.503453
    C   C8    0.487813  0.498228  0.111004  0.508598
    Cu  Cu1   0.000309  0.953255  0.999495  1.023702
    Cu  Cu2   0.000070  0.045552  0.001530  1.024093
    Cu  Cu3   0.500429  0.453295  0.999589  1.022448
    Cu  Cu4   0.499890  0.545592  0.001311  1.023009
    C   C9    0.994052  0.957115  0.780174  -0.134177
    C   C10   0.009335  0.040056  0.223261  -0.140087
    C   C11   0.010220  0.954572  0.221375  0.014334
    C   C12   0.987205  0.042304  0.777269  0.011840
    C   C13   0.492115  0.458025  0.778684  -0.138573
    C   C14   0.509322  0.540142  0.223190  -0.140643
    C   C15   0.510217  0.454655  0.221354  0.015181
    C   C16   0.488961  0.543450  0.778548  0.018252
    H   H1    0.011958  0.925916  0.812240  0.036793
    H   H2    0.993609  0.072424  0.192981  0.038339
    H   H3    0.991957  0.922566  0.192030  0.019270
    H   H4    0.003061  0.075548  0.804750  0.020077
    H   H5    0.508678  0.426102  0.809710  0.037824
    H   H6    0.493591  0.572502  0.192888  0.038341
    H   H7    0.491953  0.422643  0.192033  0.019032
    H   H8    0.506322  0.575966  0.807113  0.017690
    H   H9    0.957014  0.955185  0.765948  0.040854
    H   H10   0.046405  0.039462  0.237453  0.040732
    H   H11   0.046399  0.954063  0.231165  0.006253
    H   H12   0.951082  0.040237  0.767509  0.004055
    H   H13   0.455038  0.457678  0.764472  0.040796
    H   H14   0.546392  0.539547  0.237381  0.040706
    H   H15   0.546393  0.454142  0.231134  0.005928
    H   H16   0.452785  0.543003  0.768768  0.004124
    C   C17   0.996288  0.957719  0.710723  -0.058904
    C   C18   0.007041  0.039484  0.292646  -0.046169
    C   C19   0.011508  0.955507  0.293391  -0.128317
    C   C20   0.986125  0.041240  0.705433  -0.115747
    C   C21   0.494382  0.458507  0.709275  -0.053957
    C   C22   0.507028  0.539594  0.292574  -0.044930
    C   C23   0.511515  0.455617  0.293375  -0.127951
    C   C24   0.487742  0.542359  0.706592  -0.122054
    H   H17   0.960081  0.954933  0.664798  0.041596
    H   H18   0.043413  0.039864  0.338454  0.039570
    H   H19   0.048422  0.960074  0.336083  0.050215
    H   H20   0.949560  0.034332  0.663118  0.049577
    H   H21   0.458055  0.457183  0.663406  0.041600
    H   H22   0.543397  0.539988  0.338389  0.039491
    H   H23   0.548431  0.460201  0.336048  0.050347
    H   H24   0.450941  0.536879  0.664054  0.049262
    H   H25   0.014963  0.927104  0.706775  0.014237
    H   H26   0.990563  0.071277  0.298439  0.009634
    H   H27   0.000785  0.921278  0.302836  -0.000635
    H   H28   0.994691  0.076071  0.694283  -0.004457
    H   H29   0.511710  0.427119  0.704280  0.012823
    H   H30   0.490539  0.571389  0.298337  0.009569
    H   H31   0.500806  0.421393  0.302861  -0.000883
    H   H32   0.497645  0.576807  0.696401  -0.002497
    H   H33   0.088313  0.982966  0.883013  0.018433
    H   H34   0.913636  0.021162  0.119478  0.019547
    H   H35   0.922274  0.961096  0.131219  0.026809
    H   H36   0.075302  0.042212  0.867103  0.028852
    H   H37   0.587331  0.479621  0.882099  0.017631
    H   H38   0.413624  0.521225  0.119426  0.019277
    H   H39   0.422271  0.461161  0.131198  0.026564
    H   H40   0.577019  0.539405  0.868614  0.026788
    C   C25   0.065262  0.007830  0.840567  -0.059572
    C   C26   0.934786  0.994529  0.160132  -0.055667
    C   C27   0.565439  0.505564  0.840684  -0.052822
    C   C28   0.434779  0.494601  0.160093  -0.055615
    C   C29   0.015179  0.001437  0.822219  0.277664
    C   C30   0.985198  0.997353  0.178791  0.271785
    C   C31   0.515124  0.501405  0.822140  0.276881
    C   C32   0.485189  0.497427  0.178747  0.273919
    C   C33   0.018153  0.002833  0.705169  0.395057
    C   C34   0.982120  0.995888  0.295756  0.406422
    C   C35   0.518147  0.502670  0.705130  0.395845
    C   C36   0.482119  0.496000  0.295715  0.400723
    C   C37   0.069733  0.007589  0.771096  -0.210358
    C   C38   0.930346  0.994641  0.229635  -0.218332
    C   C39   0.569879  0.505299  0.771184  -0.216715
    C   C40   0.430343  0.494730  0.229600  -0.218506
    C   C41   0.861523  0.999774  0.864291  -0.289725
    C   C42   0.138848  0.999078  0.136729  -0.291296
    C   C43   0.361493  0.499392  0.864250  -0.290339
    C   C44   0.638822  0.499530  0.136661  -0.290794
    C   C45   0.819792  0.999833  0.822552  0.140801
    C   C46   0.180578  0.999096  0.178470  0.140560
    C   C47   0.319762  0.499396  0.822515  0.140975
    C   C48   0.680551  0.499579  0.178409  0.141259
    C   C49   0.770774  0.999904  0.773330  -0.052634
    C   C50   0.229596  0.999111  0.227696  -0.051616
    C   C51   0.270743  0.499449  0.773297  -0.052547
    C   C52   0.729568  0.499569  0.227644  -0.052155
    C   C53   0.729071  0.999927  0.731367  0.022463
    C   C54   0.271298  0.999094  0.269661  0.020828
    C   C55   0.229040  0.499485  0.731339  0.022329
    C   C56   0.771269  0.499498  0.269616  0.021071
    C   C57   0.680070  0.999863  0.682012  0.058023
    C   C58   0.320299  0.999016  0.319014  0.060325
    C   C59   0.180039  0.499461  0.681989  0.058639
    C   C60   0.820269  0.499330  0.318977  0.060163
    C   C61   0.638374  0.999675  0.640017  -0.182125
    C   C62   0.361997  0.998869  0.361003  -0.184111
    C   C63   0.138342  0.499324  0.639996  -0.182768
    C   C64   0.861965  0.499094  0.360971  -0.184034
    O   O17   0.959874  0.932228  0.476169  -0.625811
    O   O18   0.040341  0.065935  0.524448  -0.627528
    O   O19   0.039920  0.931331  0.529292  -0.600083
    O   O20   0.960323  0.066843  0.471904  -0.599691
    O   O21   0.459685  0.432435  0.476038  -0.625655
    O   O22   0.540554  0.565904  0.524680  -0.625783
    O   O23   0.539719  0.431297  0.528992  -0.598310
    O   O24   0.460529  0.567046  0.471965  -0.598634
    C   C65   0.999703  0.910241  0.503247  0.886538
    C   C66   0.000523  0.087922  0.497623  0.890192
    C   C67   0.499446  0.410328  0.502987  0.882647
    C   C68   0.500798  0.588008  0.497840  0.886461
    O   O25   0.970133  0.003113  0.575462  -0.558557
    O   O26   0.030079  0.994856  0.425457  -0.559286
    O   O27   0.470153  0.503335  0.575430  -0.559098
    O   O28   0.530081  0.494928  0.425410  -0.559671
    O   O29   0.049341  0.998567  0.622823  -0.439107
    O   O30   0.950895  0.999829  0.378096  -0.438105
    O   O31   0.549340  0.498423  0.622781  -0.439190
    O   O32   0.450904  0.500017  0.378060  -0.438494
    C   C69   0.012744  0.001679  0.630772  0.330632
    C   C70   0.987489  0.996672  0.370140  0.327166
    C   C71   0.512752  0.501645  0.630739  0.332913
    C   C72   0.487492  0.496801  0.370099  0.331102
    Cu  Cu5   0.954179  0.999630  0.473181  0.953489
    Cu  Cu6   0.046051  0.998532  0.527732  0.956630
    Cu  Cu7   0.454188  0.499855  0.473144  0.953789
    Cu  Cu8   0.546056  0.498484  0.527696  0.954943
    O   O33   0.504442  0.067062  0.450743  -0.579848
    O   O34   0.496029  0.931273  0.550238  -0.593265
    O   O35   0.495046  0.065843  0.552303  -0.580180
    O   O36   0.505229  0.932488  0.448754  -0.593425
    O   O37   0.004564  0.566961  0.450821  -0.579810
    O   O38   0.995845  0.431206  0.550110  -0.593221
    O   O39   0.995163  0.565778  0.552377  -0.580214
    O   O40   0.005049  0.432386  0.448631  -0.593420
    C   C73   0.499580  0.087986  0.501821  0.816858
    C   C74   0.500792  0.910317  0.499196  0.732327
    C   C75   0.999750  0.587902  0.501932  0.816958
    C   C76   0.000561  0.410232  0.499038  0.731697
    O   O41   0.573460  0.001729  0.519328  -0.591925
    O   O42   0.426893  0.999972  0.481741  -0.593008
    O   O43   0.073434  0.501479  0.519310  -0.591762
    O   O44   0.926862  0.500056  0.481713  -0.592917
    O   O45   0.560343  0.000580  0.616939  -0.572150
    O   O46   0.440008  0.001290  0.384134  -0.573155
    O   O47   0.060312  0.500373  0.616917  -0.571924
    O   O48   0.939983  0.501330  0.384111  -0.572943
    C   C77   0.588563  0.999210  0.589891  0.762778
    C   C78   0.411810  0.998551  0.411115  0.765216
    C   C79   0.088531  0.498937  0.589869  0.762799
    C   C80   0.911778  0.498664  0.411085  0.765031
    Cu  Cu9   0.507764  0.999873  0.444054  1.013474
    Cu  Cu10  0.492610  0.998446  0.556965  1.013871
    Cu  Cu11  0.007735  0.499764  0.444031  1.013448
    Cu  Cu12  0.992575  0.498387  0.556937  1.014076
    C   C81   0.999234  0.860569  0.503653  -0.296756
    C   C82   0.001001  0.137587  0.497239  -0.304158
    C   C83   0.498849  0.360657  0.503316  -0.292604
    C   C84   0.501401  0.637673  0.497533  -0.302567
    C   C85   0.999005  0.818842  0.503744  0.141017
    C   C86   0.001247  0.179311  0.497181  0.156874
    C   C87   0.498569  0.318929  0.503387  0.138179
    C   C88   0.501698  0.679397  0.497493  0.156898
    C   C89   0.998933  0.769943  0.503669  -0.044568
    C   C90   0.001341  0.228205  0.497287  -0.073030
    C   C91   0.498488  0.270029  0.503328  -0.043326
    C   C92   0.501804  0.728291  0.497592  -0.073313
    C   C93   0.498593  0.228296  0.503170  0.004819
    C   C94   0.501722  0.770021  0.497781  0.048967
    C   C95   0.999009  0.728211  0.503475  0.004816
    C   C96   0.001280  0.269934  0.497494  0.048934
    C   C97   0.498867  0.179397  0.502852  0.092412
    C   C98   0.501473  0.818914  0.498130  0.021348
    C   C99   0.999218  0.679312  0.503095  0.093074
    C   C100  0.001084  0.318828  0.497876  0.020671
    C   C101  0.499177  0.137668  0.502455  -0.231532
    C   C102  0.501181  0.860640  0.498547  -0.132445
    C   C103  0.999452  0.637584  0.502638  -0.232139
    C   C104  0.000856  0.360554  0.498332  -0.131140
    C   C105  0.101598  0.967652  0.773649  0.083103
    C   C106  0.103319  0.924781  0.805543  -0.083726
    C   C107  0.132941  0.890204  0.808607  -0.371272
    C   C108  0.162103  0.897279  0.780755  0.472153
    F   F1    0.191134  0.863158  0.783827  -0.236113
    C   C109  0.161711  0.939218  0.749921  -0.329381
    C   C110  0.132220  0.974019  0.746614  -0.068235
    H   H41   0.081756  0.916679  0.828733  0.139346
    H   H42   0.133239  0.857291  0.833276  0.172172
    H   H43   0.184634  0.945007  0.727895  0.155854
    H   H44   0.133605  0.005713  0.720622  0.122790
    C   C111  0.901286  0.036499  0.229763  0.078936
    C   C112  0.902580  0.079599  0.200789  -0.084401
    C   C113  0.875449  0.116003  0.200141  -0.368801
    C   C114  0.845855  0.110610  0.227582  0.471710
    F   F2    0.819276  0.146517  0.226886  -0.236691
    C   C115  0.843304  0.068533  0.255563  -0.329960
    C   C116  0.870287  0.031911  0.256438  -0.062199
    H   H45   0.924703  0.086472  0.178158  0.139660
    H   H46   0.877466  0.149030  0.177722  0.171316
    H   H47   0.820015  0.064062  0.277229  0.156180
    H   H48   0.866625  0.000188  0.280185  0.120528
    C   C117  0.901743  0.951154  0.222571  0.090805
    C   C118  0.914184  0.917080  0.276079  -0.090220
    C   C119  0.885510  0.879714  0.265202  -0.352147
    C   C120  0.843521  0.875649  0.201826  0.454818
    F   F3    0.815457  0.838923  0.191714  -0.234048
    C   C121  0.829718  0.909560  0.149496  -0.341553
    C   C122  0.858164  0.946995  0.159957  -0.067026
    H   H49   0.945465  0.918459  0.328127  0.147257
    H   H50   0.895991  0.853642  0.307301  0.169238
    H   H51   0.796307  0.907033  0.100123  0.171373
    H   H52   0.845601  0.973398  0.118056  0.107033
    C   C123  0.095325  0.052783  0.775284  0.079750
    C   C124  0.138495  0.060074  0.837547  -0.061227
    C   C125  0.164381  0.099205  0.845398  -0.344606
    C   C126  0.148377  0.131750  0.790771  0.460257
    F   F4    0.173942  0.170138  0.798316  -0.235418
    C   C127  0.106766  0.124654  0.727761  -0.363181
    C   C128  0.080649  0.085575  0.719496  -0.075993
    H   H53   0.152780  0.034837  0.881208  0.106268
    H   H54   0.197534  0.104143  0.894530  0.172412
    H   H55   0.094580  0.149679  0.683913  0.172854
    H   H56   0.049519  0.081904  0.667662  0.142779
    C   C129  0.600032  0.464125  0.772206  0.080391
    C   C130  0.630909  0.469331  0.745410  -0.061765
    C   C131  0.658879  0.433363  0.747344  -0.330973
    C   C132  0.657457  0.391356  0.776530  0.469804
    F   F5    0.685001  0.356091  0.778263  -0.235716
    C   C133  0.628003  0.385379  0.804106  -0.367775
    C   C134  0.599892  0.421128  0.802406  -0.083779
    H   H57   0.633698  0.501025  0.720717  0.120427
    H   H58   0.682046  0.438290  0.725553  0.156577
    H   H59   0.626873  0.352410  0.827473  0.171101
    H   H60   0.577966  0.413832  0.825246  0.138915
    C   C135  0.401268  0.536584  0.229693  0.080084
    C   C136  0.402552  0.579677  0.200693  -0.083692
    C   C137  0.375400  0.616075  0.200001  -0.369352
    C   C138  0.345798  0.610683  0.227426  0.471046
    F   F6    0.319199  0.646583  0.226686  -0.236435
    C   C139  0.343261  0.568613  0.255441  -0.329048
    C   C140  0.370264  0.531997  0.256360  -0.063532
    H   H61   0.424681  0.586549  0.178072  0.139381
    H   H62   0.377409  0.649096  0.177559  0.171564
    H   H63   0.319968  0.564143  0.277099  0.156062
    H   H64   0.366615  0.500281  0.280137  0.120700
    C   C141  0.401759  0.451236  0.222579  0.091218
    C   C142  0.414213  0.417186  0.276126  -0.089344
    C   C143  0.385557  0.379811  0.265289  -0.352635
    C   C144  0.343572  0.375713  0.201914  0.455175
    F   F7    0.315526  0.338977  0.191840  -0.234118
    C   C145  0.329754  0.409601  0.149547  -0.342083
    C   C146  0.358181  0.447046  0.159969  -0.066911
    H   H65   0.445491  0.418592  0.328174  0.147012
    H   H66   0.396049  0.353758  0.307417  0.169140
    H   H67   0.296345  0.407049  0.100175  0.171568
    H   H68   0.345607  0.473430  0.118040  0.107089
    C   C147  0.597332  0.549447  0.777020  0.086981
    C   C148  0.640780  0.554866  0.839504  -0.065318
    C   C149  0.668246  0.592961  0.848854  -0.343129
    C   C150  0.653578  0.626295  0.795525  0.456956
    F   F8    0.680687  0.663666  0.804544  -0.234932
    C   C151  0.611711  0.621004  0.732282  -0.353786
    C   C152  0.584015  0.582972  0.722518  -0.086720
    H   H69   0.654020  0.528951  0.882171  0.106773
    H   H70   0.701578  0.596460  0.898141  0.172194
    H   H71   0.600560  0.646630  0.689420  0.169371
    H   H72   0.552774  0.580661  0.670543  0.146067
