# generated using pymatgen
data_Zn4H22C40O13
_symmetry_space_group_name_H-M   'P 1'
_cell_length_a   16.69183600
_cell_length_b   39.67772900
_cell_length_c   39.53623300
_cell_angle_alpha   119.98450000
_cell_angle_beta   90.44334600
_cell_angle_gamma   90.17119900
_symmetry_Int_Tables_number   1
_chemical_formula_structural   Zn4H22C40O13
_chemical_formula_sum   'Zn24 H132 C240 O78'
_cell_volume   22678.69401415
_cell_formula_units_Z   6
loop_
 _symmetry_equiv_pos_site_id
 _symmetry_equiv_pos_as_xyz
  1  'x, y, z'
loop_
 _atom_site_type_symbol
 _atom_site_label
 _atom_site_symmetry_multiplicity
 _atom_site_fract_x
 _atom_site_fract_y
 _atom_site_fract_z
 _atom_site_occupancy
  Zn  Zn1  1  0.61440300  0.05794900  0.53740000  1
  Zn  Zn2  1  0.48899700  0.62995400  0.93791500  1
  Zn  Zn3  1  0.57841700  0.67043400  0.01698100  1
  Zn  Zn4  1  0.39390100  0.66904300  0.01497200  1
  Zn  Zn5  1  0.59948400  0.55085700  0.34274300  1
  Zn  Zn6  1  0.53077700  0.51837300  0.39370300  1
  Zn  Zn7  1  0.41706100  0.54157700  0.34570200  1
  Zn  Zn8  1  0.52265000  0.46877800  0.30210400  1
  Zn  Zn9  1  0.12996500  0.13961100  0.41050500  1
  Zn  Zn10  1  0.01358300  0.11763500  0.34116400  1
  Zn  Zn11  1  0.02564900  0.06547700  0.37992700  1
  Zn  Zn12  1  0.54105400  0.02230800  0.45372800  1
  Zn  Zn13  1  0.94730500  0.14667600  0.42450900  1
  Zn  Zn14  1  0.01178300  0.62958900  0.50666500  1
  Zn  Zn15  1  0.12648600  0.60944300  0.55625900  1
  Zn  Zn16  1  0.01193500  0.67909200  0.59825600  1
  Zn  Zn17  1  0.94467400  0.59541500  0.55664200  1
  Zn  Zn18  1  0.53062500  0.97775400  0.49978300  1
  Zn  Zn19  1  0.42849000  0.05043500  0.52578000  1
  Zn  Zn20  1  0.97721400  0.51273200  0.89672800  1
  Zn  Zn21  1  0.98112700  0.42218300  0.85487000  1
  Zn  Zn22  1  0.08345800  0.47061500  0.92930800  1
  Zn  Zn23  1  0.89777300  0.46796000  0.93378000  1
  Zn  Zn24  1  0.48623200  0.72190800  0.99165600  1
  H  H1  1  0.52151700  0.70374800  0.67696700  1
  H  H2  1  0.55803500  0.64093400  0.77835800  1
  H  H3  1  0.93501200  0.38923000  0.68067300  1
  H  H4  1  0.09633300  0.48628900  0.72156700  1
  H  H5  1  0.97224600  0.47793000  0.53357700  1
  H  H6  1  0.18244100  0.53456700  0.60085700  1
  H  H7  1  0.98532600  0.42765800  0.55164400  1
  H  H8  1  0.19249300  0.48515200  0.62032700  1
  H  H9  1  0.98182100  0.79956000  0.04801800  1
  H  H10  1  0.12016000  0.89070600  0.13814100  1
  H  H11  1  0.86493400  0.89596700  0.14095500  1
  H  H12  1  0.65401800  0.82128500  0.04567000  1
  H  H13  1  0.45948200  0.75465400  0.84401500  1
  H  H14  1  0.77950800  0.73535500  0.06034700  1
  H  H15  1  0.77195800  0.86439400  0.07146900  1
  H  H16  1  0.89419200  0.77763000  0.08518300  1
  H  H17  1  0.93652000  0.02559600  0.23092900  1
  H  H18  1  0.07491100  0.96102200  0.27022000  1
  H  H19  1  0.92726000  0.96827800  0.16582100  1
  H  H20  1  0.06789200  0.90435800  0.20475200  1
  H  H21  1  0.32065400  0.82035400  0.04786800  1
  H  H22  1  0.18558300  0.72842000  0.04782100  1
  H  H23  1  0.20426200  0.86310900  0.07417700  1
  H  H24  1  0.29637700  0.72588400  0.63468000  1
  H  H25  1  0.07221900  0.77044600  0.07357100  1
  H  H26  1  0.22689600  0.03917300  0.44576600  1
  H  H27  1  0.34087800  0.08573600  0.42392200  1
  H  H28  1  0.79219700  0.03156400  0.41711800  1
  H  H29  1  0.77902700  0.11466700  0.48559800  1
  H  H30  1  0.72109800  0.55741000  0.90217100  1
  H  H31  1  0.74612800  0.58031900  0.98774400  1
  H  H32  1  0.28904600  0.53591800  0.91014300  1
  H  H33  1  0.18218500  0.60434000  0.96383000  1
  H  H34  1  0.79692100  0.59829100  0.43219800  1
  H  H35  1  0.18961500  0.66773100  0.68881700  1
  H  H36  1  0.74728900  0.54824100  0.46721400  1
  H  H37  1  0.22053500  0.57809600  0.42003700  1
  H  H38  1  0.32165700  0.56931300  0.48056300  1
  H  H39  1  0.41531500  0.74023500  0.67606000  1
  H  H40  1  0.30821600  0.67896000  0.72817700  1
  H  H41  1  0.89185000  0.45573200  0.13617900  1
  H  H42  1  0.02005800  0.44104400  0.22063700  1
  H  H43  1  0.14468900  0.43848800  0.12578700  1
  H  H44  1  0.89459000  0.43354700  0.01625200  1
  H  H45  1  0.39274800  0.71797800  0.77639400  1
  H  H46  1  0.12338700  0.49012700  0.04737000  1
  H  H47  1  0.90277500  0.42179800  0.07021800  1
  H  H48  1  0.12928300  0.48133600  0.10382700  1
  H  H49  1  0.32654800  0.50338700  0.22623000  1
  H  H50  1  0.26285900  0.41425900  0.25124400  1
  H  H51  1  0.20817400  0.48885000  0.18510900  1
  H  H52  1  0.14184400  0.39969900  0.21042500  1
  H  H53  1  0.74360700  0.52777800  0.24556500  1
  H  H54  1  0.74635300  0.41717000  0.23937600  1
  H  H55  1  0.86409800  0.51080200  0.20649300  1
  H  H56  1  0.63864800  0.68766300  0.76340000  1
  H  H57  1  0.86973500  0.40075400  0.20105600  1
  H  H58  1  0.14379700  0.86192000  0.54931700  1
  H  H59  1  0.02133400  0.95994700  0.55793600  1
  H  H60  1  0.89325700  0.87316200  0.56908300  1
  H  H61  1  0.06481300  0.73171000  0.49519800  1
  H  H62  1  0.94620500  0.78359700  0.60514800  1
  H  H63  1  0.07364200  0.79558100  0.49998400  1
  H  H64  1  0.95338000  0.84664200  0.60925300  1
  H  H65  1  0.68880600  0.91927400  0.52904500  1
  H  H66  1  0.80767000  0.02968700  0.59233600  1
  H  H67  1  0.79090900  0.72586900  0.65932300  1
  H  H68  1  0.80569000  0.88749500  0.53423500  1
  H  H69  1  0.92425600  0.99787400  0.60038700  1
  H  H70  1  0.33840400  0.90607900  0.50018200  1
  H  H71  1  0.25021200  0.01896500  0.58086400  1
  H  H72  1  0.21940800  0.87660300  0.50962200  1
  H  H73  1  0.13460000  0.98990700  0.59276700  1
  H  H74  1  0.48295600  0.34511500  0.84501600  1
  H  H75  1  0.61130700  0.24806500  0.75948100  1
  H  H76  1  0.35786000  0.25327800  0.74923500  1
  H  H77  1  0.25637500  0.38276000  0.90385300  1
  H  H78  1  0.79431800  0.61532800  0.65328100  1
  H  H79  1  0.16623100  0.34541100  0.78897000  1
  H  H80  1  0.37106100  0.34087200  0.87647800  1
  H  H81  1  0.28359300  0.30581900  0.76128400  1
  H  H82  1  0.38200100  0.13422100  0.64564700  1
  H  H83  1  0.61040100  0.17409300  0.63178700  1
  H  H84  1  0.37541500  0.18851000  0.71193200  1
  H  H85  1  0.60149200  0.23020300  0.69609400  1
  H  H86  1  0.70656900  0.38641100  0.90993700  1
  H  H87  1  0.80753900  0.33831600  0.79611600  1
  H  H88  1  0.58980700  0.34461000  0.88193100  1
  H  H89  1  0.66758100  0.74210400  0.69717700  1
  H  H90  1  0.68998000  0.29885000  0.76794800  1
  H  H91  1  0.51491900  0.78060600  0.24783600  1
  H  H92  1  0.44375800  0.67417700  0.24035300  1
  H  H93  1  0.49781700  0.77233600  0.35103700  1
  H  H94  1  0.48169200  0.91143100  0.34429700  1
  H  H95  1  0.63223700  0.87759700  0.40978000  1
  H  H96  1  0.45931000  0.84306500  0.29584800  1
  H  H97  1  0.61308600  0.80990800  0.36115900  1
  H  H98  1  0.59214600  0.66579900  0.36026500  1
  H  H99  1  0.35935200  0.62304200  0.31138000  1
  H  H100  1  0.67335200  0.63243700  0.69254900  1
  H  H101  1  0.58245600  0.71515000  0.34125200  1
  H  H102  1  0.35100200  0.67189400  0.29130900  1
  H  H103  1  0.36054300  0.66274500  0.11862000  1
  H  H104  1  0.60883300  0.69451900  0.12890900  1
  H  H105  1  0.35652500  0.68841000  0.18913100  1
  H  H106  1  0.60285900  0.72101300  0.19879300  1
  H  H107  1  0.64398800  0.28617000  0.35735500  1
  H  H108  1  0.39463400  0.27620500  0.33050600  1
  H  H109  1  0.51840100  0.18329500  0.33313300  1
  H  H110  1  0.79384700  0.23073500  0.42068700  1
  H  H111  1  0.54355100  0.63142000  0.83432500  1
  H  H112  1  0.78707700  0.14082900  0.30100500  1
  H  H113  1  0.67444600  0.25973200  0.40992700  1
  H  H114  1  0.66486200  0.16896800  0.29101000  1
  H  H115  1  0.29489900  0.11762200  0.29757300  1
  H  H116  1  0.18780200  0.22773800  0.36907700  1
  H  H117  1  0.41400400  0.14944800  0.29092800  1
  H  H118  1  0.30680600  0.26023600  0.36475000  1
  H  H119  1  0.58308300  0.41581600  0.40628300  1
  H  H120  1  0.46598600  0.36482700  0.29474400  1
  H  H121  1  0.58027100  0.35243800  0.40287100  1
  H  H122  1  0.44683600  0.74581700  0.90045500  1
  H  H123  1  0.46177300  0.30255100  0.29199600  1
  H  H124  1  0.10632000  0.37619100  0.54893800  1
  H  H125  1  0.05677100  0.47463800  0.65907600  1
  H  H126  1  0.04796500  0.36067300  0.64473400  1
  H  H127  1  0.95755100  0.24488800  0.53972400  1
  H  H128  1  0.18617800  0.25279100  0.49581000  1
  H  H129  1  0.96577400  0.31361500  0.58818800  1
  H  H130  1  0.19326900  0.32163100  0.54394500  1
  H  H131  1  0.90232600  0.40872400  0.74732500  1
  H  H132  1  0.05896100  0.50691700  0.78853400  1
  C  C1  1  0.36858900  0.98271000  0.53064400  1
  C  C2  1  0.97351900  0.46383600  0.81084300  1
  C  C3  1  0.24423500  0.98763400  0.56538300  1
  C  C4  1  0.17801900  0.97099200  0.57178500  1
  C  C5  1  0.16718700  0.93102300  0.55145800  1
  C  C6  1  0.41183600  0.29962700  0.80061800  1
  C  C7  1  0.55508400  0.29822400  0.80474500  1
  C  C8  1  0.48513500  0.24731500  0.74935400  1
  C  C9  1  0.48313900  0.31633600  0.81969300  1
  C  C10  1  0.55536000  0.26306300  0.77028900  1
  C  C11  1  0.41311700  0.26534500  0.76510500  1
  C  C12  1  0.32691600  0.34180900  0.85683900  1
  C  C13  1  0.13687400  0.54396900  0.93330700  1
  C  C14  1  0.26142200  0.36537800  0.87248500  1
  C  C15  1  0.20359300  0.36699200  0.84829600  1
  C  C16  1  0.21045400  0.34403900  0.80834300  1
  C  C17  1  0.27712300  0.32125000  0.79262100  1
  C  C18  1  0.33661800  0.32048600  0.81679800  1
  C  C19  1  0.42649100  0.18642600  0.69441100  1
  C  C20  1  0.43013500  0.15543800  0.65674900  1
  C  C21  1  0.49669000  0.15051600  0.63430900  1
  C  C22  1  0.55838300  0.17727500  0.64922300  1
  C  C23  1  0.55363400  0.20891200  0.68620800  1
  C  C24  1  0.13877200  0.39502600  0.86485500  1
  C  C25  1  0.48848000  0.21343600  0.70956800  1
  C  C26  1  0.63733500  0.34298600  0.86278500  1
  C  C27  1  0.70393800  0.36653600  0.87880300  1
  C  C28  1  0.76522100  0.36539400  0.85503500  1
  C  C29  1  0.76085000  0.33946100  0.81542600  1
  C  C30  1  0.69383400  0.31652900  0.79935600  1
  C  C31  1  0.63075200  0.31861500  0.82277500  1
  C  C32  1  0.50727600  0.78137100  0.30208100  1
  C  C33  1  0.47575300  0.72607500  0.24033400  1
  C  C34  1  0.46789100  0.72140500  0.29779200  1
  C  C35  1  0.48490500  0.66912600  0.07898400  1
  C  C36  1  0.49973300  0.76438900  0.26221100  1
  C  C37  1  0.45788400  0.70480900  0.25806200  1
  C  C38  1  0.49185300  0.75962400  0.31976700  1
  C  C39  1  0.50043700  0.85051900  0.31985400  1
  C  C40  1  0.51326400  0.88918900  0.34709300  1
  C  C41  1  0.55800400  0.89877500  0.38017100  1
  C  C42  1  0.59631100  0.87023700  0.38410500  1
  C  C43  1  0.58462800  0.83190200  0.35681200  1
  C  C44  1  0.53298600  0.82184900  0.32582200  1
  C  C45  1  0.53207600  0.69586700  0.33585000  1
  C  C46  1  0.33584100  0.59610000  0.94721000  1
  C  C47  1  0.53793100  0.66771400  0.34621700  1
  C  C48  1  0.47636000  0.64128100  0.33717100  1
  C  C49  1  0.40751100  0.64397400  0.31912800  1
  C  C50  1  0.40288800  0.67133500  0.30754800  1
  C  C51  1  0.46577400  0.69684600  0.31535200  1
  C  C52  1  0.41209700  0.68902900  0.17558700  1
  C  C53  1  0.41459200  0.67452900  0.13589800  1
  C  C54  1  0.48493200  0.67682400  0.11895900  1
  C  C55  1  0.55334100  0.69210600  0.14144800  1
  C  C56  1  0.54994800  0.70762800  0.18107500  1
  C  C57  1  0.32910400  0.74469300  0.03049400  1
  C  C58  1  0.47904300  0.70692200  0.19817200  1
  C  C59  1  0.58829700  0.23252700  0.34425300  1
  C  C60  1  0.51918000  0.28506700  0.34429400  1
  C  C61  1  0.44690100  0.22719500  0.33097100  1
  C  C62  1  0.58852000  0.26977700  0.35008500  1
  C  C63  1  0.44876500  0.26369800  0.33451200  1
  C  C64  1  0.51784200  0.21130600  0.33481200  1
  C  C65  1  0.69939000  0.23373600  0.38591500  1
  C  C66  1  0.76652300  0.21724100  0.39195000  1
  C  C67  1  0.79880600  0.18399200  0.36148300  1
  C  C68  1  0.48847400  0.68312300  0.90526500  1
  C  C69  1  0.76311600  0.16717000  0.32495300  1
  C  C70  1  0.69386400  0.18278700  0.31938000  1
  C  C71  1  0.66205900  0.21614600  0.34984000  1
  C  C72  1  0.36410400  0.16711800  0.30748400  1
  C  C73  1  0.29605600  0.14890300  0.31043700  1
  C  C74  1  0.23233400  0.17061400  0.33241300  1
  C  C75  1  0.23587800  0.21055000  0.35024600  1
  C  C76  1  0.30386800  0.22887500  0.34769800  1
  C  C77  1  0.36972800  0.20735900  0.32731600  1
  C  C78  1  0.55500600  0.35521800  0.37913500  1
  C  C79  1  0.64127800  0.74740100  0.03409400  1
  C  C80  1  0.55604400  0.39105900  0.38122000  1
  C  C81  1  0.52502000  0.39470000  0.35072900  1
  C  C82  1  0.49120300  0.36263900  0.31881900  1
  C  C83  1  0.48792900  0.32733800  0.31735500  1
  C  C84  1  0.52048700  0.32330900  0.34723600  1
  C  C85  1  0.07959700  0.36420200  0.59474200  1
  C  C86  1  0.08740800  0.42788500  0.60322800  1
  C  C87  1  0.04971100  0.41963800  0.65665600  1
  C  C88  1  0.09364700  0.38826000  0.57960400  1
  C  C89  1  0.06631200  0.44365100  0.64174300  1
  C  C90  1  0.64466100  0.60050900  0.94964700  1
  C  C91  1  0.05789300  0.37989000  0.63317100  1
  C  C92  1  0.01543900  0.30010700  0.56869500  1
  C  C93  1  0.01057700  0.26124000  0.54110300  1
  C  C94  1  0.07135400  0.24405600  0.51453100  1
  C  C95  1  0.13836200  0.26557300  0.51663300  1
  C  C96  1  0.14215500  0.30465400  0.54357400  1
  C  C97  1  0.08008800  0.32212200  0.56918500  1
  C  C98  1  0.96288400  0.41515800  0.70398900  1
  C  C99  1  0.94309900  0.42654600  0.74171800  1
  C  C100  1  0.97824100  0.45912500  0.77212500  1
  C  C101  1  0.36458100  0.47419900  0.27091600  1
  C  C102  1  0.02960900  0.48187900  0.76473000  1
  C  C103  1  0.05101800  0.46997400  0.72679700  1
  C  C104  1  0.02009600  0.43562500  0.69643500  1
  C  C105  1  0.03004100  0.45048400  0.56140700  1
  C  C106  1  0.02232300  0.47899300  0.55158800  1
  C  C107  1  0.07676600  0.50932900  0.56586000  1
  C  C108  1  0.14036100  0.51050900  0.58894800  1
  C  C109  1  0.14604000  0.48282200  0.60004800  1
  C  C110  1  0.09036900  0.45311700  0.58657100  1
  C  C111  1  0.91551300  0.84643000  0.09195400  1
  C  C112  1  0.38196300  0.05752700  0.45686100  1
  C  C113  1  0.52848200  0.43155600  0.35074400  1
  C  C114  1  0.05879500  0.84367500  0.09023100  1
  C  C115  1  0.99314200  0.89841500  0.14199600  1
  C  C116  1  0.98521800  0.82788400  0.07406100  1
  C  C117  1  0.06277900  0.87911000  0.12421500  1
  C  C118  1  0.91926800  0.88237600  0.12551700  1
  C  C119  1  0.77285800  0.83613500  0.06928600  1
  C  C120  1  0.70656400  0.81167800  0.05452800  1
  C  C121  1  0.70834200  0.77505700  0.05079300  1
  C  C122  1  0.77595900  0.76356600  0.06257100  1
  C  C123  1  0.84176100  0.78752300  0.07653100  1
  C  C124  1  0.66872700  0.48597200  0.27149300  1
  C  C125  1  0.84126000  0.82359600  0.07948900  1
  C  C126  1  0.95991100  0.96669200  0.18869700  1
  C  C127  1  0.96564400  0.99906500  0.22543600  1
  C  C128  1  0.00652500  0.99721800  0.25502200  1
  C  C129  1  0.04247600  0.96292600  0.24747800  1
  C  C130  1  0.03919100  0.93103200  0.21038600  1
  C  C131  1  0.99771700  0.93277700  0.18093800  1
  C  C132  1  0.20048700  0.83347400  0.06835100  1
  C  C133  1  0.26596600  0.80925900  0.05329000  1
  C  C134  1  0.26135200  0.77131100  0.04578900  1
  C  C135  1  0.68559600  0.56344000  0.41375400  1
  C  C136  1  0.19116100  0.75785300  0.05326700  1
  C  C137  1  0.12600400  0.78164000  0.06750800  1
  C  C138  1  0.12992500  0.81943200  0.07494500  1
  C  C139  1  0.86977400  0.65798900  0.62778500  1
  C  C140  1  0.06217500  0.54222800  0.56016300  1
  C  C141  1  0.85849100  0.58321500  0.48577000  1
  C  C142  1  0.17278000  0.59333500  0.47769900  1
  C  C143  1  0.00485300  0.71628100  0.54954300  1
  C  C144  1  0.17377200  0.67975600  0.62954300  1
  C  C145  1  0.24479600  0.05865000  0.43534400  1
  C  C146  1  0.48797900  0.60791900  0.34242800  1
  C  C147  1  0.32167800  0.06932700  0.43763500  1
  C  C148  1  0.80586600  0.06235300  0.43474000  1
  C  C149  1  0.76100200  0.08481800  0.46573800  1
  C  C150  1  0.71191500  0.57338200  0.93345600  1
  C  C151  1  0.76018800  0.56747700  0.95705200  1
  C  C152  1  0.27387800  0.56547600  0.93184400  1
  C  C153  1  0.19884100  0.57422400  0.94504500  1
  C  C154  1  0.75978300  0.57876500  0.43716700  1
  C  C155  1  0.78429100  0.56788600  0.46236100  1
  C  C156  1  0.23475000  0.57916900  0.44734500  1
  C  C157  1  0.36959200  0.55460100  0.42301300  1
  C  C158  1  0.30746500  0.56830300  0.45328200  1
  C  C159  1  0.58831600  0.69764200  0.71942700  1
  C  C160  1  0.44769200  0.71170900  0.72475700  1
  C  C161  1  0.51536800  0.70324100  0.77355300  1
  C  C162  1  0.51949100  0.70563600  0.70515400  1
  C  C163  1  0.44744500  0.71254100  0.76011200  1
  C  C164  1  0.50485800  0.11598800  0.59588300  1
  C  C165  1  0.58543700  0.69514200  0.75289400  1
  C  C166  1  0.69593300  0.71441700  0.68790200  1
  C  C167  1  0.76601900  0.70540000  0.66695000  1
  C  C168  1  0.80132100  0.66961300  0.65403100  1
  C  C169  1  0.76759500  0.64349600  0.66331500  1
  C  C170  1  0.69942800  0.65317400  0.68558400  1
  C  C171  1  0.66260000  0.68834400  0.69732100  1
  C  C172  1  0.53411700  0.66412300  0.80527000  1
  C  C173  1  0.52478600  0.65855700  0.83670100  1
  C  C174  1  0.49384100  0.68789900  0.87110500  1
  C  C175  1  0.69279900  0.06857000  0.47627700  1
  C  C176  1  0.47126000  0.72257700  0.87373500  1
  C  C177  1  0.47820400  0.72760800  0.84188500  1
  C  C178  1  0.51043900  0.69856300  0.80775200  1
  C  C179  1  0.36560500  0.72497700  0.67984600  1
  C  C180  1  0.29780200  0.71759100  0.65688700  1
  C  C181  1  0.23427600  0.69725200  0.66031500  1
  C  C182  1  0.23768500  0.68529800  0.68742700  1
  C  C183  1  0.30551600  0.69196300  0.70987200  1
  C  C184  1  0.37104600  0.71107200  0.70567900  1
  C  C185  1  0.01777200  0.44599200  0.12587900  1
  C  C186  1  0.67498400  0.99406600  0.54884400  1
  C  C187  1  0.94809400  0.44591900  0.17858900  1
  C  C188  1  0.09045500  0.43899800  0.17454900  1
  C  C189  1  0.94768600  0.44915600  0.14552900  1
  C  C190  1  0.01938600  0.44033000  0.19295100  1
  C  C191  1  0.08907100  0.44072800  0.14051500  1
  C  C192  1  0.95088400  0.43779400  0.06636400  1
  C  C193  1  0.94633100  0.44432700  0.03543100  1
  C  C194  1  0.00806800  0.46307200  0.02835000  1
  C  C195  1  0.07466000  0.47530300  0.05251000  1
  C  C196  1  0.07826700  0.46977500  0.08427600  1
  C  C197  1  0.55230500  0.93690500  0.41471200  1
  C  C198  1  0.01627600  0.45091400  0.09142000  1
  C  C199  1  0.22098100  0.47099800  0.19800600  1
  C  C200  1  0.28791000  0.47942100  0.22135100  1
  C  C201  1  0.30353200  0.45895100  0.24024100  1
  C  C202  1  0.25223100  0.42946600  0.23535000  1
  C  C203  1  0.18360000  0.42165000  0.21274700  1
  C  C204  1  0.16732200  0.44275500  0.19432600  1
  C  C205  1  0.83807100  0.48994100  0.21329800  1
  C  C206  1  0.77005700  0.49954600  0.23547300  1
  C  C207  1  0.73622300  0.47343300  0.24468000  1
  C  C208  1  0.00270800  0.46819300  0.99435200  1
  C  C209  1  0.77136100  0.43756700  0.23167800  1
  C  C210  1  0.84142800  0.42849100  0.21054200  1
  C  C211  1  0.87469700  0.45470600  0.20125700  1
  C  C212  1  0.87478900  0.07863100  0.42457200  1
  C  C213  1  0.86715400  0.16551200  0.36887200  1
  C  C214  1  0.06034800  0.20503900  0.48118300  1
  C  C215  1  0.17330200  0.15309900  0.34608600  1
  C  C216  1  0.18409100  0.07352100  0.41908400  1
  C  C217  1  0.01211400  0.03164500  0.29395200  1
  C  C218  1  0.01783600  0.86351800  0.55782800  1
  C  C219  1  0.83132300  0.39348200  0.87068400  1
  C  C220  1  0.09174300  0.91409400  0.55545300  1
  C  C221  1  0.94942900  0.91987100  0.56551000  1
  C  C222  1  0.08951600  0.87816700  0.55322700  1
  C  C223  1  0.02111600  0.93406300  0.56037800  1
  C  C224  1  0.94856700  0.88482900  0.56504100  1
  C  C225  1  0.04557500  0.79293200  0.52310300  1
  C  C226  1  0.03954100  0.75679300  0.52011800  1
  C  C227  1  0.00445700  0.75322600  0.54970600  1
  C  C228  1  0.97385200  0.78576500  0.58167600  1
  C  C229  1  0.97760000  0.82149400  0.58401200  1
  C  C230  1  0.82595000  0.53955100  0.94153600  1
  C  C231  1  0.01441900  0.82536600  0.55505300  1
  C  C232  1  0.80626200  0.91888100  0.54888300  1
  C  C233  1  0.73939100  0.93713800  0.54554700  1
  C  C234  1  0.73998000  0.97684800  0.56003300  1
  C  C235  1  0.80612900  0.99856100  0.58057600  1
  C  C236  1  0.87272400  0.98031500  0.58465100  1
  C  C237  1  0.87440800  0.94013800  0.56748600  1
  C  C238  1  0.22649100  0.90783900  0.52642300  1
  C  C239  1  0.29400800  0.92456600  0.52083300  1
  C  C240  1  0.30198000  0.96455800  0.53954600  1
  O  O1  1  0.52864200  0.02737500  0.50408700  1
  O  O2  1  0.36013300  0.01824100  0.53685100  1
  O  O3  1  0.57730900  0.10284400  0.58358800  1
  O  O4  1  0.45175700  0.04448700  0.43994500  1
  O  O5  1  0.36541800  0.06097900  0.49098700  1
  O  O6  1  0.98505400  0.46865200  0.90379800  1
  O  O7  1  0.97776300  0.49845200  0.84231800  1
  O  O8  1  0.07426200  0.39044700  0.84373600  1
  O  O9  1  0.15075600  0.51396700  0.93810500  1
  O  O10  1  0.97293800  0.43186200  0.81282200  1
  O  O11  1  0.06763700  0.54809000  0.91952900  1
  O  O12  1  0.68661100  0.07683100  0.51276300  1
  O  O13  1  0.14876900  0.42570500  0.89967600  1
  O  O14  1  0.06847000  0.47227700  0.97848800  1
  O  O15  1  0.83023500  0.51268800  0.95168100  1
  O  O16  1  0.93165400  0.46551300  0.97864400  1
  O  O17  1  0.87964600  0.54202400  0.91853800  1
  O  O18  1  0.89124200  0.38940900  0.84772900  1
  O  O19  1  0.82653300  0.42399300  0.90587700  1
  O  O20  1  0.48682300  0.67279100  0.98997200  1
  O  O21  1  0.48716700  0.71457100  0.94000400  1
  O  O22  1  0.58567200  0.59904900  0.92658300  1
  O  O23  1  0.54634400  0.96869100  0.41229500  1
  O  O24  1  0.64698100  0.71456600  0.03434400  1
  O  O25  1  0.48865600  0.64783000  0.90066100  1
  O  O26  1  0.57872400  0.75458700  0.01826100  1
  O  O27  1  0.64643300  0.62692200  0.98688100  1
  O  O28  1  0.55360000  0.66992600  0.06351700  1
  O  O29  1  0.32375900  0.71181300  0.03065100  1
  O  O30  1  0.41633600  0.66828600  0.06209400  1
  O  O31  1  0.39237000  0.75304000  0.01631700  1
  O  O32  1  0.39799600  0.59416800  0.92578500  1
  O  O33  1  0.32840700  0.62470500  0.98323500  1
  O  O34  1  0.61550600  0.97128500  0.52814300  1
  O  O35  1  0.51751800  0.51976200  0.34637200  1
  O  O36  1  0.67669200  0.56920600  0.38406500  1
  O  O37  1  0.43963100  0.54251400  0.42880100  1
  O  O38  1  0.42534900  0.58837100  0.34331500  1
  O  O39  1  0.63163300  0.54349000  0.42117500  1
  O  O40  1  0.56117700  0.59589600  0.34229600  1
  O  O41  1  0.35332100  0.55447400  0.39040500  1
  O  O42  1  0.35230500  0.50864900  0.30133900  1
  O  O43  1  0.61801200  0.46040400  0.27131900  1
  O  O44  1  0.43149500  0.45514100  0.26688900  1
  O  O45  1  0.63929400  0.04639600  0.44954500  1
  O  O46  1  0.66338100  0.52318500  0.29719800  1
  O  O47  1  0.53389700  0.46505600  0.38380000  1
  O  O48  1  0.52318400  0.42991800  0.31680300  1
  O  O49  1  0.02889400  0.11715600  0.38880000  1
  O  O50  1  0.19127500  0.15240000  0.37806300  1
  O  O51  1  0.00351500  0.06610200  0.29723300  1
  O  O52  1  0.11659300  0.05405300  0.40396800  1
  O  O53  1  0.10249000  0.14157800  0.32900600  1
  O  O54  1  0.19687200  0.10757800  0.42208800  1
  O  O55  1  0.02518700  0.02753400  0.32465500  1
  O  O56  1  0.68202500  0.02959400  0.55453600  1
  O  O57  1  0.92878900  0.05495600  0.40011800  1
  O  O58  1  0.98757400  0.19032400  0.47170100  1
  O  O59  1  0.87853100  0.11639500  0.43821400  1
  O  O60  1  0.12144000  0.18787300  0.45834700  1
  O  O61  1  0.91753800  0.14456500  0.34066700  1
  O  O62  1  0.87485900  0.16930100  0.40370300  1
  O  O63  1  0.02367500  0.62847500  0.55414800  1
  O  O64  1  0.10270400  0.60511200  0.47165800  1
  O  O65  1  0.19046200  0.64589800  0.59915500  1
  O  O66  1  0.00334600  0.71786400  0.58350400  1
  O  O67  1  0.54818800  0.93764400  0.44812300  1
  O  O68  1  0.18929000  0.59462400  0.51083000  1
  O  O69  1  0.00961600  0.68283000  0.51650300  1
  O  O70  1  0.10259900  0.69556800  0.63403500  1
  O  O71  1  0.91762100  0.68466100  0.62835200  1
  O  O72  1  0.86848700  0.57647400  0.51479600  1
  O  O73  1  0.87822000  0.62096200  0.60191700  1
  O  O74  1  0.91104600  0.60433000  0.47916600  1
  O  O75  1  0.12265200  0.56428200  0.56190300  1
  O  O76  1  0.98782800  0.55094300  0.55675800  1
  O  O77  1  0.43408000  0.96289800  0.51519600  1
  O  O78  1  0.44038300  0.09788700  0.57527400  1
