# generated using pymatgen
data_ZnH6C15NClO4
_symmetry_space_group_name_H-M   'P 1'
_cell_length_a   11.06475600
_cell_length_b   13.39142900
_cell_length_c   8.55849600
_cell_angle_alpha   90.00000000
_cell_angle_beta   102.45946800
_cell_angle_gamma   90.00000000
_symmetry_Int_Tables_number   1
_chemical_formula_structural   ZnH6C15NClO4
_chemical_formula_sum   'Zn2 H12 C30 N2 Cl2 O8'
_cell_volume   1238.27106899
_cell_formula_units_Z   2
loop_
 _symmetry_equiv_pos_site_id
 _symmetry_equiv_pos_as_xyz
  1  'x, y, z'
loop_
 _atom_site_type_symbol
 _atom_site_label
 _atom_site_symmetry_multiplicity
 _atom_site_fract_x
 _atom_site_fract_y
 _atom_site_fract_z
 _atom_site_occupancy
  Zn  Zn1  1  0.50458900  0.88946700  0.50261500  1
  Zn  Zn2  1  0.49308700  0.10977000  0.49638200  1
  H  H1  1  0.41210900  0.96697400  0.97609800  1
  H  H2  1  0.07957100  0.01238400  0.63286800  1
  H  H3  1  0.58512900  0.03223900  0.02275200  1
  H  H4  1  0.91771900  0.98703000  0.36598900  1
  H  H5  1  0.10992300  0.99057100  0.28120400  1
  H  H6  1  0.88735800  0.00880600  0.71764600  1
  H  H7  1  0.68491100  0.24244900  0.54638900  1
  H  H8  1  0.70065500  0.74986300  0.55812500  1
  H  H9  1  0.19780500  0.59364700  0.41874300  1
  H  H10  1  0.19255400  0.41575000  0.41447800  1
  H  H11  1  0.70145200  0.41941100  0.55241100  1
  H  H12  1  0.70657600  0.57181000  0.55811400  1
  C  C1  1  0.25411000  0.99045900  0.07153600  1
  C  C2  1  0.31498200  0.98151700  0.94886700  1
  C  C3  1  0.25507000  0.99444800  0.79267600  1
  C  C4  1  0.12815100  0.00479500  0.75617700  1
  C  C5  1  0.06348200  0.00151400  0.87809200  1
  C  C6  1  0.12645100  0.99677200  0.03660900  1
  C  C7  1  0.93580900  0.00420500  0.84136300  1
  C  C8  1  0.87082200  0.00259100  0.96224800  1
  C  C9  1  0.93379200  0.99786300  0.12076200  1
  C  C10  1  0.06146600  0.99517500  0.15749100  1
  C  C11  1  0.74315900  0.00885400  0.92732100  1
  C  C12  1  0.68226700  0.01774300  0.04999000  1
  C  C13  1  0.74219800  0.00487200  0.20619700  1
  C  C14  1  0.86912700  0.99458600  0.24268000  1
  C  C15  1  0.66719700  0.00474200  0.76482600  1
  C  C16  1  0.33064600  0.99752100  0.67207200  1
  C  C17  1  0.33012600  0.99457900  0.23400100  1
  C  C18  1  0.66666667  0.00180800  0.32688000  1
  C  C19  1  0.38532500  0.29410600  0.46534100  1
  C  C20  1  0.39837900  0.70818100  0.47514400  1
  C  C21  1  0.60109000  0.28648900  0.52374300  1
  C  C22  1  0.61450900  0.70880800  0.53442700  1
  C  C23  1  0.60960300  0.38893000  0.52723900  1
  C  C24  1  0.61664200  0.60582400  0.53377400  1
  C  C25  1  0.50322600  0.44689700  0.49954000  1
  C  C26  1  0.50671900  0.55162200  0.50252800  1
  C  C27  1  0.39004600  0.39776900  0.46794800  1
  C  C28  1  0.39676900  0.60465000  0.47332900  1
  C  C29  1  0.28498500  0.55443800  0.44190900  1
  C  C30  1  0.28170300  0.45206900  0.43935600  1
  N  N1  1  0.49050900  0.24066900  0.49341600  1
  N  N2  1  0.50657300  0.75846600  0.50525700  1
  Cl  Cl1  1  0.25853900  0.77493900  0.43707400  1
  Cl  Cl2  1  0.24348900  0.23039000  0.42666000  1
  O  O1  1  0.62011900  0.08867000  0.69986500  1
  O  O2  1  0.63249700  0.91654400  0.70336000  1
  O  O3  1  0.37763100  0.91321600  0.63513400  1
  O  O4  1  0.36487000  0.08491900  0.62683600  1
  O  O5  1  0.37706200  0.91067600  0.29911700  1
  O  O6  1  0.36459200  0.08274100  0.29568500  1
  O  O7  1  0.61951600  0.08613700  0.36354900  1
  O  O8  1  0.63215600  0.91436700  0.37169300  1
