# Generated by REPEAT Assigner based on pymatgen
data_DB0-m3_o24_o48_f0_fsc.sym.49_sqe
_audit_creation_date              2022-05-24
_audit_creation_method            REPEAT_Assigner
_cell_length_a                    9.175812
_cell_length_b                    10.878239
_cell_length_c                    8.508954
_cell_angle_alpha                 90.000000
_cell_angle_beta                  93.721538
_cell_angle_gamma                 90.000000
_cell_volume                      847.544470
_symmetry_space_group_name_H-M    P1
_symmetry_Int_Tables_number       1
loop_
    _symmetry_equiv_pos_site_id
    _symmetry_equiv_pos_as_xyz
    1  x,y,z
loop_
    _atom_site_type_symbol
    _atom_site_label
    _atom_site_fract_x
    _atom_site_fract_y
    _atom_site_fract_z
    _atom_type_partial_charge
    C   C1   0.800477  0.565720  0.009681  0.074316
    C   C2   0.802564  0.436996  0.009103  0.114607
    C   C3   0.786688  0.628158  0.151141  0.125811
    C   C4   0.795399  0.373435  0.150722  0.116414
    C   C5   0.780448  0.563502  0.290097  -0.203185
    C   C6   0.784467  0.437083  0.289865  -0.230068
    C   C7   0.803381  0.246033  0.151961  -0.099100
    C   C8   0.776411  0.755462  0.151492  -0.171974
    C   C9   0.830227  0.185122  0.016202  -0.247952
    C   C10  0.771383  0.817488  0.011675  -0.121558
    C   C11  0.824720  0.244418  0.874639  0.048058
    C   C12  0.800329  0.759468  0.874897  -0.014026
    C   C13  0.807222  0.369785  0.869551  -0.301501
    C   C14  0.816698  0.634049  0.872875  -0.229219
    H   H1   0.770093  0.610912  0.400383  0.148757
    H   H2   0.779230  0.388926  0.400390  0.130911
    H   H3   0.796067  0.410217  0.754277  0.184645
    H   H4   0.840229  0.594323  0.761823  0.088010
    H   H5   0.751315  0.914354  0.010734  0.048726
    H   H6   0.849461  0.088157  0.019979  0.173891
    O   O1   0.689556  0.131178  0.677818  -0.565720
    O   O2   0.680553  0.882128  0.678726  -0.751650
    O   O3   0.941013  0.126637  0.681596  -0.747486
    O   O4   0.931446  0.865847  0.681907  -0.813720
    C   C15  0.818623  0.169353  0.732088  0.743630
    C   C16  0.804425  0.834105  0.732902  0.965385
    O   O5   0.912419  0.870572  0.347583  -0.794683
    O   O6   0.921713  0.121165  0.347264  -0.757640
    O   O7   0.661202  0.874981  0.344104  -0.694178
    O   O8   0.670774  0.137149  0.343491  -0.751617
    C   C17  0.783251  0.831207  0.294251  0.970969
    C   C18  0.798208  0.170237  0.293718  0.916513
    Zn  Zn1  0.963636  0.995200  0.518067  1.045259
    Zn  Zn2  0.638397  0.007141  0.507170  0.939094
    C   C19  0.236288  0.101323  0.480462  0.129112
    C   C20  0.246178  0.922408  0.415482  -0.028449
    C   C21  0.335609  0.033225  0.376152  -0.231271
    H   H7   0.366204  0.062183  0.257753  0.133065
    H   H8   0.180403  0.190293  0.455939  0.055612
    H   H9   0.199452  0.851329  0.333497  0.098255
    N   N1   0.446613  0.011419  0.504957  0.382955
    C   C22  0.352719  0.078539  0.607571  -0.142947
    C   C23  0.362397  0.902321  0.543581  -0.004254
    C   C24  0.264928  0.968863  0.649215  -0.183301
    N   N2   0.155075  0.990754  0.520115  0.331173
    H   H10  0.234293  0.939819  0.767578  0.118595
    C   C25  0.408224  0.175721  0.719245  0.377448
    H   H11  0.403681  0.162076  0.845028  0.030821
    O   O9   0.453437  0.272554  0.669122  -0.397663
    C   C26  0.429431  0.779909  0.579478  0.359244
    H   H12  0.424769  0.741012  0.696335  0.015306
    O   O10  0.484391  0.721302  0.476567  -0.383421
