# generated using pymatgen
data_Cu3H23C42N4ClO12
_symmetry_space_group_name_H-M   'P 1'
_cell_length_a   30.63194700
_cell_length_b   30.72601400
_cell_length_c   24.55591100
_cell_angle_alpha   90.00000000
_cell_angle_beta   128.58277700
_cell_angle_gamma   90.00000000
_symmetry_Int_Tables_number   1
_chemical_formula_structural   Cu3H23C42N4ClO12
_chemical_formula_sum   'Cu12 H92 C168 N16 Cl4 O48'
_cell_volume   18066.80756738
_cell_formula_units_Z   4
loop_
 _symmetry_equiv_pos_site_id
 _symmetry_equiv_pos_as_xyz
  1  'x, y, z'
loop_
 _atom_site_type_symbol
 _atom_site_label
 _atom_site_symmetry_multiplicity
 _atom_site_fract_x
 _atom_site_fract_y
 _atom_site_fract_z
 _atom_site_occupancy
  Cu  Cu1  1  0.77908300  0.71312200  0.49805800  1
  Cu  Cu2  1  0.22091700  0.71312200  0.50194200  1
  Cu  Cu3  1  0.27908300  0.21312200  0.49805800  1
  Cu  Cu4  1  0.72091700  0.21312200  0.50194200  1
  Cu  Cu5  1  0.71849400  0.77370500  0.50122300  1
  Cu  Cu6  1  0.28150600  0.77370500  0.49877600  1
  Cu  Cu7  1  0.21849400  0.27370500  0.50122300  1
  Cu  Cu8  1  0.78150600  0.27370500  0.49877600  1
  Cu  Cu9  1  0.46783900  0.49233700  0.43071100  1
  Cu  Cu10  1  0.53216100  0.49233700  0.56928900  1
  Cu  Cu11  1  0.96783900  0.99233700  0.43071100  1
  Cu  Cu12  1  0.03216100  0.99233700  0.56928900  1
  H  H1  1  0.60977500  0.80720900  0.28087900  1
  H  H2  1  0.39022400  0.80720900  0.71912100  1
  H  H3  1  0.10977500  0.30720900  0.28087900  1
  H  H4  1  0.89022400  0.30720900  0.71912100  1
  H  H5  1  0.54728600  0.80731200  0.15409900  1
  H  H6  1  0.45271300  0.80731200  0.84590100  1
  H  H7  1  0.04728600  0.30731200  0.15409900  1
  H  H8  1  0.95271300  0.30731200  0.84590100  1
  H  H9  1  0.59869800  0.67761700  0.15527000  1
  H  H10  1  0.40130200  0.67761700  0.84473000  1
  H  H11  1  0.09869800  0.17761700  0.15527000  1
  H  H12  1  0.90130200  0.17761700  0.84473000  1
  H  H13  1  0.66231000  0.67828100  0.28147600  1
  H  H14  1  0.33768900  0.67828100  0.71852400  1
  H  H15  1  0.16231000  0.17828100  0.28147600  1
  H  H16  1  0.83768900  0.17828100  0.71852400  1
  H  H17  1  0.83045600  0.88319200  0.55364300  1
  H  H18  1  0.16954400  0.88319200  0.44635700  1
  H  H19  1  0.33045600  0.38319200  0.55364300  1
  H  H20  1  0.66954400  0.38319200  0.44635700  1
  H  H21  1  0.88845500  0.93872800  0.55444800  1
  H  H22  1  0.11154500  0.93872800  0.44555200  1
  H  H23  1  0.38845500  0.43872800  0.55444800  1
  H  H24  1  0.61154500  0.43872800  0.44555200  1
  H  H25  1  0.88434600  0.84878500  0.36864000  1
  H  H26  1  0.11565400  0.84878500  0.63136000  1
  H  H27  1  0.38434600  0.34878500  0.36864000  1
  H  H28  1  0.61565400  0.34878500  0.63136000  1
  H  H29  1  0.94818800  0.82693600  0.45350600  1
  H  H30  1  0.05181100  0.82693600  0.54649400  1
  H  H31  1  0.44818800  0.32693600  0.45350600  1
  H  H32  1  0.55181100  0.32693600  0.54649400  1
  H  H33  1  0.89254100  0.77069300  0.45338500  1
  H  H34  1  0.10745900  0.77069300  0.54661500  1
  H  H35  1  0.39254100  0.27069300  0.45338500  1
  H  H36  1  0.60745900  0.27069300  0.54661500  1
  H  H37  1  0.79579800  0.76742200  0.71902200  1
  H  H38  1  0.20420200  0.76742200  0.28097800  1
  H  H39  1  0.29579800  0.26742200  0.71902200  1
  H  H40  1  0.70420200  0.26742200  0.28097800  1
  H  H41  1  0.85810000  0.76529000  0.84505900  1
  H  H42  1  0.14190000  0.76529000  0.15494100  1
  H  H43  1  0.35810000  0.26529000  0.84505900  1
  H  H44  1  0.64190000  0.26529000  0.15494100  1
  H  H45  1  0.98883800  0.71658600  0.84485400  1
  H  H46  1  0.01116200  0.71658600  0.15514600  1
  H  H47  1  0.48883800  0.21658600  0.84485400  1
  H  H48  1  0.51116200  0.21658600  0.15514600  1
  H  H49  1  0.92576300  0.71770900  0.71821500  1
  H  H50  1  0.07423700  0.71770900  0.28178500  1
  H  H51  1  0.42576300  0.21770900  0.71821500  1
  H  H52  1  0.57423700  0.21770900  0.28178500  1
  H  H53  1  0.65788800  0.68201900  0.58216800  1
  H  H54  1  0.34211200  0.68201900  0.41783200  1
  H  H55  1  0.15788800  0.18201900  0.58216800  1
  H  H56  1  0.84211200  0.18201900  0.41783200  1
  H  H57  1  0.60355700  0.62421500  0.58479100  1
  H  H58  1  0.39644300  0.62421500  0.41520900  1
  H  H59  1  0.10355700  0.12421500  0.58479100  1
  H  H60  1  0.89644300  0.12421500  0.41520900  1
  H  H61  1  0.62803900  0.52441600  0.43252600  1
  H  H62  1  0.37196100  0.52441600  0.56747400  1
  H  H63  1  0.12803900  0.02441600  0.43252600  1
  H  H64  1  0.87196100  0.02441600  0.56747400  1
  H  H65  1  0.56293800  0.55520700  0.36214900  1
  H  H66  1  0.43706200  0.55520700  0.63785100  1
  H  H67  1  0.06293800  0.05520700  0.36214900  1
  H  H68  1  0.93706200  0.05520700  0.63785100  1
  H  H69  1  0.68503600  0.57999600  0.43321600  1
  H  H70  1  0.31496300  0.57999600  0.56678400  1
  H  H71  1  0.18503600  0.07999600  0.43321600  1
  H  H72  1  0.81496300  0.07999600  0.56678400  1
  H  H73  1  0.61989700  0.61097000  0.36335400  1
  H  H74  1  0.38010300  0.61097000  0.63664600  1
  H  H75  1  0.11989700  0.11097000  0.36335400  1
  H  H76  1  0.88010300  0.11097000  0.63664600  1
  H  H77  1  0.83534700  0.72213300  0.35802300  1
  H  H78  1  0.75410000  0.70553200  0.23790500  1
  H  H79  1  0.70180200  0.83766200  0.20704500  1
  H  H80  1  0.78231300  0.85492100  0.32625900  1
  H  H81  1  0.16465300  0.72213300  0.64197700  1
  H  H82  1  0.24589900  0.70553200  0.76209400  1
  H  H83  1  0.29819800  0.83766200  0.79295500  1
  H  H84  1  0.21768700  0.85492100  0.67374000  1
  H  H85  1  0.33534700  0.22213300  0.35802300  1
  H  H86  1  0.25410000  0.20553200  0.23790500  1
  H  H87  1  0.20180200  0.33766200  0.20704500  1
  H  H88  1  0.28231300  0.35492100  0.32625900  1
  H  H89  1  0.66465300  0.22213300  0.64197700  1
  H  H90  1  0.74589900  0.20553200  0.76209400  1
  H  H91  1  0.79819800  0.33766200  0.79295500  1
  H  H92  1  0.71768700  0.35492100  0.67374000  1
  C  C1  1  0.80554800  0.80295400  0.49580100  1
  C  C2  1  0.19445100  0.80295400  0.50419900  1
  C  C3  1  0.30554800  0.30295400  0.49580100  1
  C  C4  1  0.69445100  0.30295400  0.50419900  1
  C  C5  1  0.67936900  0.74294900  0.36590400  1
  C  C6  1  0.32063100  0.74294900  0.63409600  1
  C  C7  1  0.17936900  0.24294900  0.36590400  1
  C  C8  1  0.82063100  0.24294900  0.63409600  1
  C  C9  1  0.69191800  0.68389900  0.50338900  1
  C  C10  1  0.30808100  0.68389900  0.49661100  1
  C  C11  1  0.19191800  0.18389900  0.50338900  1
  C  C12  1  0.80808100  0.18389900  0.49661100  1
  C  C13  1  0.81805800  0.74368000  0.63343200  1
  C  C14  1  0.18194200  0.74368000  0.36656800  1
  C  C15  1  0.31805800  0.24368000  0.63343200  1
  C  C16  1  0.68194200  0.24368000  0.36656800  1
  C  C17  1  0.60721200  0.77855800  0.25348700  1
  C  C18  1  0.39278800  0.77855800  0.74651300  1
  C  C19  1  0.10721200  0.27855800  0.25348600  1
  C  C20  1  0.89278800  0.27855800  0.74651300  1
  C  C21  1  0.57208400  0.77868300  0.18164300  1
  C  C22  1  0.42791600  0.77868300  0.81835700  1
  C  C23  1  0.07208400  0.27868300  0.18164300  1
  C  C24  1  0.92791600  0.27868300  0.81835700  1
  C  C25  1  0.56827200  0.74236300  0.14568800  1
  C  C26  1  0.43172800  0.74236300  0.85431200  1
  C  C27  1  0.06827200  0.24236300  0.14568800  1
  C  C28  1  0.93172800  0.24236300  0.85431200  1
  C  C29  1  0.60036100  0.70616300  0.18220000  1
  C  C30  1  0.39963900  0.70616300  0.81780000  1
  C  C31  1  0.10036100  0.20616300  0.18220000  1
  C  C32  1  0.89963900  0.20616300  0.81780000  1
  C  C33  1  0.63691400  0.70667100  0.25389100  1
  C  C34  1  0.36308500  0.70667100  0.74610900  1
  C  C35  1  0.13691400  0.20667100  0.25389100  1
  C  C36  1  0.86308500  0.20667100  0.74610900  1
  C  C37  1  0.64020300  0.74271700  0.28980900  1
  C  C38  1  0.35979700  0.74271700  0.71019100  1
  C  C39  1  0.14020300  0.24271700  0.28980900  1
  C  C40  1  0.85979700  0.24271700  0.71019100  1
  C  C41  1  0.46804900  0.74251000  0.93053200  1
  C  C42  1  0.53195100  0.74251000  0.06946800  1
  C  C43  1  0.96804900  0.24251000  0.93053200  1
  C  C44  1  0.03195100  0.24251000  0.06946800  1
  C  C45  1  0.86044300  0.83150800  0.46086700  1
  C  C46  1  0.13955700  0.83150800  0.53913200  1
  C  C47  1  0.36044300  0.33150800  0.46086700  1
  C  C48  1  0.63955700  0.33150800  0.53913200  1
  C  C49  1  0.83758600  0.83714100  0.49380700  1
  C  C50  1  0.16241300  0.83714100  0.50619300  1
  C  C51  1  0.33758600  0.33714100  0.49380700  1
  C  C52  1  0.66241300  0.33714100  0.50619300  1
  C  C53  1  0.84707800  0.87690600  0.52642000  1
  C  C54  1  0.15292200  0.87690600  0.47357900  1
  C  C55  1  0.34707800  0.37690600  0.52642000  1
  C  C56  1  0.65292200  0.37690600  0.47357900  1
  C  C57  1  0.88025200  0.90839700  0.52725000  1
  C  C58  1  0.11974800  0.90839700  0.47275000  1
  C  C59  1  0.38025200  0.40839700  0.52725000  1
  C  C60  1  0.61974800  0.40839700  0.47275000  1
  C  C61  1  0.90228400  0.90127900  0.49294700  1
  C  C62  1  0.09771600  0.90127900  0.50705300  1
  C  C63  1  0.40228400  0.40127900  0.49294700  1
  C  C64  1  0.59771600  0.40127900  0.50705300  1
  C  C65  1  0.89047900  0.86216700  0.45977900  1
  C  C66  1  0.10952100  0.86216700  0.54022100  1
  C  C67  1  0.39047900  0.36216700  0.45977900  1
  C  C68  1  0.60952100  0.36216700  0.54022100  1
  C  C69  1  0.90329900  0.83546400  0.42104500  1
  C  C70  1  0.09670100  0.83546400  0.57895500  1
  C  C71  1  0.40329900  0.33546400  0.42104500  1
  C  C72  1  0.59670100  0.33546400  0.57895500  1
  C  C73  1  0.86763400  0.79950300  0.42180300  1
  C  C74  1  0.13236600  0.79950300  0.57819700  1
  C  C75  1  0.36763400  0.29950300  0.42180300  1
  C  C76  1  0.63236600  0.29950300  0.57819700  1
  C  C77  1  0.83817200  0.75627500  0.74613100  1
  C  C78  1  0.16182800  0.75627500  0.25386900  1
  C  C79  1  0.33817200  0.25627500  0.74613100  1
  C  C80  1  0.66182800  0.25627500  0.25386900  1
  C  C81  1  0.87347600  0.75469800  0.81783600  1
  C  C82  1  0.12652400  0.75469800  0.18216400  1
  C  C83  1  0.37347600  0.25469800  0.81783600  1
  C  C84  1  0.62652400  0.25469800  0.18216400  1
  C  C85  1  0.92794400  0.74077900  0.85402700  1
  C  C86  1  0.07205600  0.74077900  0.14597300  1
  C  C87  1  0.42794400  0.24077900  0.85402700  1
  C  C88  1  0.57205600  0.24077900  0.14597300  1
  C  C89  1  0.94649900  0.72785500  0.81764900  1
  C  C90  1  0.05350100  0.72785500  0.18235000  1
  C  C91  1  0.44649900  0.22785500  0.81764900  1
  C  C92  1  0.55350100  0.22785500  0.18235000  1
  C  C93  1  0.91063100  0.72823500  0.74575400  1
  C  C94  1  0.08936900  0.72823500  0.25424600  1
  C  C95  1  0.41063100  0.22823500  0.74575400  1
  C  C96  1  0.58936900  0.22823500  0.25424600  1
  C  C97  1  0.85642400  0.74279600  0.70970100  1
  C  C98  1  0.14357600  0.74279600  0.29029900  1
  C  C99  1  0.35642400  0.24279600  0.70970100  1
  C  C100  1  0.64357600  0.24279600  0.29029900  1
  C  C101  1  0.03434400  0.74006400  0.06964600  1
  C  C102  1  0.96565600  0.74006400  0.93035400  1
  C  C103  1  0.53434400  0.24006400  0.06964600  1
  C  C104  1  0.46565600  0.24006400  0.93035400  1
  C  C105  1  0.64296800  0.61325700  0.46633500  1
  C  C106  1  0.35703100  0.61325700  0.53366500  1
  C  C107  1  0.14296800  0.11325700  0.46633500  1
  C  C108  1  0.85703100  0.11325700  0.53366500  1
  C  C109  1  0.66013500  0.65001400  0.50635000  1
  C  C110  1  0.33986500  0.65001400  0.49365000  1
  C  C111  1  0.16013500  0.15001400  0.50635000  1
  C  C112  1  0.83986500  0.15001400  0.49365000  1
  C  C113  1  0.64514700  0.65378700  0.54912000  1
  C  C114  1  0.35485200  0.65378700  0.45088000  1
  C  C115  1  0.14514700  0.15378700  0.54912000  1
  C  C116  1  0.85485200  0.15378700  0.45088000  1
  C  C117  1  0.61467800  0.62087100  0.55098800  1
  C  C118  1  0.38532200  0.62087100  0.44901200  1
  C  C119  1  0.11467800  0.12087100  0.55098800  1
  C  C120  1  0.88532200  0.12087100  0.44901200  1
  C  C121  1  0.59650500  0.58499100  0.50745400  1
  C  C122  1  0.40349500  0.58499100  0.49254600  1
  C  C123  1  0.09650500  0.08499100  0.50745400  1
  C  C124  1  0.90349500  0.08499100  0.49254600  1
  C  C125  1  0.61157100  0.58313600  0.46542200  1
  C  C126  1  0.38842900  0.58313600  0.53457700  1
  C  C127  1  0.11157100  0.08313600  0.46542200  1
  C  C128  1  0.88842900  0.08313600  0.53457700  1
  C  C129  1  0.60635100  0.55613800  0.41159200  1
  C  C130  1  0.39364800  0.55613800  0.58840700  1
  C  C131  1  0.10635100  0.05613800  0.41159200  1
  C  C132  1  0.89364800  0.05613800  0.58840700  1
  C  C133  1  0.64298400  0.59182000  0.41227700  1
  C  C134  1  0.35701600  0.59182000  0.58772300  1
  C  C135  1  0.14298400  0.09182000  0.41227700  1
  C  C136  1  0.85701600  0.09182000  0.58772300  1
  C  C137  1  0.43836500  0.55140500  0.49514400  1
  C  C138  1  0.56163500  0.55140500  0.50485500  1
  C  C139  1  0.93836500  0.05140500  0.49514400  1
  C  C140  1  0.06163500  0.05140500  0.50485500  1
  C  C141  1  0.93834800  0.93344200  0.49530100  1
  C  C142  1  0.06165200  0.93344200  0.50469900  1
  C  C143  1  0.43834800  0.43344200  0.49530100  1
  C  C144  1  0.56165200  0.43344200  0.50469900  1
  C  C145  1  0.81489900  0.78956900  0.35060100  1
  C  C146  1  0.80579800  0.74759800  0.32548600  1
  C  C147  1  0.76017000  0.73818700  0.25787800  1
  C  C148  1  0.72332300  0.77067200  0.21505000  1
  C  C149  1  0.73087700  0.81222200  0.24061900  1
  C  C150  1  0.77647900  0.82177100  0.30820900  1
  C  C151  1  0.18510100  0.78956900  0.64939900  1
  C  C152  1  0.19420200  0.74759800  0.67451300  1
  C  C153  1  0.23983000  0.73818700  0.74212200  1
  C  C154  1  0.27667700  0.77067200  0.78495000  1
  C  C155  1  0.26912300  0.81222200  0.75938100  1
  C  C156  1  0.22352100  0.82177100  0.69179100  1
  C  C157  1  0.31489900  0.28956900  0.35060100  1
  C  C158  1  0.30579800  0.24759800  0.32548600  1
  C  C159  1  0.26017000  0.23818700  0.25787800  1
  C  C160  1  0.22332300  0.27067200  0.21505000  1
  C  C161  1  0.23087700  0.31222200  0.24061900  1
  C  C162  1  0.27647900  0.32177100  0.30820900  1
  C  C163  1  0.68510100  0.28956900  0.64939900  1
  C  C164  1  0.69420200  0.24759800  0.67451300  1
  C  C165  1  0.73983000  0.23818700  0.74212200  1
  C  C166  1  0.77667700  0.27067200  0.78495000  1
  C  C167  1  0.76912300  0.31222200  0.75938100  1
  C  C168  1  0.72352100  0.32177100  0.69179100  1
  N  N1  1  0.51597300  0.70467300  0.03435500  1
  N  N2  1  0.48402700  0.70467300  0.96564500  1
  N  N3  1  0.01597300  0.20467300  0.03435500  1
  N  N4  1  0.98402700  0.20467300  0.96564500  1
  N  N5  1  0.48426900  0.78038500  0.96564100  1
  N  N6  1  0.51573100  0.78038500  0.03435900  1
  N  N7  1  0.98426900  0.28038500  0.96564100  1
  N  N8  1  0.01573100  0.28038500  0.03435900  1
  N  N9  1  0.02130100  0.73988000  0.96618300  1
  N  N10  1  0.97869900  0.73988000  0.03381700  1
  N  N11  1  0.52130100  0.23988000  0.96618300  1
  N  N12  1  0.47869900  0.23988000  0.03381700  1
  N  N13  1  0.05524400  0.74011300  0.03503900  1
  N  N14  1  0.94475600  0.74011300  0.96496100  1
  N  N15  1  0.55524400  0.24011300  0.03503900  1
  N  N16  1  0.44475600  0.24011300  0.96496100  1
  Cl  Cl1  1  0.66848300  0.75962700  0.12736600  1
  Cl  Cl2  1  0.33151700  0.75962700  0.87263400  1
  Cl  Cl3  1  0.16848300  0.25962700  0.12736600  1
  Cl  Cl4  1  0.83151700  0.25962700  0.87263400  1
  O  O1  1  0.81618800  0.76226100  0.49175200  1
  O  O2  1  0.18381200  0.76226100  0.50824800  1
  O  O3  1  0.31618800  0.26226100  0.49175200  1
  O  O4  1  0.68381200  0.26226100  0.50824800  1
  O  O5  1  0.76776000  0.81455400  0.50218900  1
  O  O6  1  0.23224000  0.81455400  0.49781100  1
  O  O7  1  0.26776000  0.31455400  0.50218900  1
  O  O8  1  0.73224000  0.31455400  0.49781100  1
  O  O9  1  0.72327100  0.71762900  0.39697600  1
  O  O10  1  0.27672900  0.71762900  0.60302400  1
  O  O11  1  0.22327100  0.21762900  0.39697600  1
  O  O12  1  0.77672900  0.21762900  0.60302400  1
  O  O13  1  0.66923200  0.76838400  0.39983100  1
  O  O14  1  0.33076800  0.76838400  0.60016900  1
  O  O15  1  0.16923200  0.26838400  0.39983100  1
  O  O16  1  0.83076800  0.26838400  0.60016900  1
  O  O17  1  0.73071400  0.67215900  0.49884000  1
  O  O18  1  0.26928600  0.67215900  0.50116000  1
  O  O19  1  0.23071400  0.17215900  0.49884000  1
  O  O20  1  0.76928600  0.17215900  0.50116000  1
  O  O21  1  0.68038200  0.72460000  0.50572200  1
  O  O22  1  0.31961800  0.72460000  0.49427700  1
  O  O23  1  0.18038200  0.22460000  0.50572200  1
  O  O24  1  0.81961800  0.22460000  0.49427700  1
  O  O25  1  0.82905600  0.71934400  0.59935200  1
  O  O26  1  0.17094400  0.71934400  0.40064800  1
  O  O27  1  0.32905600  0.21934400  0.59935200  1
  O  O28  1  0.67094400  0.21934400  0.40064800  1
  O  O29  1  0.77347400  0.76825300  0.60230000  1
  O  O30  1  0.22652600  0.76825300  0.39770000  1
  O  O31  1  0.27347400  0.26825300  0.60230000  1
  O  O32  1  0.72652600  0.26825300  0.39770000  1
  O  O33  1  0.42694900  0.53836900  0.43660400  1
  O  O34  1  0.57305100  0.53836900  0.56339600  1
  O  O35  1  0.92694900  0.03836900  0.43660400  1
  O  O36  1  0.07305100  0.03836900  0.56339600  1
  O  O37  1  0.47973900  0.53579900  0.55625600  1
  O  O38  1  0.52026100  0.53579900  0.44374400  1
  O  O39  1  0.97973900  0.03579900  0.55625600  1
  O  O40  1  0.02026100  0.03579900  0.44374400  1
  O  O41  1  0.92695100  0.94632100  0.43667800  1
  O  O42  1  0.07304900  0.94632100  0.56332200  1
  O  O43  1  0.42695100  0.44632100  0.43667800  1
  O  O44  1  0.57304900  0.44632100  0.56332200  1
  O  O45  1  0.97982900  0.94894300  0.55635300  1
  O  O46  1  0.02017100  0.94894300  0.44364700  1
  O  O47  1  0.47982900  0.44894300  0.55635300  1
  O  O48  1  0.52017100  0.44894300  0.44364700  1
