# Generated by REPEAT Assigner based on pymatgen
data_DB0-m2_o15_o23_f0_pcu.sym.33
_audit_creation_date              2022-05-24
_audit_creation_method            REPEAT_Assigner
_cell_length_a                    10.934701
_cell_length_b                    9.548281
_cell_length_c                    15.878049
_cell_angle_alpha                 90.000000
_cell_angle_beta                  89.995346
_cell_angle_gamma                 90.000000
_cell_volume                      1657.788851
_symmetry_space_group_name_H-M    P1
_symmetry_Int_Tables_number       1
loop_
    _symmetry_equiv_pos_site_id
    _symmetry_equiv_pos_as_xyz
    1  x,y,z
loop_
    _atom_site_type_symbol
    _atom_site_label
    _atom_site_fract_x
    _atom_site_fract_y
    _atom_site_fract_z
    _atom_type_partial_charge
    O   O1   0.326116  0.623699  0.505357  -0.459634
    O   O2   0.319612  0.384963  0.502023  -0.429224
    C   C1   0.263978  0.507078  0.508528  0.584898
    O   O3   0.505719  0.614426  0.376968  -0.471425
    O   O4   0.491366  0.374608  0.379320  -0.506789
    C   C2   0.498906  0.493338  0.338794  0.618736
    Cu  Cu1  0.503973  0.638773  0.499159  0.720276
    Cu  Cu2  0.496959  0.358183  0.501899  0.716915
    O   O5   0.681295  0.611882  0.498817  -0.476093
    O   O6   0.674831  0.373392  0.496114  -0.482354
    O   O7   0.510206  0.622057  0.621671  -0.576421
    O   O8   0.494950  0.382908  0.624061  -0.572603
    C   C3   0.736995  0.489872  0.492612  0.632867
    C   C4   0.503021  0.503675  0.662208  0.795828
    C   C5   0.419824  0.611946  0.049123  -0.364638
    C   C6   0.463743  0.357501  0.044797  -0.363195
    C   C7   0.442307  0.374399  0.950719  -0.005660
    C   C8   0.438107  0.632276  0.955149  -0.077974
    H   H1   0.347889  0.643032  0.923881  0.051506
    H   H2   0.342664  0.385640  0.939520  0.021557
    H   H3   0.324857  0.575433  0.060087  0.104241
    H   H4   0.375364  0.329138  0.074537  0.111360
    H   H5   0.473069  0.282838  0.913623  -0.022254
    H   H6   0.492682  0.728260  0.943500  0.016487
    C   C9   0.504068  0.506596  0.752544  -0.217877
    C   C10  0.507264  0.497608  0.080077  0.813061
    C   C11  0.505708  0.506285  0.920520  0.485230
    C   C12  0.636572  0.510126  0.952223  -0.074538
    C   C13  0.635970  0.526806  0.047246  -0.111385
    C   C14  0.504843  0.508146  0.828415  -0.279922
    C   C15  0.505229  0.491423  0.172422  -0.497510
    C   C16  0.502155  0.490794  0.248352  -0.038980
    H   H7   0.664843  0.634845  0.062483  -0.019031
    H   H8   0.703943  0.455136  0.075999  0.044625
    H   H9   0.685218  0.600365  0.923718  0.029373
    H   H10  0.685087  0.413095  0.933817  -0.007403
    H   H11  0.115899  0.082071  0.637226  0.095904
    H   H12  0.078440  0.970241  0.436406  0.077477
    C   C17  0.104830  0.761149  0.479925  -0.179731
    C   C18  0.121920  0.289610  0.588075  -0.199067
    C   C19  0.041486  0.865539  0.439301  -0.004150
    C   C20  0.068815  0.161389  0.601057  -0.141872
    C   C21  0.932073  0.836412  0.401604  -0.131354
    C   C22  0.959101  0.132136  0.563814  0.024141
    C   C23  0.879263  0.707810  0.413778  -0.195941
    C   C24  0.895912  0.236098  0.522676  -0.187153
    C   C25  0.936378  0.606251  0.462817  0.148383
    C   C26  0.942844  0.371435  0.516618  0.129313
    C   C27  0.058101  0.625666  0.485267  0.137462
    C   C28  0.064674  0.390841  0.538867  0.139417
    C   C29  0.874034  0.484804  0.485833  -0.261465
    C   C30  0.126990  0.512163  0.515666  -0.248247
    H   H13  0.185419  0.793501  0.513126  0.098302
    H   H14  0.207569  0.309657  0.619624  0.136104
    H   H15  0.884960  0.916081  0.365731  0.095670
    H   H16  0.921885  0.027610  0.567343  0.085307
    H   H17  0.793877  0.687889  0.381874  0.129691
    H   H18  0.815191  0.203383  0.489781  0.112383
    H   H19  0.214450  0.120315  0.292860  0.091411
    H   H20  0.224138  0.865151  0.289439  0.060770
    C   C31  0.646749  0.142455  0.613360  -0.198588
    C   C32  0.659374  0.860759  0.608341  -0.143397
    C   C33  0.718470  0.073363  0.670192  -0.061803
    C   C34  0.724758  0.932045  0.667720  -0.108353
    C   C35  0.577767  0.926270  0.552964  0.188535
    C   C36  0.570574  0.073572  0.555785  0.200516
    N   N1   0.508937  0.849774  0.497400  -0.251077
    N   N2   0.492536  0.147185  0.504370  -0.184945
    C   C37  0.430272  0.923352  0.446393  0.236419
    C   C38  0.423415  0.070643  0.448987  0.106032
    C   C39  0.353038  0.854453  0.389443  -0.114575
    C   C40  0.341697  0.136100  0.393608  -0.160167
    C   C41  0.280328  0.923367  0.333163  0.013981
    C   C42  0.274871  0.064672  0.335095  -0.092630
    H   H21  0.657991  0.251898  0.617018  0.159755
    H   H22  0.678240  0.752534  0.609114  0.142027
    H   H23  0.774018  0.131476  0.714350  0.090391
    H   H24  0.785013  0.876404  0.710071  0.097098
    H   H25  0.342475  0.745057  0.385218  0.091701
    H   H26  0.323667  0.244408  0.392091  0.135131
    C   C43  0.553853  0.243032  0.064044  0.663973
    O   O9   0.565746  0.202875  0.136450  -0.500548
    O   O10  0.623142  0.186045  0.002626  -0.212165
    C   C44  0.704625  0.080346  0.018959  -0.150145
    H   H27  0.754806  0.054161  0.960337  0.101969
    H   H28  0.654656  0.986023  0.040531  0.113938
    H   H29  0.771172  0.114501  0.067534  0.089247
    C   C45  0.433979  0.750323  0.093356  0.695699
    O   O11  0.361867  0.843962  0.077141  -0.551972
    O   O12  0.524469  0.771371  0.150113  -0.307280
    C   C46  0.534851  0.888287  0.200141  0.125016
    H   H30  0.535965  0.855336  0.266981  0.004358
    H   H31  0.458221  0.962339  0.190523  0.050568
    H   H32  0.622787  0.941305  0.186660  0.026487
