# generated using pymatgen
data_Zn2H15C32(NO3)3
_symmetry_space_group_name_H-M   'P 1'
_cell_length_a   13.39660700
_cell_length_b   8.54927500
_cell_length_c   10.83464900
_cell_angle_alpha   90.00000000
_cell_angle_beta   90.51624500
_cell_angle_gamma   90.00000000
_symmetry_Int_Tables_number   1
_chemical_formula_structural   Zn2H15C32(NO3)3
_chemical_formula_sum   'Zn2 H15 C32 N3 O9'
_cell_volume   1240.85581911
_cell_formula_units_Z   1
loop_
 _symmetry_equiv_pos_site_id
 _symmetry_equiv_pos_as_xyz
  1  'x, y, z'
loop_
 _atom_site_type_symbol
 _atom_site_label
 _atom_site_symmetry_multiplicity
 _atom_site_fract_x
 _atom_site_fract_y
 _atom_site_fract_z
 _atom_site_occupancy
  Zn  Zn1  1  0.10991000  0.49165000  0.50679600  1
  Zn  Zn2  1  0.88749100  0.50114800  0.49468300  1
  H  H1  1  0.03525700  0.61212100  0.88699300  1
  H  H2  1  0.95866000  0.38167500  0.89041900  1
  H  H3  1  0.03895900  0.61114700  0.11118000  1
  H  H4  1  0.96237300  0.38066300  0.11462400  1
  H  H5  1  0.97012200  0.99605200  0.58805200  1
  H  H6  1  0.02761300  0.99672700  0.41349400  1
  H  H7  1  0.26081900  0.50045500  0.70316300  1
  H  H8  1  0.42079800  0.51111900  0.80237600  1
  H  H9  1  0.56865500  0.48652300  0.29025400  1
  H  H10  1  0.41528900  0.47798500  0.29681800  1
  H  H11  1  0.74773000  0.51627000  0.68322700  1
  H  H12  1  0.23938200  0.47458900  0.31677400  1
  H  H13  1  0.73063100  0.73022900  0.29393800  1
  H  H14  1  0.67774200  0.63948300  0.15698800  1
  H  H15  1  0.81042900  0.67589700  0.16714000  1
  C  C1  1  0.98266900  0.99660600  0.68522000  1
  C  C2  1  0.99726000  0.85738100  0.74531300  1
  C  C3  1  0.98491900  0.13683500  0.74619300  1
  C  C4  1  0.00649000  0.85727100  0.87255400  1
  C  C5  1  0.98651600  0.13682400  0.87378900  1
  C  C6  1  0.02245700  0.71967100  0.93599900  1
  C  C7  1  0.97371600  0.27395100  0.93852600  1
  C  C8  1  0.02389400  0.71885700  0.06306100  1
  C  C9  1  0.97515300  0.27311900  0.06559400  1
  C  C10  1  0.99733100  0.99666600  0.93693200  1
  C  C11  1  0.00026400  0.99612900  0.06462600  1
  C  C12  1  0.01109500  0.85598800  0.12777800  1
  C  C13  1  0.99111300  0.13550200  0.12901900  1
  C  C14  1  0.01273500  0.85600200  0.25536900  1
  C  C15  1  0.00037100  0.13533100  0.25625800  1
  C  C16  1  0.01501500  0.99617000  0.31633400  1
  C  C17  1  0.00767700  0.71387300  0.33118400  1
  C  C18  1  0.99859200  0.27718000  0.33232300  1
  C  C19  1  0.99909200  0.71539800  0.66929900  1
  C  C20  1  0.99003700  0.27906300  0.67041400  1
  C  C21  1  0.70688600  0.51180300  0.59683500  1
  C  C22  1  0.70658100  0.50059500  0.38155900  1
  C  C23  1  0.60367700  0.49476900  0.37952800  1
  C  C24  1  0.55047700  0.49815800  0.48907300  1
  C  C25  1  0.60397400  0.50768800  0.59836300  1
  C  C26  1  0.38655700  0.48228900  0.38896400  1
  C  C27  1  0.44635800  0.49222800  0.49354700  1
  C  C28  1  0.39995900  0.49736500  0.60698900  1
  C  C29  1  0.45664500  0.50714800  0.71344200  1
  C  C30  1  0.28449600  0.47923400  0.39979100  1
  C  C31  1  0.29676300  0.49402500  0.61438000  1
  C  C32  1  0.74327000  0.64266100  0.22019200  1
  N  N1  1  0.75667800  0.50797400  0.48951300  1
  N  N2  1  0.55676900  0.51173300  0.70743000  1
  N  N3  1  0.24073600  0.48484600  0.51095700  1
  O  O1  1  0.91955300  0.66817900  0.36974500  1
  O  O2  1  0.91215200  0.33042000  0.37018000  1
  O  O3  1  0.09121700  0.65546400  0.37479200  1
  O  O4  1  0.08397500  0.32872200  0.37597300  1
  O  O5  1  0.08579000  0.66235200  0.63150000  1
  O  O6  1  0.07841700  0.32457800  0.63196600  1
  O  O7  1  0.91349200  0.66385200  0.62568300  1
  O  O8  1  0.90628700  0.33740000  0.62674500  1
  O  O9  1  0.75766500  0.49544300  0.27298300  1
