# generated using pymatgen
data_CuH13C25N3O4
_symmetry_space_group_name_H-M   'P 1'
_cell_length_a   10.23853400
_cell_length_b   16.48732400
_cell_length_c   16.67678400
_cell_angle_alpha   90.00000000
_cell_angle_beta   98.84866500
_cell_angle_gamma   90.00000000
_symmetry_Int_Tables_number   1
_chemical_formula_structural   CuH13C25N3O4
_chemical_formula_sum   'Cu2 H26 C50 N6 O8'
_cell_volume   2781.63607712
_cell_formula_units_Z   2
loop_
 _symmetry_equiv_pos_site_id
 _symmetry_equiv_pos_as_xyz
  1  'x, y, z'
loop_
 _atom_site_type_symbol
 _atom_site_label
 _atom_site_symmetry_multiplicity
 _atom_site_fract_x
 _atom_site_fract_y
 _atom_site_fract_z
 _atom_site_occupancy
  Cu  Cu1  1  0.86859900  0.00000000  0.99340800  1
  Cu  Cu2  1  0.13140100  0.00000000  0.00659200  1
  H  H1  1  0.12735400  0.42031800  0.22813800  1
  H  H2  1  0.87264600  0.57968200  0.77186200  1
  H  H3  1  0.87264600  0.42031800  0.77186200  1
  H  H4  1  0.12735400  0.57968200  0.22813800  1
  H  H5  1  0.00854700  0.81109600  0.42245800  1
  H  H6  1  0.99145200  0.18890400  0.57754200  1
  H  H7  1  0.99145200  0.81109600  0.57754200  1
  H  H8  1  0.00854700  0.18890400  0.42245800  1
  H  H9  1  0.05171600  0.50000000  0.57217800  1
  H  H10  1  0.94828300  0.50000000  0.42782200  1
  H  H11  1  0.81163100  0.28511900  0.26777700  1
  H  H12  1  0.18836900  0.71488100  0.73222300  1
  H  H13  1  0.18836900  0.28511900  0.73222300  1
  H  H14  1  0.81163100  0.71488100  0.26777700  1
  H  H15  1  0.23192200  0.17463400  0.20688000  1
  H  H16  1  0.76807700  0.82536600  0.79312000  1
  H  H17  1  0.76807700  0.17463400  0.79312000  1
  H  H18  1  0.23192200  0.82536600  0.20688000  1
  H  H19  1  0.23220000  0.27623700  0.31405900  1
  H  H20  1  0.76780000  0.72376300  0.68594100  1
  H  H21  1  0.76780000  0.27623700  0.68594100  1
  H  H22  1  0.23220000  0.72376300  0.31405900  1
  H  H23  1  0.80893800  0.81610000  0.16161200  1
  H  H24  1  0.19106100  0.18390000  0.83838800  1
  H  H25  1  0.19106100  0.81610000  0.83838800  1
  H  H26  1  0.80893800  0.18390000  0.16161200  1
  C  C1  1  0.01696100  0.11025700  0.11259800  1
  C  C2  1  0.98303800  0.88974300  0.88740200  1
  C  C3  1  0.98303800  0.11025700  0.88740200  1
  C  C4  1  0.01696100  0.88974300  0.11259800  1
  C  C5  1  0.43179100  0.00000000  0.00422100  1
  C  C6  1  0.56820900  0.00000000  0.99577900  1
  C  C7  1  0.00386800  0.75746200  0.45920000  1
  C  C8  1  0.99613100  0.24253800  0.54080000  1
  C  C9  1  0.99613100  0.75746200  0.54080000  1
  C  C10  1  0.00386800  0.24253800  0.45920000  1
  C  C11  1  0.99288400  0.67707300  0.56389600  1
  C  C12  1  0.00711600  0.32292700  0.43610400  1
  C  C13  1  0.00711600  0.67707300  0.43610400  1
  C  C14  1  0.99288400  0.32292700  0.56389600  1
  C  C15  1  0.98027300  0.65185100  0.63871300  1
  C  C16  1  0.01972600  0.34814900  0.36128700  1
  C  C17  1  0.01972600  0.65185100  0.36128700  1
  C  C18  1  0.98027300  0.34814900  0.63871300  1
  C  C19  1  0.96366400  0.56584700  0.66046700  1
  C  C20  1  0.03633500  0.43415300  0.33953300  1
  C  C21  1  0.03633500  0.56584700  0.33953300  1
  C  C22  1  0.96366400  0.43415300  0.66046700  1
  C  C23  1  0.90963900  0.54171500  0.72756000  1
  C  C24  1  0.09036000  0.45828500  0.27244000  1
  C  C25  1  0.09036000  0.54171500  0.27244000  1
  C  C26  1  0.90963900  0.45828500  0.72756000  1
  C  C27  1  0.90391700  0.26078400  0.25437200  1
  C  C28  1  0.09608300  0.73921600  0.74562800  1
  C  C29  1  0.09608300  0.26078400  0.74562800  1
  C  C30  1  0.90391700  0.73921600  0.25437200  1
  C  C31  1  0.90303000  0.20341300  0.19430800  1
  C  C32  1  0.09697000  0.79658700  0.80569200  1
  C  C33  1  0.09697000  0.20341300  0.80569200  1
  C  C34  1  0.90303000  0.79658700  0.19430800  1
  C  C35  1  0.02049100  0.17195300  0.17638000  1
  C  C36  1  0.97950900  0.82804700  0.82362000  1
  C  C37  1  0.97950900  0.17195300  0.82362000  1
  C  C38  1  0.02049100  0.82804700  0.17638000  1
  C  C39  1  0.13899000  0.19856900  0.21958600  1
  C  C40  1  0.86101000  0.80143100  0.78041400  1
  C  C41  1  0.86101000  0.19856900  0.78041400  1
  C  C42  1  0.13899000  0.80143100  0.21958600  1
  C  C43  1  0.13944300  0.25583200  0.28021500  1
  C  C44  1  0.86055600  0.74416800  0.71978500  1
  C  C45  1  0.86055600  0.25583200  0.71978500  1
  C  C46  1  0.13944300  0.74416800  0.28021500  1
  C  C47  1  0.02174400  0.28717000  0.29747100  1
  C  C48  1  0.97825600  0.71283000  0.70252900  1
  C  C49  1  0.97825600  0.28717000  0.70252900  1
  C  C50  1  0.02174400  0.71283000  0.29747100  1
  N  N1  1  0.32009100  0.00000000  0.01000400  1
  N  N2  1  0.67990800  0.00000000  0.98999600  1
  N  N3  1  0.00000000  0.62811600  0.50000000  1
  N  N4  1  0.00000000  0.37188400  0.50000000  1
  N  N5  1  0.99872900  0.50000000  0.62052400  1
  N  N6  1  0.00127100  0.50000000  0.37947600  1
  O  O1  1  0.90166000  0.08272500  0.07803000  1
  O  O2  1  0.09834000  0.91727500  0.92197000  1
  O  O3  1  0.09834000  0.08272500  0.92197000  1
  O  O4  1  0.90166000  0.91727500  0.07803000  1
  O  O5  1  0.12693700  0.08269700  0.09084300  1
  O  O6  1  0.87306200  0.91730300  0.90915700  1
  O  O7  1  0.87306200  0.08269700  0.90915700  1
  O  O8  1  0.12693700  0.91730300  0.09084300  1
