# generated using pymatgen
data_Zn3H22(C21O11)2
_symmetry_space_group_name_H-M   'P 1'
_cell_length_a   41.14365700
_cell_length_b   35.58999300
_cell_length_c   21.53803500
_cell_angle_alpha   90.00000000
_cell_angle_beta   59.95842400
_cell_angle_gamma   90.00000000
_symmetry_Int_Tables_number   1
_chemical_formula_structural   Zn3H22(C21O11)2
_chemical_formula_sum   'Zn12 H88 C168 O88'
_cell_volume   27301.43057835
_cell_formula_units_Z   4
loop_
 _symmetry_equiv_pos_site_id
 _symmetry_equiv_pos_as_xyz
  1  'x, y, z'
loop_
 _atom_site_type_symbol
 _atom_site_label
 _atom_site_symmetry_multiplicity
 _atom_site_fract_x
 _atom_site_fract_y
 _atom_site_fract_z
 _atom_site_occupancy
  Zn  Zn1  1  0.99999500  0.45873900  0.00007000  1
  Zn  Zn2  1  0.49999500  0.95873900  0.00007000  1
  Zn  Zn3  1  0.99929000  0.54374600  0.00076000  1
  Zn  Zn4  1  0.49929100  0.04374600  0.00076000  1
  Zn  Zn5  1  0.04334400  0.49894100  0.45866300  1
  Zn  Zn6  1  0.95833400  0.50003900  0.54000900  1
  Zn  Zn7  1  0.54334400  0.99894100  0.45866300  1
  Zn  Zn8  1  0.45833400  0.00003900  0.54000900  1
  Zn  Zn9  1  0.50101800  0.49917700  0.56890400  1
  Zn  Zn10  1  0.49832500  0.49937500  0.43115500  1
  Zn  Zn11  1  0.00101800  0.99917700  0.56890400  1
  Zn  Zn12  1  0.99832500  0.99937500  0.43115500  1
  H  H1  1  0.94023100  0.52228000  0.27021500  1
  H  H2  1  0.04298700  0.54755300  0.74773000  1
  H  H3  1  0.44023100  0.02228000  0.27021500  1
  H  H4  1  0.54298700  0.04755300  0.74773000  1
  H  H5  1  0.95306400  0.45730300  0.33196800  1
  H  H6  1  0.06272200  0.48480600  0.65406900  1
  H  H7  1  0.45306300  0.95730300  0.33196800  1
  H  H8  1  0.56272200  0.98480600  0.65406900  1
  H  H9  1  0.01452600  0.43814700  0.19562200  1
  H  H10  1  0.01694800  0.43833600  0.77336900  1
  H  H11  1  0.51452500  0.93814600  0.19562200  1
  H  H12  1  0.51694800  0.93833600  0.77336800  1
  H  H13  1  0.04961800  0.54420400  0.16577500  1
  H  H14  1  0.93612600  0.51543300  0.84729500  1
  H  H15  1  0.54961800  0.04420400  0.16577500  1
  H  H16  1  0.43612600  0.01543300  0.84729500  1
  H  H17  1  0.61781900  0.49696800  0.28053700  1
  H  H18  1  0.38153200  0.50042800  0.71953000  1
  H  H19  1  0.11781900  0.99696800  0.28053700  1
  H  H20  1  0.88153200  0.00042800  0.71953000  1
  H  H21  1  0.62115900  0.50017800  0.47609400  1
  H  H22  1  0.37815700  0.49728800  0.52400700  1
  H  H23  1  0.12115900  0.00017900  0.47609400  1
  H  H24  1  0.87815700  0.99728800  0.52400700  1
  H  H25  1  0.80857900  0.55787300  0.18370500  1
  H  H26  1  0.18984000  0.55916900  0.82280400  1
  H  H27  1  0.30858000  0.05787400  0.18370400  1
  H  H28  1  0.68984000  0.05916900  0.82280400  1
  H  H29  1  0.88132300  0.44065100  0.12087300  1
  H  H30  1  0.11892900  0.44121600  0.87356000  1
  H  H31  1  0.38132300  0.94065100  0.12087300  1
  H  H32  1  0.61892900  0.94121600  0.87356000  1
  H  H33  1  0.81299000  0.43866300  0.18903800  1
  H  H34  1  0.18719600  0.44037800  0.80527900  1
  H  H35  1  0.31299000  0.93866300  0.18903800  1
  H  H36  1  0.68719600  0.94037800  0.80527900  1
  H  H37  1  0.49957900  0.37956800  0.59821700  1
  H  H38  1  0.50093500  0.37931700  0.39798000  1
  H  H39  1  0.99957900  0.87956800  0.59821700  1
  H  H40  1  0.00093500  0.87931700  0.39798000  1
  H  H41  1  0.93956500  0.31183200  0.56134300  1
  H  H42  1  0.05898500  0.31039400  0.44129400  1
  H  H43  1  0.43956500  0.81183200  0.56134300  1
  H  H44  1  0.55898500  0.81039400  0.44129400  1
  H  H45  1  0.93998600  0.38040100  0.56074200  1
  H  H46  1  0.06024000  0.37886600  0.43983000  1
  H  H47  1  0.43998600  0.88040100  0.56074200  1
  H  H48  1  0.56024100  0.87886600  0.43983000  1
  H  H49  1  0.98364200  0.58540700  0.27430500  1
  H  H50  1  0.97658400  0.58361300  0.76524500  1
  H  H51  1  0.48364300  0.08540700  0.27430500  1
  H  H52  1  0.47658400  0.08361300  0.76524500  1
  H  H53  1  0.69554800  0.47226600  0.42500600  1
  H  H54  1  0.30336200  0.46982700  0.57800900  1
  H  H55  1  0.19554900  0.97226700  0.42500600  1
  H  H56  1  0.80336200  0.96982700  0.57800900  1
  H  H57  1  0.87968600  0.57431200  0.06643800  1
  H  H58  1  0.11827100  0.57281600  0.94189300  1
  H  H59  1  0.37968600  0.07431200  0.06643800  1
  H  H60  1  0.61827100  0.07281600  0.94189300  1
  H  H61  1  0.47356000  0.30456400  0.64482100  1
  H  H62  1  0.52913400  0.30504400  0.34979300  1
  H  H63  1  0.97356000  0.80456400  0.64482100  1
  H  H64  1  0.02913500  0.80504400  0.34979300  1
  H  H65  1  0.92572300  0.69593600  0.59582000  1
  H  H66  1  0.07839400  0.69484400  0.39966200  1
  H  H67  1  0.42572300  0.19593600  0.59582000  1
  H  H68  1  0.57839300  0.19484400  0.39966200  1
  H  H69  1  0.92309200  0.61702400  0.60351900  1
  H  H70  1  0.07982300  0.61533700  0.39480300  1
  H  H71  1  0.42309200  0.11702400  0.60351900  1
  H  H72  1  0.57982300  0.11533700  0.39480300  1
  H  H73  1  0.49309400  0.69533300  0.37933700  1
  H  H74  1  0.50470700  0.69557100  0.62481800  1
  H  H75  1  0.99309400  0.19533300  0.37933700  1
  H  H76  1  0.00470700  0.19557100  0.62481800  1
  H  H77  1  0.49122400  0.61625800  0.37730700  1
  H  H78  1  0.50754200  0.61652300  0.62616400  1
  H  H79  1  0.99122400  0.11625800  0.37730700  1
  H  H80  1  0.00754200  0.11652300  0.62616500  1
  H  H81  1  0.08267300  0.47138700  0.17288700  1
  H  H82  1  0.94150300  0.43581200  0.80075000  1
  H  H83  1  0.58267300  0.97138700  0.17288700  1
  H  H84  1  0.44150300  0.93581200  0.80075000  1
  H  H85  1  0.69231200  0.52220700  0.18267200  1
  H  H86  1  0.30741000  0.52754100  0.81482000  1
  H  H87  1  0.19231200  0.02220800  0.18267200  1
  H  H88  1  0.80741000  0.02754100  0.81482000  1
  C  C1  1  0.92593100  0.50156600  0.07214900  1
  C  C2  1  0.07335100  0.50100200  0.92866600  1
  C  C3  1  0.42593100  0.00156600  0.07214900  1
  C  C4  1  0.57335100  0.00100200  0.92866600  1
  C  C5  1  0.00050400  0.50194400  0.12084700  1
  C  C6  1  0.99882800  0.50050000  0.87993800  1
  C  C7  1  0.50050400  0.00194400  0.12084700  1
  C  C8  1  0.49882800  0.00050000  0.87993700  1
  C  C9  1  0.96770500  0.51198700  0.26117800  1
  C  C10  1  0.02368100  0.52567200  0.74819300  1
  C  C11  1  0.46770500  0.01198700  0.26117800  1
  C  C12  1  0.52368100  0.02567200  0.74819300  1
  C  C13  1  0.99453800  0.53366700  0.27612200  1
  C  C14  1  0.99001900  0.53254500  0.73934900  1
  C  C15  1  0.49453800  0.03366700  0.27612200  1
  C  C16  1  0.49001900  0.03254500  0.73934900  1
  C  C17  1  0.00129700  0.49961100  0.30887900  1
  C  C18  1  0.00036100  0.49964300  0.68972600  1
  C  C19  1  0.50129700  0.99961100  0.30887900  1
  C  C20  1  0.50036100  0.99964300  0.68972600  1
  C  C21  1  0.97482100  0.47694800  0.29378400  1
  C  C22  1  0.03412800  0.49176200  0.69822000  1
  C  C23  1  0.47482100  0.97694800  0.29378400  1
  C  C24  1  0.53412800  0.99176200  0.69822000  1
  C  C25  1  0.00796900  0.46645000  0.22048600  1
  C  C26  1  0.00951600  0.46653100  0.76234300  1
  C  C27  1  0.50796900  0.96645000  0.22048600  1
  C  C28  1  0.50951600  0.96653100  0.76234300  1
  C  C29  1  0.03356300  0.48962100  0.23663600  1
  C  C30  1  0.97635100  0.47529400  0.75305300  1
  C  C31  1  0.53356300  0.98962100  0.23663600  1
  C  C32  1  0.47635100  0.97529300  0.75305300  1
  C  C33  1  0.02773700  0.52446400  0.20334700  1
  C  C34  1  0.96481600  0.50849400  0.80348800  1
  C  C35  1  0.52773800  0.02446400  0.20334700  1
  C  C36  1  0.46481600  0.00849400  0.80348800  1
  C  C37  1  0.00101800  0.50157700  0.18907100  1
  C  C38  1  0.99890000  0.50050000  0.81114500  1
  C  C39  1  0.50101800  0.00157700  0.18907100  1
  C  C40  1  0.49890000  0.00050000  0.81114500  1
  C  C41  1  0.67183100  0.49663900  0.27054600  1
  C  C42  1  0.32750400  0.49956600  0.72961700  1
  C  C43  1  0.17183100  0.99663900  0.27054600  1
  C  C44  1  0.82750400  0.99956500  0.72961700  1
  C  C45  1  0.63311900  0.49738900  0.30921400  1
  C  C46  1  0.36622300  0.49966500  0.69088500  1
  C  C47  1  0.13311900  0.99739000  0.30921400  1
  C  C48  1  0.86622300  0.99966500  0.69088500  1
  C  C49  1  0.61443300  0.49869800  0.38338000  1
  C  C50  1  0.38490200  0.49887700  0.61669300  1
  C  C51  1  0.11443300  0.99869800  0.38338000  1
  C  C52  1  0.88490200  0.99887700  0.61669300  1
  C  C53  1  0.63498300  0.49918400  0.41825600  1
  C  C54  1  0.36433800  0.49792100  0.58186200  1
  C  C55  1  0.13498300  0.99918400  0.41825600  1
  C  C56  1  0.86433800  0.99792100  0.58186200  1
  C  C57  1  0.67369400  0.49839400  0.37938600  1
  C  C58  1  0.32561800  0.49778800  0.62080200  1
  C  C59  1  0.17369400  0.99839400  0.37938600  1
  C  C60  1  0.82561800  0.99778800  0.62080200  1
  C  C61  1  0.69214800  0.49710700  0.30555000  1
  C  C62  1  0.30717100  0.49862800  0.69466200  1
  C  C63  1  0.19214800  0.99710700  0.30555000  1
  C  C64  1  0.80717100  0.99862800  0.69466200  1
  C  C65  1  0.73247200  0.49685700  0.26512400  1
  C  C66  1  0.26684600  0.49878500  0.73513400  1
  C  C67  1  0.23247200  0.99685800  0.26512400  1
  C  C68  1  0.76684600  0.99878400  0.73513400  1
  C  C69  1  0.76631300  0.49710800  0.23115400  1
  C  C70  1  0.23300400  0.49909200  0.76915900  1
  C  C71  1  0.26631300  0.99710800  0.23115400  1
  C  C72  1  0.73300400  0.99909200  0.76915900  1
  C  C73  1  0.82477000  0.53220200  0.16973500  1
  C  C74  1  0.17403400  0.53334300  0.83414200  1
  C  C75  1  0.32477000  0.03220200  0.16973400  1
  C  C76  1  0.67403500  0.03334300  0.83414200  1
  C  C77  1  0.86343200  0.53384900  0.13101000  1
  C  C78  1  0.13532300  0.53433900  0.87306000  1
  C  C79  1  0.36343200  0.03384900  0.13101000  1
  C  C80  1  0.63532300  0.03433900  0.87306000  1
  C  C81  1  0.88450500  0.50093000  0.11282800  1
  C  C82  1  0.11477400  0.50121000  0.88786700  1
  C  C83  1  0.38450500  0.00093000  0.11282800  1
  C  C84  1  0.61477400  0.00121000  0.88786700  1
  C  C85  1  0.86591100  0.46677300  0.13394900  1
  C  C86  1  0.13389400  0.46750600  0.86321300  1
  C  C87  1  0.36591100  0.96677300  0.13394900  1
  C  C88  1  0.63389500  0.96750600  0.86321300  1
  C  C89  1  0.82719100  0.46545000  0.17267500  1
  C  C90  1  0.17260300  0.46682400  0.82437300  1
  C  C91  1  0.32719100  0.96545000  0.17267500  1
  C  C92  1  0.67260300  0.96682400  0.82437300  1
  C  C93  1  0.80661000  0.49817300  0.19067900  1
  C  C94  1  0.19269800  0.49972800  0.80972300  1
  C  C95  1  0.30661000  0.99817300  0.19067900  1
  C  C96  1  0.69269800  0.99972700  0.80972300  1
  C  C97  1  0.00090100  0.57320100  0.49925600  1
  C  C98  1  0.50090100  0.07320100  0.49925600  1
  C  C99  1  0.00159700  0.49950300  0.37736100  1
  C  C100  1  0.00009400  0.49948800  0.62126600  1
  C  C101  1  0.50159700  0.99950300  0.37736100  1
  C  C102  1  0.50009400  0.99948800  0.62126600  1
  C  C103  1  0.00077300  0.42588300  0.49949900  1
  C  C104  1  0.50077300  0.92588300  0.49949900  1
  C  C105  1  0.49959800  0.57304300  0.50161600  1
  C  C106  1  0.99959800  0.07304300  0.50161600  1
  C  C107  1  0.57322400  0.49927200  0.42464300  1
  C  C108  1  0.42611600  0.49906900  0.57538000  1
  C  C109  1  0.07322400  0.99927200  0.42464300  1
  C  C110  1  0.92611600  0.99906900  0.57538000  1
  C  C111  1  0.49976200  0.42564700  0.49842200  1
  C  C112  1  0.99976200  0.92564700  0.49842200  1
  C  C113  1  0.50066100  0.32621400  0.55327400  1
  C  C114  1  0.50145500  0.32606800  0.44178800  1
  C  C115  1  0.00066100  0.82621400  0.55327400  1
  C  C116  1  0.00145500  0.82606800  0.44178800  1
  C  C117  1  0.50009800  0.36493800  0.55377900  1
  C  C118  1  0.50082600  0.36479500  0.44213100  1
  C  C119  1  0.00009800  0.86493800  0.55377900  1
  C  C120  1  0.00082700  0.86479500  0.44213000  1
  C  C121  1  0.50016800  0.38445900  0.49816400  1
  C  C122  1  0.00016800  0.88445900  0.49816400  1
  C  C123  1  0.50138100  0.30679000  0.49730000  1
  C  C124  1  0.00138100  0.80679000  0.49730000  1
  C  C125  1  0.50184700  0.26650200  0.49705400  1
  C  C126  1  0.00184700  0.76650200  0.49705400  1
  C  C127  1  0.00206400  0.73266700  0.49715500  1
  C  C128  1  0.50206300  0.23266700  0.49715500  1
  C  C129  1  0.97330600  0.67332700  0.55402900  1
  C  C130  1  0.03055500  0.67276700  0.44208700  1
  C  C131  1  0.47330600  0.17332700  0.55402900  1
  C  C132  1  0.53055500  0.17276700  0.44208700  1
  C  C133  1  0.97282300  0.63460400  0.55476000  1
  C  C134  1  0.03049600  0.63401200  0.44249900  1
  C  C135  1  0.47282300  0.13460400  0.55476000  1
  C  C136  1  0.53049500  0.13401200  0.44249900  1
  C  C137  1  0.00147700  0.61454400  0.49884900  1
  C  C138  1  0.50147700  0.11454400  0.49884900  1
  C  C139  1  0.00202100  0.69237700  0.49773900  1
  C  C140  1  0.50202100  0.19237700  0.49773900  1
  C  C141  1  0.48527400  0.67301600  0.46474800  1
  C  C142  1  0.51271400  0.67323700  0.53929500  1
  C  C143  1  0.98527400  0.17301600  0.46474900  1
  C  C144  1  0.01271400  0.17323700  0.53929500  1
  C  C145  1  0.48553100  0.63426300  0.46419300  1
  C  C146  1  0.51296500  0.63448600  0.53946000  1
  C  C147  1  0.98553100  0.13426300  0.46419300  1
  C  C148  1  0.01296500  0.13448600  0.53946100  1
  C  C149  1  0.49938500  0.61450800  0.50171600  1
  C  C150  1  0.99938500  0.11450800  0.50171600  1
  C  C151  1  0.49886200  0.69247600  0.50213000  1
  C  C152  1  0.99886100  0.19247600  0.50213000  1
  C  C153  1  0.49877600  0.73279700  0.50206600  1
  C  C154  1  0.99877600  0.23279700  0.50206600  1
  C  C155  1  0.99886600  0.26664800  0.50186100  1
  C  C156  1  0.49886600  0.76664800  0.50186000  1
  C  C157  1  0.96600000  0.32672600  0.53472200  1
  C  C158  1  0.03291300  0.32591900  0.46745700  1
  C  C159  1  0.46600100  0.82672600  0.53472200  1
  C  C160  1  0.53291300  0.82591900  0.46745700  1
  C  C161  1  0.96639200  0.36548000  0.53422500  1
  C  C162  1  0.03345500  0.36464400  0.46680000  1
  C  C163  1  0.46639200  0.86547900  0.53422500  1
  C  C164  1  0.53345600  0.86464400  0.46680000  1
  C  C165  1  0.00016700  0.38467400  0.50021000  1
  C  C166  1  0.50016700  0.88467400  0.50021000  1
  C  C167  1  0.99923500  0.30695500  0.50136500  1
  C  C168  1  0.49923500  0.80695500  0.50136400  1
  O  O1  1  0.94407900  0.46940700  0.05313000  1
  O  O2  1  0.05603400  0.46843200  0.94404200  1
  O  O3  1  0.44407900  0.96940700  0.05313000  1
  O  O4  1  0.55603400  0.96843200  0.94404200  1
  O  O5  1  0.94328400  0.53405600  0.05678800  1
  O  O6  1  0.05517800  0.53309000  0.94770900  1
  O  O7  1  0.44328400  0.03405600  0.05678800  1
  O  O8  1  0.55517800  0.03309000  0.94770900  1
  O  O9  1  0.00160100  0.46960300  0.09083900  1
  O  O10  1  0.00037200  0.46803700  0.90692800  1
  O  O11  1  0.50160100  0.96960300  0.09083900  1
  O  O12  1  0.50037200  0.96803700  0.90692800  1
  O  O13  1  0.99894100  0.53445500  0.09391600  1
  O  O14  1  0.99768200  0.53289200  0.90995100  1
  O  O15  1  0.49894100  0.03445500  0.09391600  1
  O  O16  1  0.49768200  0.03289200  0.90995100  1
  O  O17  1  0.03293900  0.55494200  0.46703100  1
  O  O18  1  0.96829800  0.55608100  0.53202000  1
  O  O19  1  0.53293900  0.05494200  0.46703100  1
  O  O20  1  0.46829800  0.05608100  0.53202000  1
  O  O21  1  0.03406600  0.49798500  0.37475000  1
  O  O22  1  0.96759900  0.50097000  0.62394600  1
  O  O23  1  0.53406600  0.99798500  0.37475000  1
  O  O24  1  0.46759900  0.00097000  0.62394600  1
  O  O25  1  0.96926800  0.50096200  0.43726800  1
  O  O26  1  0.03242500  0.49803500  0.56138600  1
  O  O27  1  0.46926800  0.00096100  0.43726800  1
  O  O28  1  0.53242500  0.99803500  0.56138600  1
  O  O29  1  0.03342900  0.44291000  0.46667800  1
  O  O30  1  0.96868800  0.44405400  0.53164000  1
  O  O31  1  0.53342900  0.94291000  0.46667800  1
  O  O32  1  0.46868800  0.94405400  0.53164000  1
  O  O33  1  0.49975900  0.55532700  0.55487100  1
  O  O34  1  0.49949200  0.55520300  0.44838300  1
  O  O35  1  0.99975900  0.05532700  0.55487100  1
  O  O36  1  0.99949200  0.05520300  0.44838300  1
  O  O37  1  0.55648000  0.50011000  0.49492600  1
  O  O38  1  0.44286000  0.49828900  0.50509700  1
  O  O39  1  0.05648000  0.00011000  0.49492600  1
  O  O40  1  0.94286000  0.99828900  0.50509700  1
  O  O41  1  0.55472300  0.49845100  0.38969000  1
  O  O42  1  0.44462100  0.49994300  0.61032500  1
  O  O43  1  0.05472300  0.99845100  0.38969000  1
  O  O44  1  0.94462100  0.99994300  0.61032500  1
  O  O45  1  0.49983600  0.44330400  0.55185400  1
  O  O46  1  0.49961300  0.44318200  0.44498900  1
  O  O47  1  0.99983600  0.94330400  0.55185400  1
  O  O48  1  0.99961400  0.94318200  0.44498900  1
  O  O49  1  0.98708400  0.56911800  0.30782700  1
  O  O50  1  0.98017400  0.56755400  0.72476200  1
  O  O51  1  0.48708500  0.06911800  0.30782700  1
  O  O52  1  0.48017400  0.06755400  0.72476200  1
  O  O53  1  0.69376900  0.49897800  0.41421300  1
  O  O54  1  0.30553000  0.49688200  0.58601100  1
  O  O55  1  0.19377000  0.99897800  0.41421300  1
  O  O56  1  0.80553000  0.99688100  0.58601100  1
  O  O57  1  0.88017200  0.56829900  0.11085000  1
  O  O58  1  0.11799600  0.56831400  0.89679200  1
  O  O59  1  0.38017200  0.06830000  0.11085000  1
  O  O60  1  0.61799600  0.06831400  0.89679300  1
  O  O61  1  0.50048300  0.30708400  0.60842200  1
  O  O62  1  0.50215600  0.30679600  0.38628600  1
  O  O63  1  0.00048400  0.80708400  0.60842200  1
  O  O64  1  0.00215700  0.80679600  0.38628600  1
  O  O65  1  0.94522000  0.69288600  0.60955300  1
  O  O66  1  0.05888500  0.69176800  0.38596700  1
  O  O67  1  0.44522000  0.19288600  0.60955300  1
  O  O68  1  0.55888500  0.19176800  0.38596700  1
  O  O69  1  0.94447200  0.61651400  0.61245200  1
  O  O70  1  0.05858800  0.61530000  0.38543500  1
  O  O71  1  0.44447200  0.11651400  0.61245200  1
  O  O72  1  0.55858800  0.11530000  0.38543500  1
  O  O73  1  0.47130400  0.69218300  0.42824400  1
  O  O74  1  0.52650900  0.69262900  0.57586200  1
  O  O75  1  0.97130400  0.19218300  0.42824400  1
  O  O76  1  0.02650800  0.19262900  0.57586200  1
  O  O77  1  0.47084800  0.61590500  0.42807300  1
  O  O78  1  0.52789700  0.61636600  0.57537800  1
  O  O79  1  0.97084800  0.11590500  0.42807300  1
  O  O80  1  0.02789700  0.11636600  0.57537800  1
  O  O81  1  0.06835600  0.47722300  0.22477300  1
  O  O82  1  0.95169500  0.44828500  0.75354000  1
  O  O83  1  0.56835500  0.97722300  0.22477300  1
  O  O84  1  0.45169500  0.94828500  0.75354000  1
  O  O85  1  0.69005800  0.49553600  0.19734600  1
  O  O86  1  0.30928800  0.50048200  0.80282500  1
  O  O87  1  0.19005800  0.99553600  0.19734600  1
  O  O88  1  0.80928800  0.00048200  0.80282500  1
