# Generated by REPEAT Assigner based on pymatgen
data_DB0-m2_o6_npo
_audit_creation_date              2022-05-24
_audit_creation_method            REPEAT_Assigner
_cell_length_a                    23.202365
_cell_length_b                    43.754094
_cell_length_c                    43.738654
_cell_angle_alpha                 64.481364
_cell_angle_beta                  94.487883
_cell_angle_gamma                 101.007462
_cell_volume                      39334.020673
_symmetry_space_group_name_H-M    P1
_symmetry_Int_Tables_number       1
loop_
    _symmetry_equiv_pos_site_id
    _symmetry_equiv_pos_as_xyz
    1  x,y,z
loop_
    _atom_site_type_symbol
    _atom_site_label
    _atom_site_fract_x
    _atom_site_fract_y
    _atom_site_fract_z
    _atom_type_partial_charge
    C   C1    0.525714  0.446145  0.510577  0.782462
    C   C2    0.391780  0.820765  0.500580  0.840345
    C   C3    0.062606  0.870041  0.472243  -0.208948
    C   C4    0.010132  0.952149  0.418952  -0.080431
    C   C5    0.160777  0.856852  0.491169  -0.082944
    C   C6    0.192895  0.836452  0.506650  -0.223308
    C   C7    0.977988  0.972489  0.403334  -0.229294
    C   C8    0.558905  0.905302  0.490809  -0.185247
    C   C9    0.540967  0.888702  0.470196  0.262015
    C   C10   0.577029  0.893689  0.444219  -0.177381
    C   C11   0.630847  0.915202  0.438876  -0.182533
    C   C12   0.648788  0.931795  0.459495  0.246929
    C   C13   0.384478  0.729161  0.557243  0.911556
    C   C14   0.612723  0.926813  0.485467  -0.170639
    C   C15   0.484867  0.866283  0.475765  -0.087651
    C   C16   0.704901  0.954195  0.453941  -0.071329
    C   C17   0.752385  0.972541  0.449670  -0.206183
    C   C18   0.437535  0.847740  0.480379  -0.207116
    C   C19   0.088016  0.392441  0.976733  -0.181842
    C   C20   0.077855  0.413447  0.991173  0.250862
    C   C21   0.115310  0.444294  0.984006  -0.167480
    C   C22   0.162673  0.454086  0.962512  -0.204432
    C   C23   0.172837  0.433085  0.948069  0.268833
    C   C24   0.233298  0.720106  0.575833  0.899046
    C   C25   0.135382  0.402236  0.955235  -0.184304
    C   C26   0.028437  0.403240  0.013593  -0.076735
    C   C27   0.222263  0.443308  0.925647  -0.083574
    C   C28   0.264006  0.452206  0.906983  -0.225042
    C   C29   0.987054  0.395135  0.032327  -0.208429
    C   C30   0.559969  0.358284  0.977922  -0.200705
    C   C31   0.573214  0.384979  0.946336  0.288341
    C   C32   0.631154  0.397321  0.936160  -0.202471
    C   C33   0.675561  0.383055  0.957429  -0.186282
    C   C34   0.662314  0.356355  0.989012  0.263926
    C   C35   0.306628  0.458913  0.881582  0.879464
    C   C36   0.604375  0.344019  0.999192  -0.192195
    C   C37   0.526857  0.399862  0.924131  -0.101084
    C   C38   0.708664  0.341448  0.011208  -0.072041
    C   C39   0.747382  0.328736  0.029792  -0.229102
    C   C40   0.487867  0.412246  0.905576  -0.207877
    C   C41   0.846558  0.148838  0.265917  -0.145591
    C   C42   0.906760  0.158907  0.263779  0.222369
    C   C43   0.930934  0.190679  0.239369  -0.246606
    C   C44   0.895091  0.212095  0.216982  -0.105133
    C   C45   0.834888  0.201972  0.219041  0.177909
    C   C46   0.318747  0.509815  0.788655  0.833668
    C   C47   0.810696  0.170357  0.243690  -0.237746
    C   C48   0.944170  0.136254  0.286700  0.073505
    C   C49   0.797533  0.224208  0.195478  0.119639
    C   C50   0.768757  0.244841  0.176101  -0.323652
    C   C51   0.975948  0.117356  0.305655  -0.278042
    C   C52   0.457461  0.483863  0.788226  0.856642
    C   C53   0.450090  0.433124  0.880773  0.860688
    C   C54   0.948877  0.315182  0.149327  0.919965
    C   C55   0.803311  0.272076  0.148524  0.898038
    C   C56   0.791672  0.325670  0.055509  0.875861
    C   C57   0.543436  0.492419  0.565275  0.876881
    C   C58   0.945768  0.368788  0.056942  0.834485
    C   C59   0.802794  0.087765  0.363373  0.864556
    C   C60   0.940484  0.089404  0.332227  0.834418
    C   C61   0.939885  0.997558  0.394331  0.877963
    C   C62   0.794645  0.997194  0.424655  0.815711
    C   C63   0.139668  0.367028  0.487511  -0.187511
    C   C64   0.117422  0.377681  0.455077  0.283896
    C   C65   0.147211  0.406174  0.428976  -0.181097
    C   C66   0.199098  0.423958  0.435290  -0.193802
    C   C67   0.221350  0.413302  0.467723  0.286122
    C   C68   0.392369  0.503483  0.552443  0.899874
    C   C69   0.191554  0.384812  0.493824  -0.203340
    C   C70   0.063361  0.359145  0.448493  -0.100901
    C   C71   0.275430  0.431828  0.474303  -0.105751
    C   C72   0.320895  0.447217  0.479929  -0.174677
    C   C73   0.018175  0.343572  0.442808  -0.176420
    C   C74   0.617813  0.398036  0.447479  -0.224386
    C   C75   0.638299  0.415143  0.467384  0.304432
    C   C76   0.698008  0.424089  0.470760  -0.208990
    C   C77   0.737041  0.415965  0.454313  -0.216920
    C   C78   0.716553  0.398859  0.434407  0.301542
    C   C79   0.369808  0.456930  0.498148  0.757417
    C   C80   0.656845  0.389913  0.431031  -0.195149
    C   C81   0.597585  0.423609  0.484546  -0.097300
    C   C82   0.757265  0.390393  0.417244  -0.100836
    C   C83   0.791327  0.383425  0.402686  -0.179228
    C   C84   0.563405  0.430562  0.499050  -0.181426
    C   C85   0.445811  0.625870  0.572741  -0.214237
    C   C86   0.399960  0.641785  0.572872  0.263244
    C   C87   0.342831  0.625705  0.572491  -0.140867
    C   C88   0.331604  0.593871  0.571788  -0.241678
    C   C89   0.377464  0.578054  0.571438  0.305924
    C   C90   0.955257  0.299637  0.359053  0.813230
    C   C91   0.434585  0.594047  0.572019  -0.189157
    C   C92   0.411697  0.675122  0.573212  -0.028277
    C   C93   0.365773  0.545091  0.570263  -0.082864
    C   C94   0.357714  0.519918  0.564628  -0.212137
    C   C95   0.423936  0.704820  0.568761  -0.261463
    C   C96   0.493655  0.509262  0.642546  -0.206701
    C   C97   0.546522  0.501090  0.638956  0.247671
    C   C98   0.584154  0.491077  0.666135  -0.173918
    C   C99   0.568990  0.489243  0.696841  -0.236820
    C   C100  0.516167  0.497438  0.700451  0.328951
    C   C101  0.973561  0.339714  0.419355  0.767147
    C   C102  0.478508  0.507473  0.673254  -0.186762
    C   C103  0.562403  0.502977  0.606991  0.010643
    C   C104  0.500465  0.495479  0.732497  -0.108613
    C   C105  0.497645  0.491358  0.761497  -0.194928
    C   C106  0.589355  0.502854  0.584553  -0.286544
    C   C107  0.835788  0.290678  0.257011  -0.067171
    C   C108  0.854483  0.314119  0.270533  0.187362
    C   C109  0.908963  0.334816  0.261725  -0.144697
    C   C110  0.944318  0.332339  0.239214  -0.148024
    C   C111  0.925291  0.309209  0.225358  0.200050
    C   C112  0.827610  0.365479  0.393325  0.794537
    C   C113  0.871084  0.288302  0.234423  -0.248025
    C   C114  0.817038  0.317215  0.293426  0.157818
    C   C115  0.961471  0.307246  0.201185  0.076496
    C   C116  0.988750  0.310626  0.177170  -0.344835
    C   C117  0.777488  0.319557  0.308259  -0.346805
    C   C118  0.852164  0.228254  0.343740  -0.220642
    C   C119  0.912015  0.231636  0.340606  0.310462
    C   C120  0.934855  0.205649  0.338635  -0.199550
    C   C121  0.898015  0.176244  0.340160  -0.162432
    C   C122  0.838191  0.172816  0.343398  0.198208
    C   C123  0.816785  0.325055  0.333127  0.820602
    C   C124  0.815293  0.198960  0.345004  -0.145465
    C   C125  0.950536  0.261902  0.339918  -0.055378
    C   C126  0.799918  0.141888  0.345600  0.034240
    C   C127  0.768023  0.114375  0.353407  -0.290883
    C   C128  0.986660  0.280942  0.347935  -0.227857
    C   C129  0.190900  0.619364  0.675105  -0.200996
    C   C130  0.230903  0.638792  0.649164  0.241222
    C   C131  0.286239  0.630700  0.651597  -0.180545
    C   C132  0.301470  0.603259  0.679862  -0.194608
    C   C133  0.261463  0.583863  0.705845  0.311907
    C   C134  0.234354  0.813046  0.517910  0.885565
    C   C135  0.206152  0.591978  0.703384  -0.218968
    C   C136  0.214941  0.667395  0.619744  -0.012121
    C   C137  0.277306  0.555338  0.735429  -0.101172
    C   C138  0.284611  0.531495  0.762016  -0.195432
    C   C139  0.193669  0.690334  0.597741  -0.261918
    C   C140  0.025817  0.893313  0.454612  -0.186219
    C   C141  0.048538  0.927855  0.437377  0.279003
    C   C142  0.108297  0.938966  0.437901  -0.199693
    C   C143  0.145086  0.915694  0.455533  -0.193064
    C   C144  0.122367  0.881151  0.472763  0.281586
    Cu  Cu1   0.472790  0.503705  0.504589  1.084880
    Cu  Cu2   0.891545  0.297634  0.095781  1.042769
    Cu  Cu3   0.896499  0.052311  0.401622  1.035415
    Cu  Cu4   0.843572  0.031955  0.356573  1.038754
    Cu  Cu5   0.442796  0.445204  0.557981  1.066912
    Cu  Cu6   0.918723  0.362123  0.353019  1.052464
    Cu  Cu7   0.867854  0.303649  0.400531  1.021199
    Cu  Cu8   0.325309  0.779487  0.563078  1.057250
    Cu  Cu9   0.295293  0.763419  0.511964  1.060577
    Cu  Cu10  0.410596  0.498151  0.839684  1.069774
    Cu  Cu11  0.355439  0.444142  0.831055  1.065822
    Cu  Cu12  0.852436  0.344089  0.107538  1.035992
    H   H1    0.208878  0.376404  0.519258  0.162803
    H   H2    0.490608  0.638412  0.573061  0.166857
    H   H3    0.306835  0.638114  0.572615  0.135105
    H   H4    0.286809  0.581379  0.571363  0.167932
    H   H5    0.437079  0.513911  0.676002  0.158059
    H   H6    0.464077  0.517042  0.621295  0.135850
    H   H7    0.625582  0.484644  0.663385  0.168529
    H   H8    0.598558  0.481372  0.718098  0.170322
    H   H9    0.855999  0.270258  0.223581  0.115403
    H   H10   0.793235  0.274336  0.263897  0.104953
    H   H11   0.923876  0.353204  0.272253  0.138342
    H   H12   0.116429  0.344716  0.508011  0.157455
    H   H13   0.986765  0.348776  0.232197  0.160790
    H   H14   0.768452  0.196356  0.347604  0.164031
    H   H15   0.834121  0.248459  0.345456  0.123853
    H   H16   0.981729  0.208151  0.336256  0.162061
    H   H17   0.916113  0.155735  0.339133  0.130788
    H   H18   0.174689  0.576868  0.723659  0.165205
    H   H19   0.147529  0.625626  0.673304  0.174425
    H   H20   0.317740  0.645911  0.631373  0.137404
    H   H21   0.344853  0.597009  0.681661  0.129013
    H   H22   0.044516  0.843040  0.485673  0.158529
    H   H23   0.129886  0.414578  0.403543  0.152472
    H   H24   0.979082  0.884434  0.454312  0.150904
    H   H25   0.126386  0.965967  0.424469  0.155463
    H   H26   0.191822  0.924573  0.455830  0.153087
    H   H27   0.626639  0.939772  0.501666  0.153692
    H   H28   0.530766  0.901453  0.511180  0.157924
    H   H29   0.563115  0.880727  0.428022  0.155935
    H   H30   0.658992  0.919052  0.418507  0.160383
    H   H31   0.143136  0.385691  0.943995  0.156886
    H   H32   0.058824  0.368258  0.982262  0.159636
    H   H33   0.107560  0.460840  0.995244  0.150478
    H   H34   0.222340  0.446268  0.414789  0.158187
    H   H35   0.191861  0.478269  0.956989  0.164372
    H   H36   0.593701  0.323125  0.023884  0.155494
    H   H37   0.514704  0.348502  0.986047  0.159392
    H   H38   0.641827  0.418214  0.911466  0.155802
    H   H39   0.720827  0.392836  0.949305  0.153027
    H   H40   0.763577  0.162299  0.245451  0.173066
    H   H41   0.827414  0.123973  0.284926  0.159139
    H   H42   0.978056  0.198720  0.237590  0.167404
    H   H43   0.914243  0.236807  0.197730  0.138426
    H   H44   0.640585  0.376514  0.415472  0.148013
    H   H45   0.571095  0.390976  0.444754  0.173418
    H   H46   0.714269  0.437487  0.486319  0.161383
    H   H47   0.783759  0.423026  0.457037  0.161716
    H   H48   0.470588  0.581702  0.571765  0.145370
    O   O1    0.521731  0.478638  0.492612  -0.628220
    O   O2    0.918291  0.282636  0.384501  -0.592897
    O   O3    0.975635  0.363318  0.387996  -0.613329
    O   O4    0.931355  0.312693  0.429476  -0.620583
    O   O5    0.866235  0.382800  0.368670  -0.632996
    O   O6    0.821761  0.331894  0.409649  -0.616733
    O   O7    0.857354  0.352758  0.323626  -0.645708
    O   O8    0.813330  0.301702  0.364676  -0.624915
    O   O9    0.266227  0.809632  0.545035  -0.669989
    O   O10   0.240220  0.795515  0.500731  -0.646875
    O   O11   0.384334  0.815403  0.532044  -0.642574
    O   O12   0.495734  0.427778  0.538897  -0.636318
    O   O13   0.358304  0.801622  0.487492  -0.637088
    O   O14   0.379385  0.746821  0.574441  -0.657404
    O   O15   0.353165  0.732987  0.529933  -0.677600
    O   O16   0.265099  0.740243  0.588310  -0.654798
    O   O17   0.238843  0.726134  0.543968  -0.676484
    O   O18   0.349680  0.485389  0.873873  -0.678860
    O   O19   0.301865  0.438516  0.866263  -0.642759
    O   O20   0.358573  0.523541  0.804266  -0.626607
    O   O21   0.310511  0.476681  0.796678  -0.643350
    O   O22   0.463096  0.504079  0.803819  -0.645119
    O   O23   0.535448  0.513263  0.533553  -0.672143
    O   O24   0.415013  0.457113  0.796406  -0.659108
    O   O25   0.457129  0.466102  0.873179  -0.640704
    O   O26   0.409294  0.419102  0.865799  -0.649806
    O   O27   0.913065  0.337173  0.142064  -0.666290
    O   O28   0.947230  0.296572  0.132257  -0.660593
    O   O29   0.802780  0.304355  0.141815  -0.649015
    O   O30   0.836889  0.264222  0.131195  -0.673733
    O   O31   0.794710  0.344445  0.072423  -0.643795
    O   O32   0.828694  0.304366  0.061735  -0.660215
    O   O33   0.910218  0.377156  0.072949  -0.637151
    O   O34   0.509242  0.462401  0.579866  -0.633627
    O   O35   0.944317  0.336511  0.063221  -0.641703
    O   O36   0.842288  0.084899  0.387150  -0.641336
    O   O37   0.796029  0.067361  0.347929  -0.653793
    O   O38   0.946643  0.086206  0.363542  -0.637110
    O   O39   0.900384  0.068323  0.324539  -0.653023
    O   O40   0.945504  0.017748  0.409911  -0.639397
    O   O41   0.899580  0.999809  0.370936  -0.663321
    O   O42   0.836520  0.017077  0.432991  -0.633631
    O   O43   0.790585  0.999660  0.393621  -0.624075
    O   O44   0.421445  0.521542  0.523835  -0.675452
    O   O45   0.395315  0.470795  0.570271  -0.678349
    O   O46   0.404796  0.486668  0.483180  -0.609443
    O   O47   0.378829  0.435934  0.529631  -0.606704
    O   O48   0.962356  0.333326  0.342981  -0.658526
