data_DB0-m3_o96_o6_f0_fsc.sym.5_repeat
_audit_creation_date              2024-02-23
_audit_creation_method            'Materials Studio'
_symmetry_space_group_name_H-M    'P1'
_symmetry_Int_Tables_number       1
_symmetry_cell_setting            triclinic
loop_
_symmetry_equiv_pos_as_xyz
  x,y,z
_cell_length_a                    13.1043
_cell_length_b                    13.7898
_cell_length_c                    15.9471
_cell_angle_alpha                 94.5606
_cell_angle_beta                  90.0463
_cell_angle_gamma                 90.6401
loop_
_atom_site_label
_atom_site_type_symbol
_atom_site_fract_x
_atom_site_fract_y
_atom_site_fract_z
_atom_site_U_iso_or_equiv
_atom_site_adp_type
_atom_site_occupancy
C1     C     0.82770   0.06368   0.22183   0.00000  Uiso   1.00
C2     C     0.17230   0.93632   0.77817   0.00000  Uiso   1.00
C3     C     0.77348   0.11469   0.16800   0.00000  Uiso   1.00
C4     C     0.22652   0.88531   0.83200   0.00000  Uiso   1.00
C5     C     0.82441   0.10823   0.09230   0.00000  Uiso   1.00
C6     C     0.17559   0.89177   0.90770   0.00000  Uiso   1.00
N1     N     0.91150   0.05777   0.09953   0.00000  Uiso   1.00
N2     N     0.08850   0.94223   0.90047   0.00000  Uiso   1.00
C7     C     0.91433   0.03208   0.17977   0.00000  Uiso   1.00
C8     C     0.08567   0.96792   0.82023   0.00000  Uiso   1.00
C9     C     0.78635   0.13816   0.02091   0.00000  Uiso   1.00
C10    C     0.21365   0.86184   0.97909   0.00000  Uiso   1.00
C11    C     0.82331   0.10631   0.93616   0.00000  Uiso   1.00
C12    C     0.17669   0.89369   0.06384   0.00000  Uiso   1.00
C13    C     0.76289   0.09717   0.86487   0.00000  Uiso   1.00
C14    C     0.23712   0.90283   0.13513   0.00000  Uiso   1.00
C15    C     0.82102   0.05802   0.80045   0.00000  Uiso   1.00
C16    C     0.17898   0.94198   0.19956   0.00000  Uiso   1.00
C17    C     0.91756   0.04567   0.83352   0.00000  Uiso   1.00
C18    C     0.08244   0.95433   0.16649   0.00000  Uiso   1.00
N3     N     0.91828   0.07605   0.91627   0.00000  Uiso   1.00
N4     N     0.08172   0.92395   0.08373   0.00000  Uiso   1.00
C19    C     0.00823   0.01310   0.78582   0.00000  Uiso   1.00
C20    C     0.99177   0.98690   0.21418   0.00000  Uiso   1.00
H1     H     0.71444   0.17565   0.02389   0.00000  Uiso   1.00
H2     H     0.28556   0.82435   0.97611   0.00000  Uiso   1.00
H3     H     0.00949   0.02270   0.71911   0.00000  Uiso   1.00
H4     H     0.99051   0.97730   0.28089   0.00000  Uiso   1.00
H5     H     0.98150   0.08132   0.95598   0.00000  Uiso   1.00
H6     H     0.01850   0.91868   0.04402   0.00000  Uiso   1.00
C21    C     0.33764   0.88019   0.14644   0.00000  Uiso   1.00
C22    C     0.66236   0.11981   0.85356   0.00000  Uiso   1.00
C23    C     0.37890   0.89823   0.22595   0.00000  Uiso   1.00
C24    C     0.62110   0.10177   0.77405   0.00000  Uiso   1.00
C25    C     0.32194   0.94168   0.29205   0.00000  Uiso   1.00
C26    C     0.67806   0.05832   0.70795   0.00000  Uiso   1.00
C27    C     0.21989   0.96446   0.27915   0.00000  Uiso   1.00
C28    C     0.78011   0.03554   0.72085   0.00000  Uiso   1.00
C29    C     0.78855   0.04165   0.29824   0.00000  Uiso   1.00
C30    C     0.21145   0.95835   0.70176   0.00000  Uiso   1.00
C31    C     0.69317   0.07756   0.31977   0.00000  Uiso   1.00
C32    C     0.30683   0.92245   0.68023   0.00000  Uiso   1.00
C33    C     0.64230   0.13737   0.26759   0.00000  Uiso   1.00
C34    C     0.35770   0.86263   0.73241   0.00000  Uiso   1.00
C35    C     0.68117   0.15489   0.19006   0.00000  Uiso   1.00
C36    C     0.31883   0.84511   0.80994   0.00000  Uiso   1.00
H7     H     0.38404   0.84883   0.09555   0.00000  Uiso   1.00
H8     H     0.61596   0.15117   0.90445   0.00000  Uiso   1.00
H9     H     0.17434   0.99791   0.32976   0.00000  Uiso   1.00
H10    H     0.82566   0.00210   0.67024   0.00000  Uiso   1.00
H11    H     0.82753   0.99422   0.33816   0.00000  Uiso   1.00
H12    H     0.17247   0.00578   0.66184   0.00000  Uiso   1.00
H13    H     0.56736   0.16466   0.28403   0.00000  Uiso   1.00
H14    H     0.43264   0.83534   0.71598   0.00000  Uiso   1.00
H15    H     0.63742   0.19626   0.14827   0.00000  Uiso   1.00
H16    H     0.36258   0.80374   0.85173   0.00000  Uiso   1.00
H17    H     0.45816   0.88132   0.23571   0.00000  Uiso   1.00
H18    H     0.54184   0.11868   0.76429   0.00000  Uiso   1.00
O1     O     0.37268   0.05113   0.41079   0.00000  Uiso   1.00
O2     O     0.62733   0.94887   0.58921   0.00000  Uiso   1.00
O3     O     0.43522   0.89523   0.39765   0.00000  Uiso   1.00
O4     O     0.56479   0.10478   0.60235   0.00000  Uiso   1.00
C37    C     0.37472   0.96273   0.37315   0.00000  Uiso   1.00
C38    C     0.62528   0.03728   0.62685   0.00000  Uiso   1.00
O5     O     0.63763   0.95554   0.40899   0.00000  Uiso   1.00
O6     O     0.36237   0.04446   0.59101   0.00000  Uiso   1.00
O7     O     0.57534   0.11145   0.42772   0.00000  Uiso   1.00
O8     O     0.42467   0.88856   0.57228   0.00000  Uiso   1.00
C39    C     0.63788   0.04751   0.39252   0.00000  Uiso   1.00
C40    C     0.36212   0.95249   0.60748   0.00000  Uiso   1.00
Zn1    Zn    0.54010   0.89895   0.49034   0.00000  Uiso   1.00
Zn2    Zn    0.45990   0.10105   0.50966   0.00000  Uiso   1.00
C41    C     0.56554   0.42456   0.48048   0.00000  Uiso   1.00
C42    C     0.43446   0.57544   0.51952   0.00000  Uiso   1.00
H19    H     0.61677   0.36491   0.46489   0.00000  Uiso   1.00
H20    H     0.38324   0.63509   0.53511   0.00000  Uiso   1.00
C43    C     0.46776   0.40526   0.50768   0.00000  Uiso   1.00
C44    C     0.53224   0.59474   0.49233   0.00000  Uiso   1.00
C45    C     0.40166   0.48086   0.52666   0.00000  Uiso   1.00
C46    C     0.59834   0.51914   0.47334   0.00000  Uiso   1.00
C47    C     0.43776   0.30573   0.51553   0.00000  Uiso   1.00
C48    C     0.56225   0.69427   0.48447   0.00000  Uiso   1.00
N5     N     0.57732   0.77668   0.48054   0.00000  Uiso   1.00
N6     N     0.42268   0.22332   0.51946   0.00000  Uiso   1.00
O9     O     0.69466   0.53744   0.44509   0.00000  Uiso   1.00
C49    C     0.75827   0.53307   0.51500   0.00000  Uiso   1.00
H21    H     0.71429   0.54851   0.57385   0.00000  Uiso   1.00
H22    H     0.82006   0.58838   0.51258   0.00000  Uiso   1.00
H23    H     0.79221   0.45970   0.51442   0.00000  Uiso   1.00
O10    O     0.30534   0.46257   0.55491   0.00000  Uiso   1.00
C50    C     0.24174   0.46693   0.48500   0.00000  Uiso   1.00
H24    H     0.17995   0.41162   0.48743   0.00000  Uiso   1.00
H25    H     0.28571   0.45149   0.42615   0.00000  Uiso   1.00
H26    H     0.20779   0.54030   0.48558   0.00000  Uiso   1.00
