# Generated by REPEAT Assigner based on pymatgen
data_DB0-m3_o22_o27_f0_nbo.sym.64
_audit_creation_date              2022-05-24
_audit_creation_method            REPEAT_Assigner
_cell_length_a                    30.108134
_cell_length_b                    30.937487
_cell_length_c                    24.527181
_cell_angle_alpha                 90.000000
_cell_angle_beta                  127.860049
_cell_angle_gamma                 90.000000
_cell_volume                      18037.458930
_symmetry_space_group_name_H-M    P1
_symmetry_Int_Tables_number       1
loop_
    _symmetry_equiv_pos_site_id
    _symmetry_equiv_pos_as_xyz
    1  x,y,z
loop_
    _atom_site_type_symbol
    _atom_site_label
    _atom_site_fract_x
    _atom_site_fract_y
    _atom_site_fract_z
    _atom_type_partial_charge
    O   O1    0.827817  0.766674  0.503609  -0.669039
    O   O2    0.172183  0.766674  0.496391  -0.669009
    O   O3    0.327817  0.266674  0.503609  -0.669002
    O   O4    0.672183  0.266674  0.496391  -0.668985
    O   O5    0.770687  0.818894  0.498370  -0.704082
    O   O6    0.229313  0.818894  0.501631  -0.703865
    O   O7    0.270687  0.318894  0.498370  -0.703925
    O   O8    0.729313  0.318894  0.501631  -0.703837
    C   C1    0.813678  0.807194  0.500511  0.450783
    C   C2    0.186322  0.807194  0.499489  0.450645
    C   C3    0.313678  0.307194  0.500511  0.450681
    C   C4    0.686322  0.307194  0.499489  0.450615
    O   O9    0.727660  0.723561  0.399133  -0.644727
    O   O10   0.272340  0.723561  0.600867  -0.644730
    O   O11   0.227660  0.223561  0.399133  -0.644705
    O   O12   0.772340  0.223561  0.600867  -0.644715
    O   O13   0.670975  0.774182  0.397448  -0.545605
    O   O14   0.329025  0.774182  0.602553  -0.545443
    O   O15   0.170975  0.274182  0.397448  -0.545456
    O   O16   0.829025  0.274182  0.602553  -0.545442
    C   C5    0.683474  0.749066  0.365610  0.540993
    C   C6    0.316526  0.749066  0.634390  0.540894
    C   C7    0.183474  0.249066  0.365610  0.540861
    C   C8    0.816526  0.249066  0.634390  0.540876
    Zn  Zn1   0.786951  0.714058  0.501941  1.305907
    Zn  Zn2   0.213049  0.714058  0.498059  1.305978
    Zn  Zn3   0.286951  0.214058  0.501941  1.305931
    Zn  Zn4   0.713049  0.214058  0.498059  1.305975
    Zn  Zn5   0.715323  0.783144  0.500422  1.296068
    Zn  Zn6   0.284677  0.783144  0.499579  1.295914
    Zn  Zn7   0.215323  0.283144  0.500422  1.295965
    Zn  Zn8   0.784677  0.283144  0.499579  1.295908
    O   O17   0.731427  0.678354  0.503704  -0.666233
    O   O18   0.268573  0.678354  0.496296  -0.666359
    O   O19   0.231427  0.178354  0.503704  -0.666300
    O   O20   0.768573  0.178354  0.496296  -0.666382
    O   O21   0.674386  0.730533  0.498661  -0.684406
    O   O22   0.325614  0.730533  0.501339  -0.684519
    O   O23   0.174386  0.230533  0.498661  -0.684508
    O   O24   0.825614  0.230533  0.501339  -0.684530
    O   O25   0.831432  0.722900  0.605046  -0.670203
    O   O26   0.168569  0.722900  0.394954  -0.670276
    O   O27   0.331432  0.222900  0.605046  -0.670251
    O   O28   0.668569  0.222900  0.394954  -0.670267
    O   O29   0.774495  0.773730  0.603287  -0.666102
    O   O30   0.225505  0.773730  0.396713  -0.666176
    O   O31   0.274495  0.273730  0.603287  -0.666189
    O   O32   0.725505  0.273730  0.396713  -0.666178
    C   C9    0.688258  0.690004  0.501177  0.430090
    C   C10   0.311742  0.690004  0.498824  0.430337
    C   C11   0.188258  0.190004  0.501177  0.430248
    C   C12   0.811742  0.190004  0.498824  0.430355
    C   C13   0.818917  0.748515  0.636458  0.657494
    C   C14   0.181084  0.748515  0.363543  0.657635
    C   C15   0.318917  0.248515  0.636458  0.657627
    C   C16   0.681084  0.248515  0.363543  0.657646
    C   C17   0.610996  0.782051  0.247777  -0.205045
    C   C18   0.389005  0.782051  0.752223  -0.204708
    C   C19   0.110996  0.282051  0.247777  -0.204900
    C   C20   0.889005  0.282051  0.752223  -0.204708
    C   C21   0.575792  0.776723  0.176834  0.085778
    C   C22   0.424208  0.776723  0.823167  0.085338
    C   C23   0.075792  0.276723  0.176834  0.085560
    C   C24   0.924208  0.276723  0.823167  0.085519
    H   H1    0.546321  0.801941  0.144581  0.076838
    H   H2    0.453680  0.801941  0.855419  0.076927
    H   H3    0.046321  0.301941  0.144581  0.076869
    H   H4    0.953680  0.301941  0.855419  0.076836
    C   C25   0.576149  0.739563  0.145672  -0.445291
    C   C26   0.423851  0.739563  0.854328  -0.444950
    C   C27   0.076149  0.239563  0.145672  -0.445113
    C   C28   0.923851  0.239563  0.854328  -0.445378
    C   C29   0.613735  0.706470  0.187292  0.095426
    C   C30   0.386265  0.706470  0.812708  0.095134
    C   C31   0.113735  0.206470  0.187292  0.095306
    C   C32   0.886265  0.206470  0.812708  0.095351
    C   C33   0.647070  0.710989  0.258425  -0.258545
    C   C34   0.352930  0.710989  0.741575  -0.258112
    C   C35   0.147070  0.210989  0.258425  -0.258418
    C   C36   0.852930  0.210989  0.741575  -0.258199
    H   H5    0.674148  0.684835  0.291231  0.163409
    H   H6    0.325853  0.684835  0.708770  0.163320
    H   H7    0.174148  0.184835  0.291231  0.163390
    H   H8    0.825853  0.184835  0.708770  0.163320
    C   C37   0.646070  0.747942  0.289387  0.313467
    C   C38   0.353930  0.747942  0.710613  0.313142
    C   C39   0.146070  0.247942  0.289387  0.313379
    C   C40   0.853930  0.247942  0.710613  0.313200
    N   N1    0.517965  0.700937  0.034110  -0.260726
    N   N2    0.482036  0.700937  0.965890  -0.260745
    N   N3    0.017965  0.200937  0.034110  -0.260712
    N   N4    0.982036  0.200937  0.965890  -0.260832
    C   C41   0.462977  0.738381  0.930700  0.838759
    C   C42   0.537023  0.738381  0.069300  0.838837
    C   C43   0.962977  0.238381  0.930700  0.839071
    C   C44   0.037023  0.238381  0.069300  0.838756
    N   N5    0.481846  0.775808  0.965953  -0.325755
    N   N6    0.518154  0.775808  0.034048  -0.325791
    N   N7    0.981846  0.275808  0.965953  -0.325723
    N   N8    0.018154  0.275808  0.034048  -0.325805
    C   C45   0.905756  0.825467  0.527174  -0.096017
    C   C46   0.094244  0.825467  0.472826  -0.095926
    C   C47   0.405756  0.325467  0.527174  -0.095917
    C   C48   0.594244  0.325467  0.472826  -0.095954
    H   H9    0.904052  0.796136  0.500120  0.030268
    H   H10   0.095948  0.796136  0.499880  0.030255
    H   H11   0.404052  0.296136  0.500120  0.030254
    H   H12   0.595948  0.296136  0.499880  0.030260
    H   H13   0.928823  0.817100  0.582411  0.001735
    H   H14   0.071177  0.817100  0.417589  0.001725
    H   H15   0.428823  0.317100  0.582411  0.001724
    H   H16   0.571177  0.317100  0.417589  0.001741
    C   C49   0.937956  0.860712  0.521731  -0.134268
    C   C50   0.062044  0.860712  0.478269  -0.134293
    C   C51   0.437956  0.360712  0.521731  -0.134332
    C   C52   0.562044  0.360712  0.478269  -0.134278
    H   H17   0.979586  0.865032  0.572739  0.048563
    H   H18   0.020414  0.865032  0.427261  0.048575
    H   H19   0.479586  0.365032  0.572739  0.048568
    H   H20   0.520414  0.365032  0.427261  0.048569
    H   H21   0.944515  0.851241  0.483543  0.018553
    H   H22   0.055485  0.851241  0.516458  0.018545
    H   H23   0.444515  0.351241  0.483543  0.018562
    H   H24   0.555485  0.351241  0.516458  0.018541
    H   H25   0.859142  0.890531  0.389984  0.070529
    H   H26   0.140858  0.890531  0.610016  0.070346
    H   H27   0.359142  0.390531  0.389984  0.070506
    H   H28   0.640858  0.390531  0.610016  0.070335
    C   C53   0.816113  0.860107  0.424964  -0.006242
    C   C54   0.183887  0.860107  0.575036  -0.006532
    C   C55   0.316113  0.360107  0.424964  -0.006269
    C   C56   0.683887  0.360107  0.575036  -0.006571
    C   C57   0.854729  0.878425  0.544468  -0.134028
    C   C58   0.145272  0.878425  0.455532  -0.134109
    C   C59   0.354729  0.378425  0.544468  -0.133998
    C   C60   0.645272  0.378425  0.455532  -0.134117
    C   C61   0.847276  0.841802  0.498225  0.503750
    C   C62   0.152725  0.841802  0.501776  0.503658
    C   C63   0.347276  0.341802  0.498225  0.503599
    C   C64   0.652725  0.341802  0.501776  0.503627
    H   H29   0.813560  0.893341  0.523351  0.015997
    H   H30   0.186441  0.893341  0.476649  0.016000
    H   H31   0.313560  0.393341  0.523351  0.015979
    H   H32   0.686441  0.393341  0.476649  0.016002
    H   H33   0.873857  0.865904  0.596977  0.036321
    H   H34   0.126143  0.865904  0.403023  0.036351
    H   H35   0.373857  0.365904  0.596977  0.036334
    H   H36   0.626143  0.365904  0.403023  0.036358
    C   C65   0.904933  0.902615  0.499240  0.438192
    C   C66   0.095067  0.902615  0.500760  0.437960
    C   C67   0.404933  0.402615  0.499240  0.438265
    C   C68   0.595067  0.402615  0.500760  0.437994
    C   C69   0.850116  0.897045  0.426726  -0.324765
    C   C70   0.149884  0.897045  0.573274  -0.323874
    C   C71   0.350116  0.397045  0.426726  -0.324691
    C   C72   0.649884  0.397045  0.573274  -0.323814
    C   C73   0.892366  0.912924  0.548944  -0.140659
    C   C74   0.107635  0.912924  0.451056  -0.140571
    C   C75   0.392366  0.412924  0.548944  -0.140673
    C   C76   0.607635  0.412924  0.451056  -0.140579
    H   H37   0.931980  0.914234  0.602601  0.031943
    H   H38   0.068020  0.914234  0.397399  0.031943
    H   H39   0.431980  0.414234  0.602601  0.031938
    H   H40   0.568020  0.414234  0.397399  0.031943
    H   H41   0.870648  0.944367  0.535602  0.054068
    H   H42   0.129352  0.944367  0.464398  0.054049
    H   H43   0.370648  0.444367  0.535602  0.054070
    H   H44   0.629352  0.444367  0.464398  0.054051
    H   H45   0.775698  0.873775  0.409042  0.051586
    H   H46   0.224302  0.873775  0.590958  0.051626
    H   H47   0.275698  0.373775  0.409042  0.051594
    H   H48   0.724302  0.373775  0.590958  0.051633
    H   H49   0.824687  0.926923  0.410391  0.066090
    H   H50   0.175313  0.926923  0.589609  0.065802
    H   H51   0.324687  0.426923  0.410391  0.066075
    H   H52   0.675313  0.426923  0.589609  0.065787
    C   C77   0.837530  0.763980  0.747611  -0.184514
    C   C78   0.162470  0.763980  0.252389  -0.184581
    C   C79   0.337530  0.263980  0.747611  -0.184526
    C   C80   0.662470  0.263980  0.252389  -0.184566
    H   H53   0.794693  0.775042  0.720136  0.120381
    H   H54   0.205307  0.775042  0.279864  0.120440
    H   H55   0.294693  0.275042  0.720136  0.120429
    H   H56   0.705307  0.275042  0.279864  0.120440
    C   C81   0.872773  0.763853  0.818849  0.137823
    C   C82   0.127227  0.763853  0.181151  0.137790
    C   C83   0.372773  0.263853  0.818849  0.137711
    C   C84   0.627227  0.263853  0.181151  0.137758
    H   H57   0.856918  0.775349  0.845563  0.039573
    H   H58   0.143082  0.775349  0.154438  0.039559
    H   H59   0.356918  0.275349  0.845563  0.039587
    H   H60   0.643082  0.275349  0.154438  0.039573
    C   C85   0.927863  0.750143  0.855236  -0.546510
    C   C86   0.072138  0.750143  0.144764  -0.546364
    C   C87   0.427863  0.250143  0.855236  -0.546333
    C   C88   0.572138  0.250143  0.144764  -0.546359
    C   C89   0.947074  0.735970  0.819636  0.133341
    C   C90   0.052927  0.735970  0.180364  0.133349
    C   C91   0.447074  0.235970  0.819636  0.133315
    C   C92   0.552927  0.235970  0.180364  0.133317
    H   H61   0.989838  0.724789  0.846938  0.036886
    H   H62   0.010162  0.724789  0.153063  0.036855
    H   H63   0.489838  0.224789  0.846938  0.036885
    H   H64   0.510162  0.224789  0.153063  0.036884
    C   C93   0.911334  0.734854  0.748458  -0.183855
    C   C94   0.088666  0.734854  0.251542  -0.183935
    C   C95   0.411334  0.234854  0.748458  -0.183872
    C   C96   0.588666  0.234854  0.251542  -0.183867
    H   H65   0.927157  0.723401  0.721683  0.132855
    H   H66   0.072843  0.723401  0.278317  0.132905
    H   H67   0.427157  0.223401  0.721683  0.132864
    H   H68   0.572843  0.223401  0.278317  0.132862
    C   C97   0.856514  0.749136  0.712090  0.105636
    C   C98   0.143486  0.749136  0.287910  0.105651
    C   C99   0.356514  0.249136  0.712090  0.105614
    C   C100  0.643486  0.249136  0.287910  0.105615
    N   N9    0.021693  0.750354  0.966022  -0.362365
    N   N10   0.978307  0.750354  0.033978  -0.362049
    N   N11   0.521693  0.250354  0.966022  -0.362247
    N   N12   0.478307  0.250354  0.033978  -0.362241
    N   N13   0.055724  0.750599  0.034292  -0.376857
    N   N14   0.944276  0.750599  0.965708  -0.377180
    N   N15   0.555724  0.250599  0.034292  -0.376938
    N   N16   0.444276  0.250599  0.965708  -0.376924
    C   C101  0.034422  0.750451  0.069060  0.994753
    C   C102  0.965579  0.750451  0.930940  0.995161
    C   C103  0.534422  0.250451  0.069060  0.994878
    C   C104  0.465579  0.250451  0.930940  0.994867
    C   C105  0.594136  0.653142  0.430696  -0.063559
    C   C106  0.405864  0.653142  0.569304  -0.063301
    C   C107  0.094136  0.153142  0.430696  -0.063531
    C   C108  0.905864  0.153142  0.569304  -0.063267
    H   H69   0.568886  0.679651  0.429776  0.038835
    H   H70   0.431114  0.679651  0.570224  0.038799
    H   H71   0.068886  0.179651  0.429776  0.038838
    H   H72   0.931114  0.179651  0.570224  0.038792
    C   C109  0.567207  0.610891  0.427570  -0.321516
    C   C110  0.432793  0.610891  0.572431  -0.321518
    C   C111  0.067207  0.110891  0.427570  -0.321527
    C   C112  0.932793  0.110891  0.572431  -0.321575
    H   H73   0.522195  0.617546  0.402163  0.086567
    H   H74   0.477805  0.617546  0.597837  0.086547
    H   H75   0.022195  0.117546  0.402163  0.086562
    H   H76   0.977805  0.117546  0.597837  0.086563
    H   H77   0.569837  0.587146  0.396039  0.084229
    H   H78   0.430163  0.587146  0.603961  0.084208
    H   H79   0.069837  0.087146  0.396039  0.084218
    H   H80   0.930163  0.087146  0.603961  0.084222
    H   H81   0.682611  0.599995  0.474530  0.025202
    H   H82   0.317389  0.599995  0.525470  0.025143
    H   H83   0.182611  0.099995  0.474530  0.025190
    H   H84   0.817389  0.099995  0.525470  0.025136
    C   C113  0.683440  0.611931  0.517605  -0.111349
    C   C114  0.316560  0.611931  0.482395  -0.111193
    C   C115  0.183440  0.111931  0.517605  -0.111329
    C   C116  0.816560  0.111931  0.482395  -0.111139
    C   C117  0.644521  0.664095  0.554114  -0.096670
    C   C118  0.355479  0.664095  0.445886  -0.096874
    C   C119  0.144521  0.164095  0.554114  -0.096850
    C   C120  0.855479  0.164095  0.445886  -0.096869
    C   C121  0.653069  0.655251  0.500022  0.483466
    C   C122  0.346931  0.655251  0.499979  0.483400
    C   C123  0.153069  0.155251  0.500022  0.483523
    C   C124  0.846931  0.155251  0.499979  0.483398
    H   H85   0.685124  0.660418  0.606511  0.013679
    H   H86   0.314877  0.660418  0.393489  0.013684
    H   H87   0.185124  0.160418  0.606511  0.013682
    H   H88   0.814877  0.160418  0.393489  0.013688
    H   H89   0.628757  0.697386  0.549021  0.037039
    H   H90   0.371243  0.697386  0.450979  0.037134
    H   H91   0.128757  0.197386  0.549021  0.037125
    H   H92   0.871243  0.197386  0.450979  0.037138
    C   C125  0.596035  0.594150  0.500935  0.443993
    C   C126  0.403965  0.594150  0.499066  0.444028
    C   C127  0.096035  0.094150  0.500935  0.444121
    C   C128  0.903965  0.094150  0.499066  0.444025
    C   C129  0.656131  0.579272  0.534417  -0.170118
    C   C130  0.343869  0.579272  0.465583  -0.170270
    C   C131  0.156131  0.079272  0.534417  -0.170212
    C   C132  0.843869  0.079272  0.465583  -0.170308
    C   C133  0.601474  0.632102  0.544274  -0.158913
    C   C134  0.398526  0.632102  0.455726  -0.158657
    C   C135  0.101474  0.132102  0.544274  -0.158764
    C   C136  0.898526  0.132102  0.455726  -0.158756
    H   H93   0.560034  0.648178  0.517727  0.032938
    H   H94   0.439966  0.648178  0.482273  0.032766
    H   H95   0.060034  0.148178  0.517727  0.032828
    H   H96   0.939966  0.148178  0.482273  0.032822
    H   H97   0.615738  0.621100  0.595751  0.058278
    H   H98   0.384262  0.621100  0.404249  0.058239
    H   H99   0.115738  0.121100  0.595751  0.058257
    H   H100  0.884262  0.121100  0.404249  0.058263
    H   H101  0.727898  0.615413  0.564146  0.050762
    H   H102  0.272103  0.615413  0.435855  0.050753
    H   H103  0.227898  0.115413  0.564146  0.050760
    H   H104  0.772103  0.115413  0.435855  0.050745
    H   H105  0.679719  0.579502  0.591202  0.045472
    H   H106  0.320281  0.579502  0.408798  0.045485
    H   H107  0.179719  0.079502  0.591202  0.045480
    H   H108  0.820281  0.079502  0.408798  0.045493
    O   O33   0.075430  0.952712  0.559230  -0.645780
    O   O34   0.924570  0.952712  0.440770  -0.645686
    O   O35   0.575430  0.452712  0.559230  -0.645804
    O   O36   0.424570  0.452712  0.440770  -0.645708
    O   O37   0.017734  0.953295  0.440182  -0.721652
    O   O38   0.982266  0.953295  0.559818  -0.721620
    O   O39   0.517734  0.453295  0.440182  -0.721644
    O   O40   0.482266  0.453295  0.559818  -0.721606
    C   C137  0.061190  0.938381  0.500030  0.517722
    C   C138  0.938811  0.938381  0.499970  0.517623
    C   C139  0.561190  0.438381  0.500030  0.517711
    C   C140  0.438811  0.438381  0.499970  0.517613
    Zn  Zn9   0.538540  0.498709  0.578209  1.328739
    Zn  Zn10  0.461461  0.498709  0.421792  1.328714
    Zn  Zn11  0.038540  0.998709  0.578209  1.328762
    Zn  Zn12  0.961461  0.998709  0.421792  1.328733
    O   O41   0.481790  0.543685  0.559716  -0.647950
    O   O42   0.518210  0.543685  0.440284  -0.647976
    O   O43   0.981790  0.043685  0.559716  -0.647971
    O   O44   0.018210  0.043685  0.440284  -0.648004
    O   O45   0.424690  0.544809  0.440742  -0.727354
    O   O46   0.575310  0.544809  0.559258  -0.727402
    O   O47   0.924690  0.044809  0.440742  -0.727363
    O   O48   0.075310  0.044809  0.559258  -0.727428
    C   C141  0.438617  0.558925  0.499865  0.521951
    C   C142  0.561383  0.558925  0.500135  0.522016
    C   C143  0.938617  0.058925  0.499865  0.521987
    C   C144  0.061383  0.058925  0.500135  0.522003
    C   C145  0.610837  0.825056  0.276478  0.662753
    F   F1    0.665333  0.839778  0.324169  -0.232646
    F   F2    0.584723  0.821151  0.306937  -0.220972
    F   F3    0.582010  0.855700  0.224762  -0.213604
    C   C146  0.389163  0.825056  0.723522  0.662755
    F   F4    0.334667  0.839778  0.675831  -0.232676
    F   F5    0.415277  0.821151  0.693063  -0.220989
    F   F6    0.417991  0.855700  0.775239  -0.213604
    C   C147  0.110837  0.325056  0.276478  0.662800
    F   F7    0.165333  0.339778  0.324169  -0.232692
    F   F8    0.084723  0.321151  0.306937  -0.221000
    F   F9    0.082010  0.355700  0.224762  -0.213603
    C   C148  0.889163  0.325056  0.723522  0.662716
    F   F10   0.834667  0.339778  0.675831  -0.232674
    F   F11   0.915277  0.321151  0.693063  -0.220982
    F   F12   0.917991  0.355700  0.775239  -0.213585
    C   C149  0.590164  0.659530  0.365961  0.637588
    F   F13   0.632330  0.638114  0.370003  -0.214074
    F   F14   0.592875  0.703101  0.356328  -0.249218
    F   F15   0.538710  0.644404  0.309137  -0.232762
    C   C150  0.409836  0.659530  0.634039  0.637336
    F   F16   0.367670  0.638114  0.629997  -0.214006
    F   F17   0.407125  0.703101  0.643672  -0.249180
    F   F18   0.461291  0.644404  0.690863  -0.232725
    C   C151  0.090164  0.159530  0.365961  0.637555
    F   F19   0.132330  0.138114  0.370003  -0.214071
    F   F20   0.092875  0.203101  0.356328  -0.249220
    F   F21   0.038710  0.144404  0.309137  -0.232758
    C   C152  0.909836  0.159530  0.634039  0.637343
    F   F22   0.867670  0.138114  0.629997  -0.214012
    F   F23   0.907125  0.203101  0.643672  -0.249186
    F   F24   0.961291  0.144404  0.690863  -0.232728
    C   C153  0.662597  0.533684  0.516514  0.644018
    F   F25   0.624278  0.525228  0.446742  -0.212947
    F   F26   0.655844  0.504285  0.553130  -0.193105
    F   F27   0.716332  0.528845  0.536324  -0.244920
    C   C154  0.337403  0.533684  0.483486  0.644119
    F   F28   0.375722  0.525228  0.553258  -0.212959
    F   F29   0.344157  0.504285  0.446870  -0.193172
    F   F30   0.283668  0.528845  0.463676  -0.244941
    C   C155  0.162597  0.033684  0.516514  0.644037
    F   F31   0.124278  0.025228  0.446742  -0.212952
    F   F32   0.155844  0.004285  0.553130  -0.193108
    F   F33   0.216332  0.028845  0.536324  -0.244918
    C   C156  0.837403  0.033684  0.483486  0.644138
    F   F34   0.875722  0.025228  0.553258  -0.212963
    F   F35   0.844157  0.004285  0.446870  -0.193170
    F   F36   0.783668  0.028845  0.463676  -0.244950
    C   C157  0.621075  0.666584  0.158379  0.623356
    F   F37   0.574884  0.639815  0.129357  -0.228602
    F   F38   0.668320  0.643743  0.209709  -0.210689
    F   F39   0.627956  0.678024  0.109466  -0.213956
    C   C158  0.378926  0.666584  0.841621  0.623330
    F   F40   0.425117  0.639815  0.870643  -0.228573
    F   F41   0.331680  0.643743  0.790291  -0.210684
    F   F42   0.372044  0.678024  0.890535  -0.213956
    C   C159  0.121075  0.166584  0.158379  0.623383
    F   F43   0.074884  0.139815  0.129357  -0.228598
    F   F44   0.168320  0.143743  0.209709  -0.210694
    F   F45   0.127956  0.178024  0.109466  -0.213964
    C   C160  0.878926  0.166584  0.841621  0.623291
    F   F46   0.925117  0.139815  0.870643  -0.228561
    F   F47   0.831680  0.143743  0.790291  -0.210682
    F   F48   0.872044  0.178024  0.890535  -0.213965
    C   C161  0.801594  0.827785  0.368646  0.644296
    F   F49   0.849280  0.811907  0.379321  -0.228968
    F   F50   0.769291  0.848817  0.305666  -0.247021
    F   F51   0.770529  0.793673  0.365156  -0.260784
    C   C162  0.198406  0.827785  0.631354  0.644309
    F   F52   0.150720  0.811907  0.620679  -0.228977
    F   F53   0.230710  0.848817  0.694334  -0.247027
    F   F54   0.229471  0.793673  0.634845  -0.260743
    C   C163  0.301594  0.327785  0.368646  0.644313
    F   F55   0.349280  0.311907  0.379321  -0.228973
    F   F56   0.269291  0.348817  0.305666  -0.247020
    F   F57   0.270529  0.293673  0.365156  -0.260768
    C   C164  0.698406  0.327785  0.631354  0.644348
    F   F58   0.650720  0.311907  0.620679  -0.228984
    F   F59   0.730710  0.348817  0.694334  -0.247041
    F   F60   0.729471  0.293673  0.634845  -0.260756
