# Generated by REPEAT Assigner based on pymatgen
data_DB0-m2_o27_o28_f0_pcu.sym.57
_audit_creation_date              2022-05-24
_audit_creation_method            REPEAT_Assigner
_cell_length_a                    19.211610
_cell_length_b                    17.804258
_cell_length_c                    23.304553
_cell_angle_alpha                 90.000000
_cell_angle_beta                  90.007116
_cell_angle_gamma                 90.000000
_cell_volume                      7971.286517
_symmetry_space_group_name_H-M    P1
_symmetry_Int_Tables_number       1
loop_
    _symmetry_equiv_pos_site_id
    _symmetry_equiv_pos_as_xyz
    1  x,y,z
loop_
    _atom_site_type_symbol
    _atom_site_label
    _atom_site_fract_x
    _atom_site_fract_y
    _atom_site_fract_z
    _atom_type_partial_charge
    O   O1    0.398245  0.536359  0.494538  -0.515273
    O   O2    0.600089  0.407983  0.506453  -0.521145
    O   O3    0.600229  0.536905  0.502766  -0.473249
    O   O4    0.398008  0.407417  0.498713  -0.515432
    C   C1    0.365526  0.471888  0.495472  0.539920
    C   C2    0.632774  0.472538  0.505635  0.507477
    O   O5    0.506705  0.537220  0.417505  -0.629932
    O   O6    0.491941  0.407335  0.583787  -0.602979
    O   O7    0.496337  0.536418  0.583975  -0.662005
    O   O8    0.501476  0.408048  0.417161  -0.600627
    C   C3    0.506921  0.472656  0.390567  0.752567
    C   C4    0.491229  0.471944  0.610607  0.794071
    Cu  Cu1   0.499004  0.547374  0.500673  0.938038
    Cu  Cu2   0.499427  0.397165  0.500579  0.846889
    C   C5    0.552793  0.487992  0.879334  0.464188
    C   C6    0.446087  0.490351  0.121499  0.473167
    N   N1    0.490593  0.482537  0.853067  -0.123301
    N   N2    0.508190  0.483722  0.147827  -0.132151
    C   C7    0.431136  0.480782  0.883832  0.381525
    C   C8    0.567575  0.480424  0.117002  0.388766
    C   C9    0.432911  0.488037  0.943512  -0.077428
    C   C10   0.565879  0.487439  0.057317  -0.083872
    C   C11   0.497056  0.488504  0.970775  0.076785
    C   C12   0.501755  0.488771  0.030062  0.088947
    C   C13   0.556866  0.488622  0.938414  -0.151102
    C   C14   0.441985  0.490330  0.062434  -0.160492
    C   C15   0.372651  0.492683  0.976862  -0.068395
    C   C16   0.626193  0.490906  0.023989  -0.067304
    C   C17   0.378053  0.493814  0.035789  0.036789
    C   C18   0.620827  0.491546  0.965058  0.035318
    O   O9    0.611137  0.493177  0.847755  -0.495915
    O   O10   0.387838  0.497144  0.153009  -0.496903
    O   O11   0.371024  0.467450  0.856185  -0.438730
    O   O12   0.627423  0.465484  0.144578  -0.440376
    H   H1    0.330888  0.498679  0.060711  0.066516
    H   H2    0.668050  0.495809  0.940129  0.066559
    C   C19   0.551648  0.528548  0.240098  -0.133646
    C   C20   0.448919  0.529439  0.761028  -0.146664
    H   H3    0.583504  0.569193  0.217833  0.132615
    H   H4    0.418839  0.571439  0.783555  0.134788
    C   C21   0.553334  0.525354  0.299371  0.090365
    C   C22   0.447109  0.526505  0.701756  0.107573
    C   C23   0.512366  0.472962  0.327861  -0.166661
    C   C24   0.485747  0.472224  0.673205  -0.189082
    C   C25   0.473711  0.421950  0.296668  -0.063507
    C   C26   0.522410  0.419413  0.704168  -0.051153
    H   H5    0.442008  0.380620  0.318341  0.113303
    H   H6    0.552249  0.376719  0.682199  0.107360
    C   C27   0.473179  0.424768  0.237632  -0.157803
    C   C28   0.523419  0.422256  0.763196  -0.163036
    H   H7    0.442557  0.384398  0.213850  0.134339
    H   H8    0.552764  0.380671  0.786786  0.135148
    C   C29   0.510875  0.479147  0.209047  0.163505
    C   C30   0.487770  0.478152  0.791888  0.166843
    C   C31   0.253182  0.539097  0.494454  -0.246143
    C   C32   0.745411  0.406396  0.510889  -0.211860
    C   C33   0.744971  0.539850  0.501551  -0.235385
    C   C34   0.252896  0.405049  0.495452  -0.229150
    H   H9    0.280352  0.592215  0.494166  0.164650
    H   H10   0.718513  0.353388  0.514857  0.119721
    H   H11   0.717787  0.592737  0.497742  0.165149
    H   H12   0.279941  0.351859  0.495734  0.126579
    C   C35   0.181492  0.539301  0.495352  0.214540
    C   C36   0.817130  0.406609  0.510022  0.190181
    C   C37   0.816707  0.540105  0.500670  0.195901
    C   C38   0.181176  0.405231  0.496411  0.213468
    H   H13   0.154748  0.592638  0.495554  0.007435
    H   H14   0.844269  0.353679  0.513414  -0.014512
    H   H15   0.843409  0.593225  0.496312  0.012766
    H   H16   0.154155  0.352062  0.497243  -0.024041
    C   C39   0.145019  0.472380  0.496560  -0.539608
    C   C40   0.853257  0.473409  0.504636  -0.525748
    C   C41   0.289288  0.471979  0.494640  0.113035
    C   C42   0.708950  0.472956  0.506486  0.115301
    N   N3    0.033391  0.407619  0.501998  -0.332561
    N   N4    0.964919  0.538365  0.499286  -0.335446
    N   N5    0.964661  0.407939  0.504067  -0.337471
    N   N6    0.033668  0.538051  0.497281  -0.329140
    C   C43   0.929582  0.473289  0.502730  0.898349
    C   C44   0.068728  0.472676  0.498545  0.894598
    C   C45   0.545444  0.247345  0.533118  0.046113
    C   C46   0.441888  0.697737  0.484265  -0.221484
    C   C47   0.455496  0.247620  0.465496  0.049107
    C   C48   0.557458  0.697734  0.514494  -0.189837
    H   H17   0.580135  0.278180  0.560999  0.075315
    H   H18   0.395728  0.668004  0.471210  0.151931
    H   H19   0.421073  0.278761  0.437589  0.071462
    H   H20   0.603465  0.668072  0.528189  0.131649
    C   C49   0.546655  0.169805  0.533356  0.168419
    C   C50   0.440979  0.775079  0.482933  0.460303
    C   C51   0.454637  0.170088  0.464621  0.164302
    C   C52   0.559028  0.775185  0.514559  0.450861
    C   C53   0.500348  0.130570  0.499180  -0.595016
    C   C54   0.500007  0.815392  0.498665  -0.763599
    N   N7    0.499095  0.284820  0.500452  -0.098412
    N   N8    0.498991  0.659850  0.501006  0.093916
    N   N9    0.444290  0.010587  0.518097  -0.509379
    N   N10   0.555687  0.936376  0.478911  -0.233608
    N   N11   0.555974  0.010600  0.479420  -0.503185
    N   N12   0.444401  0.936372  0.518164  -0.230658
    C   C55   0.500008  0.898234  0.498492  0.966823
    C   C56   0.500244  0.048432  0.498958  1.215260
    C   C57   0.302909  0.505161  0.952658  0.451447
    O   O13   0.292756  0.560624  0.923080  -0.435828
    C   C58   0.244003  0.455861  0.967375  0.065448
    C   C59   0.176603  0.480247  0.957865  -0.105338
    C   C60   0.120945  0.434636  0.971298  -0.068812
    C   C61   0.132157  0.364226  0.993922  -0.127451
    C   C62   0.199129  0.339212  0.002844  -0.079879
    C   C63   0.254956  0.384647  0.989531  -0.128915
    H   H21   0.166570  0.535430  0.940420  0.105189
    H   H22   0.068392  0.454188  0.964096  0.096922
    H   H23   0.088462  0.328531  0.004419  0.115626
    H   H24   0.207956  0.283703  0.020148  0.102940
    H   H25   0.306924  0.363147  0.996092  0.079438
    C   C64   0.695953  0.503309  0.048222  0.445460
    O   O14   0.706084  0.558611  0.077985  -0.434724
    C   C65   0.754913  0.454144  0.033367  0.071191
    C   C66   0.822306  0.478748  0.042610  -0.108289
    C   C67   0.878002  0.433281  0.028998  -0.067813
    C   C68   0.866838  0.362768  0.006541  -0.125543
    C   C69   0.799880  0.337531  0.997914  -0.082440
    C   C70   0.744020  0.382836  0.011376  -0.129277
    H   H26   0.832264  0.534008  0.059942  0.105619
    H   H27   0.930538  0.453036  0.035930  0.096086
    H   H28   0.910567  0.327165  0.995955  0.114898
    H   H29   0.791085  0.281954  0.980720  0.103687
    H   H30   0.692057  0.361196  0.005063  0.080192
    C   C71   0.593184  0.130505  0.573404  0.225795
    O   O15   0.569236  0.083186  0.605669  -0.388869
    C   C72   0.667335  0.150059  0.577435  0.253023
    C   C73   0.703187  0.136608  0.627815  -0.214216
    C   C74   0.773270  0.152460  0.631483  -0.047374
    C   C75   0.807955  0.181659  0.584829  -0.173486
    C   C76   0.772529  0.194934  0.534455  0.044952
    C   C77   0.702439  0.179211  0.530644  -0.277845
    H   H31   0.676672  0.114272  0.664956  0.143510
    H   H32   0.801051  0.141872  0.670993  0.104575
    H   H33   0.862947  0.193927  0.587671  0.124730
    H   H34   0.799805  0.217401  0.497729  0.101097
    H   H35   0.675998  0.188613  0.490366  0.111285
    C   C78   0.375554  0.810854  0.465336  0.000309
    O   O16   0.322599  0.794714  0.491406  -0.372269
    C   C79   0.370491  0.859447  0.414361  0.386453
    C   C80   0.309443  0.898494  0.404464  -0.186955
    C   C81   0.302689  0.942999  0.356486  -0.028193
    C   C82   0.356926  0.949249  0.318192  -0.205080
    C   C83   0.417897  0.910584  0.327720  0.062153
    C   C84   0.424596  0.865124  0.375274  -0.390060
    H   H36   0.266333  0.894863  0.434112  0.119884
    H   H37   0.254760  0.973238  0.349044  0.097212
    H   H38   0.351634  0.984532  0.280717  0.121479
    H   H39   0.460436  0.915638  0.297653  0.087802
    H   H40   0.472418  0.834119  0.380903  0.145106
    C   C85   0.408884  0.131175  0.423821  0.232483
    O   O17   0.433564  0.084485  0.391388  -0.393467
    C   C86   0.334703  0.150455  0.419087  0.252015
    C   C87   0.299651  0.136310  0.368461  -0.213242
    C   C88   0.229564  0.151689  0.363975  -0.032600
    C   C89   0.193994  0.181176  0.410068  -0.170933
    C   C90   0.228571  0.195166  0.460724  -0.002027
    C   C91   0.298718  0.179989  0.465323  -0.264426
    H   H41   0.326808  0.113701  0.331751  0.140686
    H   H42   0.202483  0.140351  0.324246  0.099370
    H   H43   0.138978  0.193022  0.406555  0.123925
    H   H44   0.200571  0.217603  0.497105  0.125428
    H   H45   0.324449  0.190124  0.505808  0.112778
    C   C92   0.624542  0.811265  0.531982  0.003158
    O   O18   0.677477  0.795249  0.505846  -0.369509
    C   C93   0.629570  0.860508  0.582755  0.381796
    C   C94   0.690669  0.899576  0.592870  -0.183235
    C   C95   0.697436  0.943887  0.641035  -0.028644
    C   C96   0.643105  0.950178  0.679218  -0.208429
    C   C97   0.582067  0.911782  0.669369  0.065013
    C   C98   0.575365  0.866531  0.621680  -0.386090
    H   H46   0.733970  0.895854  0.563410  0.115699
    H   H47   0.745494  0.973793  0.648804  0.098332
    H   H48   0.648315  0.985242  0.716833  0.122182
    H   H49   0.539459  0.916726  0.699381  0.088115
    H   H50   0.527488  0.835728  0.615923  0.143246
    C   C99   0.605133  0.570679  0.330603  0.304828
    O   O19   0.643051  0.539603  0.365234  -0.387435
    C   C100  0.615202  0.651251  0.319179  0.194967
    C   C101  0.677074  0.685265  0.334966  -0.203594
    C   C102  0.687142  0.760879  0.325341  -0.029313
    C   C103  0.635369  0.803150  0.300316  -0.202646
    C   C104  0.573261  0.769881  0.285314  0.046872
    C   C105  0.562901  0.694322  0.294979  -0.249647
    H   H51   0.718544  0.653074  0.354412  0.129037
    H   H52   0.735793  0.787015  0.337371  0.109537
    H   H53   0.643322  0.862434  0.292749  0.122415
    H   H54   0.532404  0.803160  0.266129  0.065416
    H   H55   0.513167  0.669930  0.284069  0.090206
    C   C106  0.397510  0.574566  0.670523  0.302542
    O   O20   0.359226  0.545998  0.634918  -0.386755
    C   C107  0.389670  0.654972  0.683401  0.193237
    C   C108  0.328196  0.690997  0.669388  -0.197211
    C   C109  0.320106  0.766496  0.680556  -0.038548
    C   C110  0.373575  0.806671  0.705198  -0.196688
    C   C111  0.435292  0.771339  0.718484  0.057921
    C   C112  0.443612  0.695841  0.707362  -0.260689
    H   H56   0.285495  0.660352  0.650310  0.128091
    H   H57   0.271650  0.794120  0.670040  0.110321
    H   H58   0.367173  0.865884  0.713914  0.120040
    H   H59   0.477419  0.802879  0.737488  0.058221
    H   H60   0.493000  0.669695  0.716961  0.096308
