# Generated by REPEAT Assigner based on pymatgen
data_DB0-m29_o83_o470_f0_pts.sym.5
_audit_creation_date              2022-05-24
_audit_creation_method            REPEAT_Assigner
_cell_length_a                    15.712106
_cell_length_b                    12.605626
_cell_length_c                    13.060135
_cell_angle_alpha                 80.583300
_cell_angle_beta                  88.183928
_cell_angle_gamma                 107.653494
_cell_volume                      2422.561161
_symmetry_space_group_name_H-M    P1
_symmetry_Int_Tables_number       1
loop_
    _symmetry_equiv_pos_site_id
    _symmetry_equiv_pos_as_xyz
    1  x,y,z
loop_
    _atom_site_type_symbol
    _atom_site_label
    _atom_site_fract_x
    _atom_site_fract_y
    _atom_site_fract_z
    _atom_type_partial_charge
    C   C1   0.286071  0.005109  0.061229  -0.086487
    C   C2   0.274908  0.024016  0.955257  0.008101
    C   C3   0.192204  0.026533  0.923086  -0.172038
    C   C4   0.212897  0.982250  0.131523  -0.152619
    C   C5   0.130789  0.984476  0.098684  0.159142
    C   C6   0.119117  0.009792  0.994218  0.065398
    C   C7   0.034769  0.015331  0.964200  0.065395
    C   C8   0.020377  0.044955  0.860199  -0.166516
    C   C9   0.937597  0.046712  0.831857  -0.188193
    C   C10  0.060487  0.961126  0.172310  -0.187635
    C   C11  0.977740  0.962928  0.144001  -0.161967
    C   C12  0.963219  0.992031  0.039949  0.063786
    C   C13  0.878749  0.997018  0.009886  0.061256
    C   C14  0.867103  0.022546  0.905440  0.175530
    C   C15  0.784790  0.023988  0.872634  -0.181834
    C   C16  0.805423  0.979153  0.080995  -0.175122
    C   C17  0.722444  0.980482  0.048916  -0.002468
    C   C18  0.711369  0.999709  0.942917  -0.057606
    H   H1   0.186647  0.037434  0.840789  0.134044
    H   H2   0.220588  0.966607  0.214024  0.155671
    H   H3   0.071576  0.068604  0.796883  0.150302
    H   H4   0.928699  0.068577  0.750239  0.134864
    H   H5   0.069443  0.939581  0.253953  0.135213
    H   H6   0.926768  0.939874  0.207478  0.149373
    H   H7   0.777022  0.039751  0.790154  0.165900
    H   H8   0.810893  0.967710  0.163270  0.136721
    O   O1   0.584260  0.008988  0.106146  -0.526514
    C   C19  0.650984  0.969964  0.129642  0.567142
    O   O2   0.441622  0.741742  0.280111  -0.552972
    O   O3   0.659044  0.933382  0.227700  -0.525729
    O   O4   0.497448  0.892033  0.361220  -0.604618
    C   C20  0.470373  0.782024  0.363490  0.722614
    Fe  Fe1  0.506794  0.001989  0.231081  1.459048
    O   O5   0.379773  0.956426  0.192614  -0.649827
    O   O6   0.444923  0.097884  0.056036  -0.499689
    C   C21  0.373897  0.016302  0.102068  0.812044
    O   O7   0.563067  0.156278  0.265132  -0.638704
    O   O8   0.424776  0.175888  0.248775  -0.541311
    C   C22  0.506350  0.212396  0.276772  0.683141
    O   O9   0.437499  0.842519  0.741571  -0.650610
    O   O10  0.583444  0.849212  0.732271  -0.573549
    C   C23  0.499480  0.797300  0.720164  0.761973
    O   O11  0.616380  0.049194  0.813385  -0.600903
    O   O12  0.553717  0.901565  0.945630  -0.513405
    C   C24  0.623402  0.986737  0.901991  0.767358
    O   O13  0.339933  0.073640  0.777108  -0.523835
    O   O14  0.497511  0.106103  0.642764  -0.595386
    C   C25  0.530797  0.215926  0.639320  0.692079
    O   O15  0.410554  0.989719  0.898043  -0.530448
    C   C26  0.346062  0.033144  0.874763  0.559090
    O   O16  0.566127  0.255238  0.720555  -0.555595
    Fe  Fe2  0.489765  0.998386  0.774000  1.453113
    C   C27  0.468776  0.709555  0.465995  -0.158917
    C   C28  0.464145  0.761279  0.550202  -0.033366
    C   C29  0.481296  0.718373  0.647553  -0.099108
    C   C30  0.495964  0.614530  0.666968  0.148636
    C   C31  0.495454  0.555780  0.584657  -0.009727
    C   C32  0.484010  0.603982  0.483756  0.209491
    C   C33  0.510503  0.451021  0.602154  -0.145394
    C   C34  0.517736  0.394609  0.521534  0.027052
    C   C35  0.505932  0.443019  0.421977  0.304872
    C   C36  0.490209  0.546179  0.403590  -0.324360
    C   C37  0.533289  0.289217  0.537444  -0.068287
    C   C38  0.538593  0.238969  0.452149  -0.095140
    C   C39  0.521818  0.284492  0.355200  0.072093
    C   C40  0.505045  0.386263  0.339839  -0.269122
    H   H9   0.454053  0.843220  0.539852  0.117163
    H   H10  0.548832  0.157085  0.462129  0.121859
    H   H11  0.489963  0.420407  0.263632  0.161508
    H   H12  0.482465  0.579107  0.324577  0.207526
    H   H13  0.517370  0.412938  0.679378  0.174514
    C   C41  0.512545  0.567325  0.775292  -0.306675
    H   H14  0.508802  0.621686  0.832566  0.110520
    H   H15  0.460595  0.484591  0.804027  0.110786
    H   H16  0.580181  0.556895  0.774783  0.121359
