# generated using pymatgen
data_CuH13C24N2ClO6
_symmetry_space_group_name_H-M   'P 1'
_cell_length_a   23.30982300
_cell_length_b   11.13258200
_cell_length_c   9.64233100
_cell_angle_alpha   111.90153900
_cell_angle_beta   99.57380800
_cell_angle_gamma   90.01577700
_symmetry_Int_Tables_number   1
_chemical_formula_structural   CuH13C24N2ClO6
_chemical_formula_sum   'Cu2 H26 C48 N4 Cl2 O12'
_cell_volume   2283.92890429
_cell_formula_units_Z   2
loop_
 _symmetry_equiv_pos_site_id
 _symmetry_equiv_pos_as_xyz
  1  'x, y, z'
loop_
 _atom_site_type_symbol
 _atom_site_label
 _atom_site_symmetry_multiplicity
 _atom_site_fract_x
 _atom_site_fract_y
 _atom_site_fract_z
 _atom_site_occupancy
  Cu  Cu1  1  0.50558300  0.51324800  0.59477000  1
  Cu  Cu2  1  0.48780400  0.46338200  0.29603500  1
  H  H1  1  0.93722500  0.17056600  0.36674500  1
  H  H2  1  0.05429200  0.79639500  0.48444800  1
  H  H3  1  0.04093700  0.16538800  0.36143600  1
  H  H4  1  0.95079000  0.80072600  0.48627200  1
  H  H5  1  0.22040800  0.62312700  0.64557100  1
  H  H6  1  0.79688200  0.41964600  0.62117800  1
  H  H7  1  0.30289500  0.33354700  0.21303600  1
  H  H8  1  0.66287600  0.55839000  0.26900700  1
  H  H9  1  0.19950500  0.33028400  0.20241700  1
  H  H10  1  0.76740300  0.57009800  0.27068200  1
  H  H11  1  0.49091100  0.85213600  0.30833700  1
  H  H12  1  0.49593500  0.12042500  0.58292300  1
  H  H13  1  0.50569000  0.93947800  0.65293300  1
  H  H14  1  0.48988400  0.04013300  0.23993800  1
  H  H15  1  0.45599400  0.41581500  0.78183600  1
  H  H16  1  0.53973900  0.56027400  0.10183400  1
  H  H17  1  0.55401100  0.60965600  0.89935400  1
  H  H18  1  0.43367700  0.39419600  0.00283000  1
  H  H19  1  0.35794200  0.79775400  0.07627900  1
  H  H20  1  0.41868000  0.95148300  0.03087500  1
  H  H21  1  0.42224000  0.93366900  0.77303200  1
  H  H22  1  0.37022900  0.74793300  0.55430300  1
  H  H23  1  0.70925400  0.43981800  0.01881700  1
  H  H24  1  0.64300200  0.24131400  0.91409300  1
  H  H25  1  0.60125600  0.15048800  0.63755800  1
  H  H26  1  0.63332800  0.24535400  0.47023600  1
  C  C1  1  0.49379700  0.24433600  0.38988900  1
  C  C2  1  0.49985900  0.73222200  0.50128200  1
  C  C3  1  0.38593800  0.48637300  0.43886700  1
  C  C4  1  0.60732700  0.49077400  0.45080600  1
  C  C5  1  0.88017900  0.60188200  0.45720800  1
  C  C6  1  0.11108400  0.36691500  0.39420900  1
  C  C7  1  0.87545000  0.38035000  0.41683300  1
  C  C8  1  0.11571600  0.58877500  0.43905200  1
  C  C9  1  0.93419900  0.37452400  0.40938700  1
  C  C10  1  0.05668700  0.59268200  0.44136100  1
  C  C11  1  0.96596800  0.48509200  0.42724500  1
  C  C12  1  0.02461700  0.48158600  0.42084100  1
  C  C13  1  0.93891100  0.59949200  0.45106000  1
  C  C14  1  0.05187900  0.36770600  0.39686900  1
  C  C15  1  0.96135800  0.25921700  0.38321200  1
  C  C16  1  0.02982900  0.70750600  0.46615300  1
  C  C17  1  0.02020400  0.25602200  0.37856700  1
  C  C18  1  0.97094000  0.71041700  0.46898200  1
  C  C19  1  0.23937700  0.55994500  0.55231400  1
  C  C20  1  0.76735900  0.45563300  0.54797500  1
  C  C21  1  0.29925000  0.56534200  0.55986900  1
  C  C22  1  0.70884200  0.45333100  0.55209200  1
  C  C23  1  0.32284000  0.48569800  0.43698200  1
  C  C24  1  0.67032500  0.49281200  0.45287600  1
  C  C25  1  0.28628300  0.40046500  0.31028400  1
  C  C26  1  0.69199100  0.53240000  0.35038900  1
  C  C27  1  0.22713900  0.39625400  0.30456300  1
  C  C28  1  0.75128300  0.53843100  0.35057000  1
  C  C29  1  0.20328400  0.47727600  0.42430900  1
  C  C30  1  0.78889100  0.49781200  0.44813400  1
  C  C31  1  0.49285800  0.10554700  0.35733300  1
  C  C32  1  0.50051800  0.87201800  0.53608300  1
  C  C33  1  0.49390700  0.05728900  0.46475500  1
  C  C34  1  0.49381900  0.91689400  0.42570000  1
  C  C35  1  0.50442900  0.49125200  0.02331400  1
  C  C36  1  0.49084100  0.48080600  0.86364900  1
  C  C37  1  0.33504800  0.66549500  0.69148400  1
  C  C38  1  0.33070400  0.67899700  0.83729200  1
  C  C39  1  0.36072800  0.78326100  0.96037100  1
  C  C40  1  0.39471100  0.87192800  0.93613500  1
  C  C41  1  0.39758100  0.86039300  0.79050900  1
  C  C42  1  0.36848600  0.75652800  0.66873300  1
  C  C43  1  0.68857900  0.39635100  0.65085200  1
  C  C44  1  0.71069300  0.44820000  0.80489200  1
  C  C45  1  0.69346100  0.39373100  0.89817100  1
  C  C46  1  0.65550300  0.28422800  0.83854200  1
  C  C47  1  0.63268400  0.23344100  0.68556800  1
  C  C48  1  0.64973600  0.28876600  0.59118900  1
  N  N1  1  0.84952200  0.49312900  0.44057600  1
  N  N2  1  0.14189500  0.47691100  0.41668400  1
  N  N3  1  0.47338800  0.42720400  0.07297400  1
  N  N4  1  0.52029500  0.55281700  0.81892500  1
  Cl  Cl1  1  0.28932100  0.56052500  0.86448400  1
  Cl  Cl2  1  0.75901100  0.58616800  0.88497500  1
  O  O1  1  0.50361000  0.32550900  0.53197000  1
  O  O2  1  0.48843500  0.65101300  0.36008200  1
  O  O3  1  0.48580800  0.28092100  0.27391600  1
  O  O4  1  0.50956900  0.69509200  0.61586900  1
  O  O5  1  0.42103800  0.50593700  0.56705800  1
  O  O6  1  0.57241800  0.47408200  0.32202800  1
  O  O7  1  0.40505200  0.46520200  0.31280400  1
  O  O8  1  0.58840000  0.50702000  0.57762700  1
  O  O9  1  0.85355700  0.71338700  0.48412800  1
  O  O10  1  0.13841700  0.25715200  0.37383700  1
  O  O11  1  0.84366000  0.27250800  0.39657000  1
  O  O12  1  0.14715300  0.69648000  0.45674900  1
