# generated using pymatgen
data_FeH10C22NO9
_symmetry_space_group_name_H-M   'P 1'
_cell_length_a   15.68523400
_cell_length_b   9.63043700
_cell_length_c   15.51668500
_cell_angle_alpha   87.37849100
_cell_angle_beta   85.59021300
_cell_angle_gamma   107.87419700
_symmetry_Int_Tables_number   1
_chemical_formula_structural   FeH10C22NO9
_chemical_formula_sum   'Fe2 H20 C44 N2 O18'
_cell_volume   2218.20077187
_cell_formula_units_Z   2
loop_
 _symmetry_equiv_pos_site_id
 _symmetry_equiv_pos_as_xyz
  1  'x, y, z'
loop_
 _atom_site_type_symbol
 _atom_site_label
 _atom_site_symmetry_multiplicity
 _atom_site_fract_x
 _atom_site_fract_y
 _atom_site_fract_z
 _atom_site_occupancy
  Fe  Fe1  1  0.52810700  0.01580300  0.15337400  1
  Fe  Fe2  1  0.52732400  0.99617900  0.77050800  1
  H  H1  1  0.95066700  0.04245600  0.82458500  1
  H  H2  1  0.20149700  0.97953500  0.83140700  1
  H  H3  1  0.05730300  0.98227900  0.86341000  1
  H  H4  1  0.80808100  0.03314600  0.78458100  1
  H  H5  1  0.25204300  0.00538900  0.13924400  1
  H  H6  1  0.10107900  0.01060400  0.17190500  1
  H  H7  1  0.95585000  0.02962600  0.20426000  1
  H  H8  1  0.81431800  0.03719900  0.16245800  1
  H  H9  1  0.36772600  0.65431200  0.50670600  1
  H  H10  1  0.44293200  0.79976000  0.38481800  1
  H  H11  1  0.44115800  0.12815600  0.56638800  1
  H  H12  1  0.36078300  0.18305300  0.46143200  1
  H  H13  1  0.45014500  0.81025400  0.54092200  1
  H  H14  1  0.55062100  0.21135800  0.50575700  1
  H  H15  1  0.44340000  0.11350600  0.40855700  1
  H  H16  1  0.50607500  0.47534900  0.17575900  1
  H  H17  1  0.71080900  0.87062500  0.38514600  1
  H  H18  1  0.65262500  0.69917000  0.42509000  1
  H  H19  1  0.53719200  0.54245800  0.88802500  1
  H  H20  1  0.46182900  0.56934400  0.82362600  1
  C  C1  1  0.89911600  0.02829800  0.87692800  1
  C  C2  1  0.29705500  0.99055400  0.92424300  1
  C  C3  1  0.21348200  0.98502100  0.89897000  1
  C  C4  1  0.14530100  0.99129500  0.95877900  1
  C  C5  1  0.06420200  0.99362000  0.93124300  1
  C  C6  1  0.99561600  0.00733900  0.98959700  1
  C  C7  1  0.81685100  0.02742600  0.85290000  1
  C  C8  1  0.74535900  0.00962900  0.91381900  1
  C  C9  1  0.91312200  0.01494100  0.96378600  1
  C  C10  1  0.84373000  0.01335500  0.02607600  1
  C  C11  1  0.75834000  0.00631100  0.00133400  1
  C  C12  1  0.31079400  0.99762900  0.01175700  1
  C  C13  1  0.24070000  0.99729000  0.07155800  1
  C  C14  1  0.15876100  0.99723200  0.04491400  1
  C  C15  1  0.09069800  0.00594200  0.10389500  1
  C  C16  1  0.00983300  0.01108200  0.07646000  1
  C  C17  1  0.94382300  0.02238300  0.13669900  1
  C  C18  1  0.86170000  0.02330000  0.11222200  1
  C  C19  1  0.68174300  0.99038900  0.06666200  1
  C  C20  1  0.49943300  0.73316200  0.22225400  1
  C  C21  1  0.39949100  0.02075700  0.04304800  1
  C  C22  1  0.48024400  0.21582200  0.25139900  1
  C  C23  1  0.53004700  0.76974800  0.67048700  1
  C  C24  1  0.65710600  0.98880300  0.88218500  1
  C  C25  1  0.52335400  0.25911700  0.70457400  1
  C  C26  1  0.36805900  0.98912800  0.85689700  1
  C  C27  1  0.53049200  0.51667200  0.68040100  1
  C  C28  1  0.50874300  0.62596900  0.63568300  1
  C  C29  1  0.47701900  0.60262900  0.55515300  1
  C  C30  1  0.44103400  0.70719400  0.50875500  1
  C  C31  1  0.48376100  0.74084800  0.41666300  1
  C  C32  1  0.51677500  0.38108700  0.64698300  1
  C  C33  1  0.49109700  0.36208300  0.56284700  1
  C  C34  1  0.47491000  0.47649000  0.51641000  1
  C  C35  1  0.46854400  0.47437200  0.42271600  1
  C  C36  1  0.48026000  0.60376400  0.37249900  1
  C  C37  1  0.49147200  0.60414100  0.28204500  1
  C  C38  1  0.48271500  0.22140600  0.52172200  1
  C  C39  1  0.43355100  0.20784600  0.44106500  1
  C  C40  1  0.46330900  0.34623000  0.38431200  1
  C  C41  1  0.48033400  0.34824500  0.29510900  1
  C  C42  1  0.49482600  0.47701600  0.24521400  1
  C  C43  1  0.57912100  0.83610700  0.41560100  1
  C  C44  1  0.57362300  0.54939800  0.76104500  1
  N  N1  1  0.65092900  0.78559100  0.38278100  1
  N  N2  1  0.53044300  0.60012000  0.83167200  1
  O  O1  1  0.62401500  0.06318000  0.05601000  1
  O  O2  1  0.48901000  0.71453300  0.14001300  1
  O  O3  1  0.66847400  0.89708900  0.13427400  1
  O  O4  1  0.51990600  0.86657400  0.24843200  1
  O  O5  1  0.41057000  0.92955600  0.10347200  1
  O  O6  1  0.46368400  0.14434300  0.02085600  1
  O  O7  1  0.55331200  0.20908100  0.20614800  1
  O  O8  1  0.40631100  0.10398500  0.25630500  1
  O  O9  1  0.47125200  0.80062000  0.72469200  1
  O  O10  1  0.61155500  0.86228400  0.65468200  1
  O  O11  1  0.65320300  0.04907400  0.80557400  1
  O  O12  1  0.58473000  0.89434500  0.92307100  1
  O  O13  1  0.35361000  0.99614400  0.77484600  1
  O  O14  1  0.54180500  0.14584200  0.67410800  1
  O  O15  1  0.44640500  0.98269100  0.87703300  1
  O  O16  1  0.50323200  0.25758600  0.78831400  1
  O  O17  1  0.59570700  0.95854500  0.44120300  1
  O  O18  1  0.64435600  0.52472000  0.76968900  1
