# generated using pymatgen
data_VH9C16NO5
_symmetry_space_group_name_H-M   'P 1'
_cell_length_a   27.26020000
_cell_length_b   6.81800000
_cell_length_c   22.98160300
_cell_angle_alpha   90.00000000
_cell_angle_beta   100.54020500
_cell_angle_gamma   90.00000000
_symmetry_Int_Tables_number   1
_chemical_formula_structural   VH9C16NO5
_chemical_formula_sum   'V4 H36 C64 N4 O20'
_cell_volume   4199.29014808
_cell_formula_units_Z   4
loop_
 _symmetry_equiv_pos_site_id
 _symmetry_equiv_pos_as_xyz
  1  'x, y, z'
loop_
 _atom_site_type_symbol
 _atom_site_label
 _atom_site_symmetry_multiplicity
 _atom_site_fract_x
 _atom_site_fract_y
 _atom_site_fract_z
 _atom_site_occupancy
  V  V1  1  0.24881300  0.17763100  0.24033100  1
  V  V2  1  0.75118700  0.82236700  0.75966900  1
  V  V3  1  0.25118700  0.67763300  0.25966900  1
  V  V4  1  0.74881300  0.32236900  0.74033100  1
  H  H1  1  0.86354700  0.71949600  0.65691300  1
  H  H2  1  0.13645400  0.28050400  0.34308700  1
  H  H3  1  0.63645300  0.21949600  0.84308700  1
  H  H4  1  0.36354700  0.78050500  0.15691300  1
  H  H5  1  0.92711900  0.70560000  0.59459800  1
  H  H6  1  0.07288100  0.29440000  0.40540200  1
  H  H7  1  0.57288100  0.20560000  0.90540200  1
  H  H8  1  0.42711900  0.79440100  0.09459800  1
  H  H9  1  0.91030600  0.32173400  0.56295800  1
  H  H10  1  0.08969400  0.67826600  0.43704200  1
  H  H11  1  0.58969400  0.82173400  0.93704200  1
  H  H12  1  0.41030600  0.17826700  0.06295800  1
  H  H13  1  0.84768400  0.33352100  0.62602600  1
  H  H14  1  0.15231600  0.66647800  0.37397400  1
  H  H15  1  0.65231600  0.83352200  0.87397400  1
  H  H16  1  0.34768400  0.16647900  0.12602600  1
  H  H17  1  0.97437700  0.31750000  0.53476200  1
  H  H18  1  0.02562300  0.68250000  0.46523700  1
  H  H19  1  0.52562300  0.81750000  0.96523700  1
  H  H20  1  0.47437700  0.18250000  0.03476200  1
  H  H21  1  0.03745600  0.30670300  0.47319900  1
  H  H22  1  0.96254400  0.69329800  0.52680100  1
  H  H23  1  0.46254400  0.80670200  0.02680100  1
  H  H24  1  0.53745600  0.19329700  0.97319900  1
  H  H25  1  0.53847500  0.69454400  0.54315500  1
  H  H26  1  0.46152500  0.30545600  0.45684500  1
  H  H27  1  0.96152500  0.19454400  0.95684500  1
  H  H28  1  0.03847500  0.80545600  0.04315500  1
  H  H29  1  0.44670300  0.57036600  0.49924000  1
  H  H30  1  0.42490400  0.66392600  0.43137400  1
  H  H31  1  0.55329700  0.42963500  0.50075900  1
  H  H32  1  0.57509600  0.33607500  0.56862600  1
  H  H33  1  0.05329700  0.07036500  0.00075900  1
  H  H34  1  0.07509600  0.16392500  0.06862600  1
  H  H35  1  0.94670300  0.92963500  0.99924000  1
  H  H36  1  0.92490400  0.83607400  0.93137400  1
  C  C1  1  0.17290300  0.46039100  0.17306300  1
  C  C2  1  0.82709700  0.53960700  0.82693700  1
  C  C3  1  0.32709700  0.96039300  0.32693700  1
  C  C4  1  0.67290300  0.03960800  0.67306300  1
  C  C5  1  0.31323000  0.45966700  0.18473500  1
  C  C6  1  0.68677100  0.54033300  0.81526500  1
  C  C7  1  0.18677100  0.95966800  0.31526500  1
  C  C8  1  0.81323000  0.04033300  0.68473500  1
  C  C9  1  0.87372900  0.85212300  0.63623600  1
  C  C10  1  0.12627100  0.14787600  0.36376400  1
  C  C11  1  0.62627100  0.35212300  0.86376400  1
  C  C12  1  0.37372900  0.64787600  0.13623600  1
  C  C13  1  0.90976900  0.84463200  0.60049400  1
  C  C14  1  0.09023100  0.15536800  0.39950600  1
  C  C15  1  0.59023100  0.34463200  0.89950600  1
  C  C16  1  0.40976900  0.65536800  0.10049400  1
  C  C17  1  0.92410400  0.01280900  0.57379300  1
  C  C18  1  0.07589600  0.98719100  0.42620700  1
  C  C19  1  0.57589700  0.51281000  0.92620700  1
  C  C20  1  0.42410300  0.48719200  0.07379300  1
  C  C21  1  0.90102800  0.18799600  0.58354300  1
  C  C22  1  0.09897300  0.81200400  0.41645700  1
  C  C23  1  0.59897300  0.68799600  0.91645700  1
  C  C24  1  0.40102800  0.31200400  0.08354300  1
  C  C25  1  0.86505400  0.19500600  0.61914900  1
  C  C26  1  0.13494500  0.80499400  0.38085100  1
  C  C27  1  0.63494600  0.69500600  0.88085100  1
  C  C28  1  0.36505500  0.30499400  0.11914900  1
  C  C29  1  0.85111300  0.02771400  0.64599500  1
  C  C30  1  0.14888700  0.97228700  0.35400500  1
  C  C31  1  0.64888700  0.52771500  0.85400500  1
  C  C32  1  0.35111300  0.47228800  0.14599600  1
  C  C33  1  0.98481000  0.17668400  0.51944400  1
  C  C34  1  0.01519000  0.82331700  0.48055500  1
  C  C35  1  0.51519000  0.67668400  0.98055500  1
  C  C36  1  0.48481000  0.32331700  0.01944400  1
  C  C37  1  0.02108400  0.17061600  0.48411700  1
  C  C38  1  0.97891700  0.82938400  0.51588300  1
  C  C39  1  0.47891700  0.67061600  0.01588300  1
  C  C40  1  0.52108400  0.32938400  0.98411700  1
  C  C41  1  0.03688200  0.99384000  0.46412700  1
  C  C42  1  0.96311800  0.00616000  0.53587300  1
  C  C43  1  0.46311800  0.49383900  0.03587300  1
  C  C44  1  0.53688200  0.50616000  0.96412700  1
  C  C45  1  0.47859000  0.82233200  0.48122700  1
  C  C46  1  0.52140900  0.17766800  0.51877300  1
  C  C47  1  0.02140900  0.32233200  0.01877300  1
  C  C48  1  0.97859100  0.67766800  0.98122700  1
  C  C49  1  0.45616900  0.99277700  0.45617500  1
  C  C50  1  0.54383100  0.00722200  0.54382500  1
  C  C51  1  0.04383100  0.49277700  0.04382500  1
  C  C52  1  0.95616900  0.50722300  0.95617500  1
  C  C53  1  0.47818000  0.17031200  0.47555300  1
  C  C54  1  0.52182100  0.82968800  0.52444800  1
  C  C55  1  0.02182100  0.67031200  0.02444700  1
  C  C56  1  0.97818000  0.32968800  0.97555300  1
  C  C57  1  0.41054600  0.98496100  0.41055900  1
  C  C58  1  0.58945500  0.01503900  0.58944100  1
  C  C59  1  0.08945500  0.48496000  0.08944100  1
  C  C60  1  0.91054600  0.51503900  0.91055900  1
  C  C61  1  0.62743600  0.02397200  0.62744400  1
  C  C62  1  0.37256400  0.97602700  0.37255600  1
  C  C63  1  0.87256400  0.52397300  0.87255600  1
  C  C64  1  0.12743600  0.47602700  0.12744400  1
  N  N1  1  0.45719800  0.63727700  0.46252700  1
  N  N2  1  0.54280300  0.36272300  0.53747300  1
  N  N3  1  0.04280300  0.13727700  0.03747300  1
  N  N4  1  0.95719800  0.86272300  0.96252700  1
  O  O1  1  0.29958700  0.62854600  0.20712800  1
  O  O2  1  0.70041200  0.37145200  0.79287200  1
  O  O3  1  0.20041300  0.12854900  0.29287200  1
  O  O4  1  0.79958700  0.87145300  0.70712800  1
  O  O5  1  0.19307700  0.28097900  0.18132200  1
  O  O6  1  0.80692300  0.71902100  0.81867900  1
  O  O7  1  0.30692400  0.78097900  0.31867900  1
  O  O8  1  0.69307700  0.21902000  0.68132200  1
  O  O9  1  0.29407800  0.28106800  0.18942100  1
  O  O10  1  0.70592200  0.71893200  0.81057800  1
  O  O11  1  0.20592200  0.78106800  0.31057800  1
  O  O12  1  0.79407800  0.21893100  0.68942200  1
  O  O13  1  0.30822900  0.12839000  0.30155100  1
  O  O14  1  0.69177100  0.87161000  0.69844900  1
  O  O15  1  0.19177100  0.62839000  0.19844900  1
  O  O16  1  0.80822900  0.37161000  0.80155100  1
  O  O17  1  0.25420900  0.44987800  0.28623100  1
  O  O18  1  0.74579000  0.55012300  0.71376900  1
  O  O19  1  0.24579000  0.94987700  0.21376900  1
  O  O20  1  0.75421000  0.05012300  0.78623100  1
