# generated using pymatgen
data_CuH13C24(NO4)3
_symmetry_space_group_name_H-M   'P 1'
_cell_length_a   15.52561700
_cell_length_b   16.96679000
_cell_length_c   17.42345200
_cell_angle_alpha   90.22153000
_cell_angle_beta   96.39868700
_cell_angle_gamma   83.63712300
_symmetry_Int_Tables_number   1
_chemical_formula_structural   CuH13C24(NO4)3
_chemical_formula_sum   'Cu2 H26 C48 N6 O24'
_cell_volume   4532.82823204
_cell_formula_units_Z   2
loop_
 _symmetry_equiv_pos_site_id
 _symmetry_equiv_pos_as_xyz
  1  'x, y, z'
loop_
 _atom_site_type_symbol
 _atom_site_label
 _atom_site_symmetry_multiplicity
 _atom_site_fract_x
 _atom_site_fract_y
 _atom_site_fract_z
 _atom_site_occupancy
  Cu  Cu1  1  0.58660100  0.49890600  0.50657500  1
  Cu  Cu2  1  0.41333700  0.50267400  0.49312700  1
  H  H1  1  0.35581700  0.53056900  0.25305900  1
  H  H2  1  0.64532600  0.47973000  0.74664800  1
  H  H3  1  0.43434600  0.57429300  0.99591400  1
  H  H4  1  0.56793800  0.42691400  0.00497100  1
  H  H5  1  0.61811600  0.48085800  0.11985800  1
  H  H6  1  0.38363000  0.51414100  0.88154700  1
  H  H7  1  0.61433100  0.73715800  0.47645700  1
  H  H8  1  0.38471100  0.26345400  0.51700100  1
  H  H9  1  0.65835600  0.08972700  0.51988100  1
  H  H10  1  0.34065200  0.90932000  0.48424900  1
  H  H11  1  0.70983600  0.57804300  0.42540900  1
  H  H12  1  0.28933900  0.41910700  0.57057500  1
  H  H13  1  0.86649100  0.57368800  0.42721300  1
  H  H14  1  0.13472600  0.42628700  0.57200800  1
  H  H15  1  0.10240900  0.59793900  0.38788000  1
  H  H16  1  0.89555300  0.40308600  0.61237900  1
  H  H17  1  0.26316000  0.58866000  0.39204600  1
  H  H18  1  0.73759800  0.40970400  0.60491500  1
  H  H19  1  0.26289600  0.61083100  0.66448500  1
  H  H20  1  0.78094100  0.44760600  0.27243300  1
  H  H21  1  0.80947300  0.42701400  0.89260200  1
  H  H22  1  0.19475700  0.58843700  0.10627600  1
  H  H23  1  0.76381300  0.86890200  0.45665200  1
  H  H24  1  0.23335400  0.13319400  0.53105900  1
  H  H25  1  0.75555200  0.29716400  0.44023300  1
  H  H26  1  0.18897500  0.77451300  0.48587500  1
  C  C1  1  0.51495900  0.34761100  0.50389600  1
  C  C2  1  0.48535100  0.65340000  0.49629100  1
  C  C3  1  0.50334000  0.50542100  0.64832100  1
  C  C4  1  0.49631500  0.49636100  0.35164600  1
  C  C5  1  0.50656200  0.50512700  0.73360400  1
  C  C6  1  0.49318800  0.49645300  0.26653900  1
  C  C7  1  0.43275000  0.51680300  0.77297100  1
  C  C8  1  0.56677700  0.47996800  0.22754800  1
  C  C9  1  0.44151100  0.50739500  0.85222000  1
  C  C10  1  0.55961700  0.48979600  0.14845400  1
  C  C11  1  0.52188200  0.48987400  0.89451400  1
  C  C12  1  0.47988500  0.51080400  0.10598900  1
  C  C13  1  0.59595600  0.48029500  0.85590700  1
  C  C14  1  0.40565200  0.52409200  0.14419200  1
  C  C15  1  0.58731600  0.48755200  0.77618900  1
  C  C16  1  0.41347700  0.51806000  0.22385100  1
  C  C17  1  0.52582600  0.47699400  0.97858100  1
  C  C18  1  0.47664400  0.52417500  0.02216600  1
  C  C19  1  0.52122600  0.25974000  0.50838000  1
  C  C20  1  0.47885100  0.74071100  0.49116700  1
  C  C21  1  0.44501700  0.22577100  0.51512900  1
  C  C22  1  0.55414800  0.77452800  0.48075500  1
  C  C23  1  0.44469700  0.14482900  0.52386000  1
  C  C24  1  0.55386600  0.85547300  0.47196900  1
  C  C25  1  0.52248900  0.09581000  0.52412900  1
  C  C26  1  0.47620200  0.90425700  0.47438600  1
  C  C27  1  0.59872900  0.12902800  0.52043000  1
  C  C28  1  0.40050800  0.87077400  0.48124100  1
  C  C29  1  0.59944300  0.20981000  0.51111200  1
  C  C30  1  0.40081000  0.79023400  0.49152000  1
  C  C31  1  0.24794200  0.45977900  0.53131600  1
  C  C32  1  0.75181600  0.53984800  0.46685200  1
  C  C33  1  0.15891000  0.46324100  0.53059700  1
  C  C34  1  0.84128900  0.53623500  0.46772800  1
  C  C35  1  0.10548700  0.51352600  0.47848000  1
  C  C36  1  0.89468500  0.48610500  0.52021900  1
  C  C37  1  0.14364200  0.55863500  0.42879900  1
  C  C38  1  0.85625100  0.44196000  0.57041500  1
  C  C39  1  0.23336100  0.55433900  0.43199800  1
  C  C40  1  0.76694600  0.44649000  0.56712600  1
  C  C41  1  0.34412700  0.53942500  0.73513800  1
  C  C42  1  0.65288800  0.44977600  0.26594200  1
  C  C43  1  0.68454700  0.46546600  0.89687200  1
  C  C44  1  0.31761000  0.54296400  0.10293500  1
  C  C45  1  0.63509000  0.88549700  0.45401600  1
  C  C46  1  0.36232800  0.11518300  0.53852800  1
  C  C47  1  0.68406000  0.23732200  0.50136400  1
  C  C48  1  0.31786400  0.76307900  0.50706900  1
  N  N1  1  0.52645900  0.01220400  0.52424100  1
  N  N2  1  0.47223500  0.98788100  0.47415000  1
  N  N3  1  0.28373600  0.50443600  0.48247500  1
  N  N4  1  0.71624000  0.49664600  0.51717800  1
  N  N5  1  0.01325100  0.51915000  0.47397100  1
  N  N6  1  0.98693400  0.47883400  0.52415300  1
  O  O1  1  0.58528900  0.38406000  0.51241300  1
  O  O2  1  0.41439400  0.61721400  0.48791200  1
  O  O3  1  0.43706900  0.38685000  0.49449300  1
  O  O4  1  0.56364200  0.61440800  0.50570300  1
  O  O5  1  0.57698900  0.50488000  0.61773200  1
  O  O6  1  0.42309400  0.49678300  0.38246000  1
  O  O7  1  0.42869100  0.50210800  0.60597800  1
  O  O8  1  0.57080300  0.49944500  0.39416700  1
  O  O9  1  0.28352800  0.50703100  0.75449700  1
  O  O10  1  0.32726400  0.60294800  0.68345800  1
  O  O11  1  0.66023200  0.39619200  0.31336000  1
  O  O12  1  0.72729200  0.47679100  0.24268300  1
  O  O13  1  0.70039900  0.48689900  0.96333200  1
  O  O14  1  0.75253400  0.43152000  0.85762200  1
  O  O15  1  0.30006200  0.52005100  0.03722700  1
  O  O16  1  0.25160000  0.58205100  0.14136500  1
  O  O17  1  0.63262700  0.94651300  0.41669500  1
  O  O18  1  0.71519900  0.84119200  0.47487700  1
  O  O19  1  0.36262500  0.05497800  0.57665100  1
  O  O20  1  0.28332200  0.15921000  0.51335700  1
  O  O21  1  0.74917900  0.20952900  0.54215600  1
  O  O22  1  0.69255500  0.28674800  0.43983300  1
  O  O23  1  0.31526700  0.71854500  0.56125800  1
  O  O24  1  0.24038600  0.79643200  0.46606300  1
