# generated using pymatgen
data_V4H24C37O21
_symmetry_space_group_name_H-M   'P 1'
_cell_length_a   6.82775600
_cell_length_b   13.90108400
_cell_length_c   16.05784000
_cell_angle_alpha   89.99013100
_cell_angle_beta   90.00600300
_cell_angle_gamma   90.00648000
_symmetry_Int_Tables_number   1
_chemical_formula_structural   V4H24C37O21
_chemical_formula_sum   'V4 H24 C37 O21'
_cell_volume   1524.10109433
_cell_formula_units_Z   1
loop_
 _symmetry_equiv_pos_site_id
 _symmetry_equiv_pos_as_xyz
  1  'x, y, z'
loop_
 _atom_site_type_symbol
 _atom_site_label
 _atom_site_symmetry_multiplicity
 _atom_site_fract_x
 _atom_site_fract_y
 _atom_site_fract_z
 _atom_site_occupancy
  V  V1  1  0.07738000  0.51263200  0.50270400  1
  V  V2  1  0.57736300  0.48965600  0.50264800  1
  V  V3  1  0.68253600  0.98844200  0.00363800  1
  V  V4  1  0.18253200  0.01157400  0.00356300  1
  H  H1  1  0.55730000  0.30231400  0.70015500  1
  H  H2  1  0.57841800  0.18492900  0.81617100  1
  H  H3  1  0.32394400  0.15094400  0.76339600  1
  H  H4  1  0.32818100  0.25348500  0.84149000  1
  H  H5  1  0.30150200  0.26672100  0.64933300  1
  H  H6  1  0.30590200  0.36940200  0.72705900  1
  H  H7  1  0.19931200  0.20930500  0.19191100  1
  H  H8  1  0.56061400  0.29128800  0.31477700  1
  H  H9  1  0.57964200  0.17442600  0.20005300  1
  H  H10  1  0.06032300  0.70957800  0.69182600  1
  H  H11  1  0.07940200  0.82527100  0.80744100  1
  H  H12  1  0.69955500  0.79206000  0.81404300  1
  H  H13  1  0.68047300  0.67636900  0.69843200  1
  H  H14  1  0.06050200  0.70934600  0.31439100  1
  H  H15  1  0.07968600  0.82567000  0.19920300  1
  H  H16  1  0.69948200  0.79102300  0.19147200  1
  H  H17  1  0.68029600  0.67469900  0.30666400  1
  H  H18  1  0.31378900  0.47394600  0.30415800  1
  H  H19  1  0.08444200  0.44816200  0.25257800  1
  H  H20  1  0.48953700  0.37151400  0.20147300  1
  H  H21  1  0.25973300  0.34593900  0.14967200  1
  H  H22  1  0.21288500  0.52037700  0.12268500  1
  H  H23  1  0.44076500  0.47741000  0.07858500  1
  H  H24  1  0.44268700  0.54596000  0.17447600  1
  C  C1  1  0.35835300  0.61695900  0.61952400  1
  C  C2  1  0.35847400  0.61626800  0.38560100  1
  C  C3  1  0.85844900  0.38534900  0.38583900  1
  C  C4  1  0.85787900  0.38601200  0.61975400  1
  C  C5  1  0.04019000  0.28719700  0.72089900  1
  C  C6  1  0.86640000  0.31770600  0.68835900  1
  C  C7  1  0.69787000  0.28017800  0.72355900  1
  C  C8  1  0.70949700  0.21419300  0.78879900  1
  C  C9  1  0.88935100  0.18519400  0.81933600  1
  C  C10  1  0.05158700  0.22447600  0.78276500  1
  C  C11  1  0.26799100  0.22221600  0.78332400  1
  C  C12  1  0.25410300  0.29626800  0.71028600  1
  C  C13  1  0.05895300  0.22728400  0.21887900  1
  C  C14  1  0.04826600  0.29286300  0.28322900  1
  C  C15  1  0.86928800  0.31592700  0.31775100  1
  C  C16  1  0.70098400  0.27330900  0.28781900  1
  C  C17  1  0.71168700  0.20774200  0.22346600  1
  C  C18  1  0.89065000  0.18467200  0.18893900  1
  C  C19  1  0.20081400  0.72769100  0.71862300  1
  C  C20  1  0.21153800  0.79256500  0.78350700  1
  C  C21  1  0.39063800  0.81574900  0.81788100  1
  C  C22  1  0.55906900  0.77397500  0.78722800  1
  C  C23  1  0.54834400  0.70910100  0.72234500  1
  C  C24  1  0.36924300  0.68589900  0.68798400  1
  C  C25  1  0.20082800  0.72729400  0.28736300  1
  C  C26  1  0.21160600  0.79244400  0.22283300  1
  C  C27  1  0.39071600  0.81527700  0.18845000  1
  C  C28  1  0.55914600  0.77304100  0.21847400  1
  C  C29  1  0.54836800  0.70789100  0.28300500  1
  C  C30  1  0.36926100  0.68508400  0.31740600  1
  C  C31  1  0.40151200  0.88427200  0.12039200  1
  C  C32  1  0.40154100  0.88455600  0.88644200  1
  C  C33  1  0.90161100  0.11574200  0.88696500  1
  C  C34  1  0.90143700  0.11538400  0.12074800  1
  C  C35  1  0.23243500  0.41983600  0.26702300  1
  C  C36  1  0.34164500  0.39982800  0.18682400  1
  C  C37  1  0.36077500  0.49206200  0.13733200  1
  O  O1  1  0.52627400  0.58204900  0.41232700  1
  O  O2  1  0.18341200  0.60055800  0.58824000  1
  O  O3  1  0.02594500  0.41986800  0.59274600  1
  O  O4  1  0.18369600  0.60054900  0.41723100  1
  O  O5  1  0.02615400  0.41985000  0.41260100  1
  O  O6  1  0.52597000  0.58275900  0.59247400  1
  O  O7  1  0.35182000  0.44311000  0.50274200  1
  O  O8  1  0.68366000  0.40136700  0.41746600  1
  O  O9  1  0.68326300  0.40213700  0.58846100  1
  O  O10  1  0.85201100  0.55917600  0.50262000  1
  O  O11  1  0.23390800  0.91864300  0.91360000  1
  O  O12  1  0.57629800  0.90011600  0.08881200  1
  O  O13  1  0.73372900  0.08081400  0.09405700  1
  O  O14  1  0.57650200  0.90083800  0.91776500  1
  O  O15  1  0.73394300  0.08160800  0.91395400  1
  O  O16  1  0.23371200  0.91859300  0.09376000  1
  O  O17  1  0.40806300  0.05794600  0.00376900  1
  O  O18  1  0.07661600  0.09944500  0.91797300  1
  O  O19  1  0.07618900  0.09948800  0.08902500  1
  O  O20  1  0.90795600  0.94196600  0.00348600  1
  O  O21  1  0.21509900  0.33502600  0.31277300  1
