# Generated by REPEAT Assigner based on pymatgen
data_DB0-m2_o15_o19_f0_nbo.sym.54
_audit_creation_date              2022-05-24
_audit_creation_method            REPEAT_Assigner
_cell_length_a                    21.526088
_cell_length_b                    21.526089
_cell_length_c                    23.479692
_cell_angle_alpha                 90.000000
_cell_angle_beta                  90.000000
_cell_angle_gamma                 90.000000
_cell_volume                      10879.843344
_symmetry_space_group_name_H-M    P1
_symmetry_Int_Tables_number       1
loop_
    _symmetry_equiv_pos_site_id
    _symmetry_equiv_pos_as_xyz
    1  x,y,z
loop_
    _atom_site_type_symbol
    _atom_site_label
    _atom_site_fract_x
    _atom_site_fract_y
    _atom_site_fract_z
    _atom_type_partial_charge
    O   O1    0.411277  0.051441  0.484794  -0.616279
    O   O2    0.948558  0.411276  0.484794  -0.616242
    O   O3    0.588724  0.948557  0.484794  -0.616243
    O   O4    0.051442  0.588724  0.484794  -0.616242
    O   O5    0.411277  0.948557  0.515211  -0.616292
    O   O6    0.948557  0.588724  0.515211  -0.616290
    O   O7    0.588724  0.051442  0.515210  -0.616337
    O   O8    0.051442  0.411276  0.515211  -0.616313
    O   O9    0.911276  0.551441  0.984794  -0.616261
    O   O10   0.448557  0.911276  0.984794  -0.616299
    O   O11   0.088723  0.448556  0.984794  -0.616293
    O   O12   0.551442  0.088723  0.984794  -0.616262
    O   O13   0.911275  0.448557  0.015211  -0.616280
    O   O14   0.448557  0.088723  0.015211  -0.616281
    O   O15   0.088723  0.551441  0.015211  -0.616258
    O   O16   0.551441  0.911276  0.015211  -0.616267
    C   C1    0.382251  0.999999  0.500002  0.776628
    C   C2    0.000000  0.382250  0.500002  0.776695
    C   C3    0.617750  0.999999  0.500002  0.776662
    C   C4    0.000000  0.617749  0.500002  0.776671
    C   C5    0.882250  0.499999  0.000002  0.776660
    C   C6    0.499999  0.882250  0.000002  0.776727
    C   C7    0.117749  0.499999  0.000002  0.776720
    C   C8    0.499999  0.117749  0.000002  0.776605
    O   O17   0.516558  0.051442  0.418675  -0.520083
    O   O18   0.948557  0.516558  0.418675  -0.520046
    O   O19   0.483442  0.948556  0.418675  -0.520048
    O   O20   0.051443  0.483442  0.418675  -0.520051
    O   O21   0.516558  0.948556  0.581330  -0.520073
    O   O22   0.948557  0.483442  0.581330  -0.520074
    O   O23   0.483442  0.051442  0.581330  -0.520123
    O   O24   0.051443  0.516558  0.581330  -0.520087
    O   O25   0.016557  0.551442  0.918675  -0.520107
    O   O26   0.448556  0.016557  0.918675  -0.520050
    O   O27   0.983441  0.448556  0.918675  -0.520048
    O   O28   0.551442  0.983441  0.918675  -0.520117
    O   O29   0.016557  0.448556  0.081330  -0.520036
    O   O30   0.448556  0.983442  0.081330  -0.520037
    O   O31   0.983441  0.551442  0.081330  -0.520101
    O   O32   0.551442  0.016557  0.081330  -0.520115
    C   C9    0.500000  0.999999  0.392188  0.659890
    C   C10   0.000000  0.500000  0.392188  0.659884
    C   C11   0.500000  0.999999  0.607817  0.660065
    C   C12   0.000000  0.500000  0.607817  0.660091
    C   C13   0.999999  0.499999  0.892188  0.659923
    C   C14   0.499999  0.999999  0.892188  0.659904
    C   C15   0.999999  0.499999  0.107817  0.659990
    C   C16   0.499999  0.999999  0.107817  0.659978
    Cu  Cu1   0.500000  0.060831  0.500002  0.914400
    Cu  Cu2   0.939168  0.500000  0.500002  0.914613
    Cu  Cu3   0.500000  0.939168  0.500003  0.914542
    Cu  Cu4   0.060831  0.500000  0.500003  0.914532
    Cu  Cu5   0.999999  0.560830  0.000002  0.914557
    Cu  Cu6   0.439168  0.999999  0.000002  0.914440
    Cu  Cu7   0.999999  0.439167  0.000002  0.914492
    Cu  Cu8   0.560831  0.999999  0.000002  0.914511
    C   C17   0.500000  0.999999  0.331235  -0.173444
    C   C18   0.000000  0.500000  0.331235  -0.173425
    C   C19   0.500000  0.999999  0.668769  -0.173562
    C   C20   0.000000  0.500000  0.668769  -0.173560
    C   C21   0.999999  0.499999  0.831235  -0.173439
    C   C22   0.499999  0.999999  0.831235  -0.173427
    C   C23   0.000000  0.499999  0.168769  -0.173516
    C   C24   0.499999  0.999999  0.168769  -0.173507
    C   C25   0.500000  0.999999  0.280002  0.039434
    C   C26   0.000000  0.499999  0.280002  0.039421
    C   C27   0.500000  0.999999  0.720003  0.039496
    C   C28   0.999999  0.499999  0.720003  0.039489
    C   C29   0.999999  0.499999  0.780002  0.039419
    C   C30   0.500000  0.999999  0.780002  0.039409
    C   C31   0.000000  0.499999  0.220003  0.039471
    C   C32   0.499999  0.999999  0.220003  0.039461
    C   C33   0.313382  0.939127  0.413521  -0.309333
    C   C34   0.060872  0.313382  0.413521  -0.309331
    C   C35   0.686619  0.060872  0.413521  -0.309323
    C   C36   0.939127  0.686618  0.413522  -0.309319
    C   C37   0.313382  0.060871  0.586484  -0.309232
    C   C38   0.060872  0.686618  0.586483  -0.309184
    C   C39   0.686619  0.939127  0.586483  -0.309190
    C   C40   0.939128  0.313381  0.586483  -0.309171
    C   C41   0.813381  0.439127  0.913521  -0.309305
    C   C42   0.560870  0.813381  0.913521  -0.309705
    C   C43   0.186618  0.560870  0.913521  -0.309690
    C   C44   0.439127  0.186618  0.913521  -0.309300
    C   C45   0.813381  0.560870  0.086484  -0.309301
    C   C46   0.560871  0.186618  0.086484  -0.309298
    C   C47   0.186618  0.439126  0.086483  -0.309132
    C   C48   0.439127  0.813381  0.086484  -0.309129
    C   C49   0.282082  0.905445  0.372604  -0.007284
    C   C50   0.094553  0.282082  0.372604  -0.007284
    C   C51   0.717918  0.094553  0.372604  -0.007278
    C   C52   0.905445  0.717918  0.372605  -0.007291
    C   C53   0.282082  0.094552  0.627401  -0.007648
    C   C54   0.094554  0.717918  0.627400  -0.007623
    C   C55   0.717919  0.905445  0.627400  -0.007611
    C   C56   0.905447  0.282081  0.627401  -0.007650
    C   C57   0.782081  0.405446  0.872604  -0.007281
    C   C58   0.594551  0.782081  0.872604  -0.007194
    C   C59   0.217917  0.594552  0.872604  -0.007202
    C   C60   0.405445  0.217918  0.872605  -0.007294
    C   C61   0.782081  0.594552  0.127401  -0.007581
    C   C62   0.594553  0.217918  0.127401  -0.007605
    C   C63   0.217918  0.405445  0.127401  -0.007677
    C   C64   0.405446  0.782081  0.127401  -0.007694
    C   C65   0.218186  0.898217  0.377294  0.133153
    C   C66   0.101782  0.218186  0.377294  0.133171
    C   C67   0.781814  0.101782  0.377295  0.133164
    C   C68   0.898217  0.781814  0.377295  0.133165
    C   C69   0.218187  0.101782  0.622710  0.133441
    C   C70   0.101783  0.781814  0.622709  0.133432
    C   C71   0.781815  0.898217  0.622710  0.133438
    C   C72   0.898218  0.218186  0.622710  0.133435
    C   C73   0.718185  0.398217  0.877295  0.133157
    C   C74   0.601780  0.718186  0.877294  0.133140
    C   C75   0.281813  0.601781  0.877295  0.133142
    C   C76   0.398217  0.281814  0.877295  0.133151
    C   C77   0.718186  0.601781  0.122711  0.133386
    C   C78   0.601782  0.281813  0.122710  0.133399
    C   C79   0.281813  0.398217  0.122710  0.133446
    C   C80   0.398217  0.718185  0.122711  0.133454
    C   C81   0.187045  0.928487  0.420369  -0.357350
    C   C82   0.071513  0.187045  0.420369  -0.357351
    C   C83   0.812955  0.071512  0.420369  -0.357354
    C   C84   0.928487  0.812955  0.420369  -0.357328
    C   C85   0.187045  0.071512  0.579635  -0.357472
    C   C86   0.071513  0.812955  0.579635  -0.357449
    C   C87   0.812956  0.928487  0.579635  -0.357482
    C   C88   0.928488  0.187044  0.579635  -0.357472
    C   C89   0.687044  0.428487  0.920369  -0.357336
    C   C90   0.571511  0.687044  0.920369  -0.357298
    C   C91   0.312954  0.571511  0.920369  -0.357245
    C   C92   0.428487  0.312955  0.920370  -0.357356
    C   C93   0.687044  0.571511  0.079636  -0.357413
    C   C94   0.571512  0.312955  0.079636  -0.357438
    C   C95   0.312955  0.428487  0.079636  -0.357420
    C   C96   0.428487  0.687044  0.079636  -0.357470
    C   C97   0.217991  0.966031  0.459194  0.196675
    C   C98   0.033969  0.217991  0.459194  0.196666
    C   C99   0.782010  0.033968  0.459194  0.196688
    C   C100  0.966031  0.782009  0.459194  0.196652
    C   C101  0.217991  0.033968  0.540811  0.196749
    C   C102  0.033969  0.782009  0.540811  0.196712
    C   C103  0.782010  0.966031  0.540811  0.196743
    C   C104  0.966032  0.217990  0.540811  0.196751
    C   C105  0.717990  0.466031  0.959194  0.196662
    C   C106  0.533967  0.717990  0.959194  0.196502
    C   C107  0.282009  0.533967  0.959194  0.196494
    C   C108  0.466031  0.282009  0.959194  0.196671
    C   C109  0.717990  0.533968  0.040811  0.196697
    C   C110  0.533968  0.282009  0.040811  0.196699
    C   C111  0.282009  0.466030  0.040811  0.196663
    C   C112  0.466031  0.717990  0.040811  0.196684
    C   C113  0.282025  0.968378  0.457691  0.134143
    C   C114  0.031622  0.282025  0.457691  0.134146
    C   C115  0.717976  0.031621  0.457691  0.134120
    C   C116  0.968378  0.717975  0.457691  0.134136
    C   C117  0.282025  0.031621  0.542314  0.134140
    C   C118  0.031622  0.717975  0.542313  0.134140
    C   C119  0.717976  0.968378  0.542313  0.134130
    C   C120  0.968379  0.282024  0.542313  0.134132
    C   C121  0.782024  0.468378  0.957691  0.134138
    C   C122  0.531620  0.782024  0.957691  0.134510
    C   C123  0.217975  0.531620  0.957691  0.134510
    C   C124  0.468378  0.217975  0.957691  0.134124
    C   C125  0.782024  0.531620  0.042314  0.134231
    C   C126  0.531621  0.217975  0.042314  0.134200
    C   C127  0.217975  0.468377  0.042313  0.134201
    C   C128  0.468378  0.782024  0.042314  0.134179
    C   C129  0.185633  0.999999  0.500002  -0.248642
    C   C130  0.000000  0.185632  0.500002  -0.248623
    C   C131  0.814368  0.000000  0.500002  -0.248637
    C   C132  0.000000  0.814368  0.500002  -0.248599
    C   C133  0.685632  0.499999  0.000003  -0.248595
    C   C134  0.499999  0.685632  0.000002  -0.248600
    C   C135  0.314367  0.499999  0.000002  -0.248548
    C   C136  0.499999  0.314367  0.000003  -0.248644
    C   C137  0.314243  0.999999  0.500002  -0.224962
    C   C138  0.000000  0.314242  0.500002  -0.224977
    C   C139  0.685758  0.999999  0.500002  -0.224960
    C   C140  0.000000  0.685757  0.500002  -0.224955
    C   C141  0.814242  0.499999  0.000003  -0.224997
    C   C142  0.499999  0.814242  0.000002  -0.225185
    C   C143  0.185757  0.499998  0.000002  -0.225149
    C   C144  0.499999  0.185757  0.000002  -0.224989
    H   H1    0.363061  0.942273  0.409479  0.203394
    H   H2    0.057725  0.363060  0.409479  0.203386
    H   H3    0.636940  0.057725  0.409479  0.203383
    H   H4    0.942273  0.636940  0.409479  0.203387
    H   H5    0.363061  0.057724  0.590526  0.203383
    H   H6    0.057726  0.636940  0.590526  0.203333
    H   H7    0.636940  0.942273  0.590526  0.203334
    H   H8    0.942274  0.363060  0.590526  0.203324
    H   H9    0.863059  0.442274  0.909479  0.203371
    H   H10   0.557724  0.863060  0.909478  0.203494
    H   H11   0.136939  0.557724  0.909478  0.203484
    H   H12   0.442274  0.136939  0.909479  0.203369
    H   H13   0.863060  0.557724  0.090527  0.203404
    H   H14   0.557725  0.136939  0.090526  0.203408
    H   H15   0.136939  0.442273  0.090526  0.203312
    H   H16   0.442274  0.863060  0.090526  0.203307
    H   H17   0.137752  0.920696  0.422970  0.201472
    H   H18   0.079304  0.137751  0.422970  0.201469
    H   H19   0.862249  0.079303  0.422970  0.201463
    H   H20   0.920696  0.862249  0.422970  0.201460
    H   H21   0.137752  0.079303  0.577035  0.201460
    H   H22   0.079304  0.862248  0.577034  0.201455
    H   H23   0.862249  0.920696  0.577035  0.201468
    H   H24   0.920697  0.137751  0.577035  0.201460
    H   H25   0.637751  0.420696  0.922970  0.201474
    H   H26   0.579302  0.637751  0.922969  0.201457
    H   H27   0.362248  0.579303  0.922970  0.201425
    H   H28   0.420696  0.362248  0.922970  0.201467
    H   H29   0.637751  0.579303  0.077036  0.201446
    H   H30   0.579303  0.362248  0.077035  0.201445
    H   H31   0.362248  0.420696  0.077035  0.201441
    H   H32   0.420696  0.637751  0.077035  0.201458
    O   O33   0.018125  0.088389  0.546745  -0.477856
    O   O34   0.911611  0.018124  0.546745  -0.477855
    O   O35   0.981876  0.911610  0.546745  -0.477854
    O   O36   0.088390  0.981876  0.546745  -0.477848
    O   O37   0.018125  0.911610  0.453259  -0.477855
    O   O38   0.911611  0.981876  0.453259  -0.477855
    O   O39   0.981876  0.088389  0.453259  -0.477855
    O   O40   0.088390  0.018124  0.453259  -0.477857
    O   O41   0.518123  0.588389  0.046745  -0.477858
    O   O42   0.411610  0.518124  0.046745  -0.477853
    O   O43   0.481875  0.411610  0.046745  -0.477834
    O   O44   0.588389  0.481875  0.046745  -0.477834
    O   O45   0.518124  0.411610  0.953260  -0.477880
    O   O46   0.411610  0.481875  0.953260  -0.477858
    O   O47   0.481875  0.588389  0.953260  -0.477863
    O   O48   0.588389  0.518124  0.953260  -0.477880
    C   C145  0.000000  0.117503  0.500002  0.563131
    C   C146  0.882498  0.000000  0.500002  0.563137
    C   C147  0.000000  0.882497  0.500002  0.563122
    C   C148  0.117503  0.000000  0.500002  0.563138
    C   C149  0.499999  0.617502  0.000002  0.563190
    C   C150  0.382497  0.499999  0.000002  0.563162
    C   C151  0.499999  0.382497  0.000003  0.563168
    C   C152  0.617502  0.499999  0.000003  0.563156
    Cu  Cu9   0.000001  0.000000  0.555486  0.823779
    Cu  Cu10  0.000000  0.000000  0.444519  0.823794
    Cu  Cu11  0.499999  0.500000  0.055486  0.823843
    Cu  Cu12  0.499999  0.499999  0.944519  0.823827
    C   C153  0.319317  0.121826  0.675038  -0.058741
    C   C154  0.334832  0.187954  0.662056  0.042656
    C   C155  0.393674  0.206178  0.657240  -0.407116
    H   H33   0.362801  0.094899  0.680363  0.065835
    H   H34   0.294033  0.118153  0.715939  0.048267
    H   H35   0.297991  0.221662  0.656290  0.060345
    H   H36   0.431566  0.173545  0.662690  0.149658
    H   H37   0.403991  0.254383  0.647861  0.138362
    C   C156  0.878172  0.319316  0.675038  -0.058795
    C   C157  0.812044  0.334829  0.662056  0.042578
    C   C158  0.793820  0.393672  0.657239  -0.406968
    H   H38   0.905099  0.362800  0.680362  0.065857
    H   H39   0.881847  0.294033  0.715939  0.048287
    H   H40   0.778337  0.297988  0.656290  0.060378
    H   H41   0.826452  0.431564  0.662689  0.149625
    H   H42   0.745614  0.403988  0.647860  0.138292
    C   C159  0.680684  0.878170  0.675037  -0.058862
    C   C160  0.665172  0.812042  0.662055  0.042579
    C   C161  0.606330  0.793817  0.657239  -0.406955
    H   H43   0.637200  0.905097  0.680361  0.065870
    H   H44   0.705968  0.881845  0.715938  0.048307
    H   H45   0.702013  0.778335  0.656289  0.060384
    H   H46   0.568437  0.826449  0.662689  0.149617
    H   H47   0.596014  0.745611  0.647860  0.138291
    C   C162  0.121829  0.680683  0.675037  -0.058831
    C   C163  0.187957  0.665170  0.662055  0.042570
    C   C164  0.206181  0.606327  0.657239  -0.406957
    H   H48   0.094902  0.637199  0.680362  0.065862
    H   H49   0.118155  0.705967  0.715938  0.048298
    H   H50   0.221664  0.702011  0.656289  0.060382
    H   H51   0.173549  0.568435  0.662690  0.149627
    H   H52   0.254387  0.596011  0.647860  0.138288
    C   C165  0.319317  0.878171  0.324967  -0.058734
    C   C166  0.334829  0.812042  0.337949  0.042453
    C   C167  0.393671  0.793817  0.342766  -0.406940
    H   H53   0.362801  0.905097  0.319643  0.065796
    H   H54   0.294034  0.881845  0.284066  0.048243
    H   H55   0.297988  0.778335  0.343715  0.060410
    H   H56   0.431564  0.826449  0.337316  0.149624
    H   H57   0.403987  0.745611  0.352145  0.138293
    C   C168  0.878171  0.680683  0.324968  -0.058747
    C   C169  0.812042  0.665171  0.337950  0.042465
    C   C170  0.793817  0.606329  0.342766  -0.406942
    H   H58   0.905097  0.637199  0.319643  0.065799
    H   H59   0.881845  0.705967  0.284066  0.048248
    H   H60   0.778335  0.702012  0.343715  0.060408
    H   H61   0.826449  0.568436  0.337316  0.149626
    H   H62   0.745611  0.596013  0.352145  0.138289
    C   C171  0.680683  0.121828  0.324967  -0.058756
    C   C172  0.665170  0.187956  0.337949  0.042471
    C   C173  0.606328  0.206180  0.342766  -0.406930
    H   H63   0.637199  0.094901  0.319643  0.065798
    H   H64   0.705967  0.118153  0.284066  0.048256
    H   H65   0.702011  0.221663  0.343715  0.060402
    H   H66   0.568435  0.173548  0.337315  0.149625
    H   H67   0.596011  0.254386  0.352144  0.138286
    C   C174  0.121827  0.319317  0.324967  -0.058734
    C   C175  0.187956  0.334831  0.337949  0.042451
    C   C176  0.206180  0.393673  0.342765  -0.406928
    H   H68   0.094900  0.362801  0.319642  0.065797
    H   H69   0.118153  0.294033  0.284065  0.048237
    H   H70   0.221663  0.297989  0.343715  0.060403
    H   H71   0.173548  0.431565  0.337315  0.149628
    H   H72   0.254386  0.403989  0.352144  0.138286
    C   C177  0.819316  0.621826  0.175039  -0.058790
    C   C178  0.834830  0.687954  0.162056  0.042589
    C   C179  0.893672  0.706178  0.157240  -0.406982
    H   H73   0.862800  0.594899  0.180363  0.065847
    H   H74   0.794033  0.618151  0.215940  0.048285
    H   H75   0.797989  0.721662  0.156291  0.060372
    H   H76   0.931565  0.673545  0.162690  0.149623
    H   H77   0.903989  0.754383  0.147862  0.138296
    C   C180  0.378172  0.819316  0.175038  -0.058801
    C   C181  0.312043  0.834829  0.162056  0.042588
    C   C182  0.293819  0.893671  0.157240  -0.406940
    H   H78   0.405098  0.862800  0.180362  0.065859
    H   H79   0.381846  0.794032  0.215939  0.048293
    H   H80   0.278336  0.797988  0.156291  0.060373
    H   H81   0.326451  0.931564  0.162690  0.149610
    H   H82   0.245613  0.903987  0.147861  0.138284
    C   C183  0.180683  0.378170  0.175038  -0.058806
    C   C184  0.165170  0.312042  0.162055  0.042605
    C   C185  0.106328  0.293817  0.157239  -0.406956
    H   H83   0.137198  0.405097  0.180362  0.065854
    H   H84   0.205967  0.381845  0.215939  0.048293
    H   H85   0.202012  0.278335  0.156290  0.060366
    H   H86   0.068436  0.326449  0.162689  0.149611
    H   H87   0.096013  0.245611  0.147861  0.138290
    C   C186  0.621827  0.180683  0.175038  -0.058758
    C   C187  0.687955  0.165169  0.162056  0.042575
    C   C188  0.706179  0.106327  0.157240  -0.406986
    H   H88   0.594900  0.137199  0.180363  0.065842
    H   H89   0.618153  0.205966  0.215939  0.048269
    H   H90   0.721663  0.202010  0.156290  0.060377
    H   H91   0.673547  0.068435  0.162690  0.149633
    H   H92   0.754385  0.096010  0.147861  0.138297
    C   C189  0.819316  0.378172  0.824967  -0.058732
    C   C190  0.834829  0.312043  0.837949  0.042451
    C   C191  0.893671  0.293819  0.842765  -0.406924
    H   H93   0.862800  0.405099  0.819643  0.065791
    H   H94   0.794032  0.381846  0.784066  0.048246
    H   H95   0.797988  0.278336  0.843715  0.060408
    H   H96   0.931564  0.326451  0.837315  0.149619
    H   H97   0.903988  0.245613  0.852144  0.138283
    C   C192  0.378171  0.180683  0.824967  -0.058757
    C   C193  0.312043  0.165169  0.837950  0.042437
    C   C194  0.293818  0.106327  0.842765  -0.406917
    H   H98   0.405098  0.137199  0.819643  0.065796
    H   H99   0.381845  0.205967  0.784066  0.048266
    H   H100  0.278335  0.202011  0.843716  0.060409
    H   H101  0.326451  0.068435  0.837315  0.149621
    H   H102  0.245613  0.096011  0.852144  0.138292
    C   C195  0.180682  0.621825  0.824966  -0.058682
    C   C196  0.165168  0.687953  0.837949  0.042564
    C   C197  0.106325  0.706176  0.842764  -0.407104
    H   H103  0.137199  0.594898  0.819641  0.065791
    H   H104  0.205966  0.618152  0.784065  0.048218
    H   H105  0.202008  0.721661  0.843715  0.060370
    H   H106  0.068433  0.673543  0.837314  0.149671
    H   H107  0.096008  0.754382  0.852143  0.138350
    C   C198  0.621825  0.819316  0.824966  -0.058733
    C   C199  0.687953  0.834831  0.837948  0.042567
    C   C200  0.706177  0.893673  0.842765  -0.407090
    H   H108  0.594898  0.862800  0.819641  0.065799
    H   H109  0.618151  0.794032  0.784065  0.048237
    H   H110  0.721661  0.797990  0.843714  0.060363
    H   H111  0.673544  0.931565  0.837315  0.149662
    H   H112  0.754382  0.903990  0.852143  0.138358
    C   C201  0.179873  0.859339  0.337685  0.015345
    C   C202  0.137423  0.900494  0.304486  -0.058167
    C   C203  0.076000  0.895242  0.309152  -0.475897
    H   H113  0.152379  0.826080  0.363457  0.033288
    H   H114  0.207821  0.831717  0.307501  0.032162
    H   H115  0.156973  0.935281  0.276327  0.104573
    H   H116  0.055321  0.861005  0.337217  0.197907
    H   H117  0.046103  0.925727  0.284716  0.171693
    C   C204  0.140661  0.179874  0.337685  0.015349
    C   C205  0.099506  0.137423  0.304485  -0.058177
    C   C206  0.104758  0.076000  0.309151  -0.475897
    H   H118  0.173919  0.152380  0.363458  0.033283
    H   H119  0.168283  0.207821  0.307501  0.032165
    H   H120  0.064720  0.156974  0.276326  0.104576
    H   H121  0.138995  0.055321  0.337217  0.197903
    H   H122  0.074274  0.046103  0.284716  0.171703
    C   C207  0.820127  0.140661  0.337686  0.015320
    C   C208  0.862577  0.099506  0.304486  -0.058152
    C   C209  0.924000  0.104758  0.309151  -0.475904
    H   H123  0.847621  0.173919  0.363458  0.033294
    H   H124  0.792179  0.168283  0.307502  0.032168
    H   H125  0.843027  0.064720  0.276327  0.104570
    H   H126  0.944679  0.138995  0.337217  0.197900
    H   H127  0.953897  0.074274  0.284716  0.171702
    C   C210  0.859339  0.820127  0.337686  0.015325
    C   C211  0.900494  0.862577  0.304486  -0.058164
    C   C212  0.895242  0.924000  0.309152  -0.475897
    H   H128  0.826080  0.847621  0.363458  0.033292
    H   H129  0.831716  0.792179  0.307502  0.032169
    H   H130  0.935280  0.843027  0.276327  0.104577
    H   H131  0.861005  0.944679  0.337218  0.197901
    H   H132  0.925726  0.953898  0.284717  0.171698
    C   C213  0.179874  0.140660  0.662319  0.015265
    C   C214  0.137423  0.099506  0.695519  -0.058146
    C   C215  0.076000  0.104758  0.690853  -0.475910
    H   H133  0.152380  0.173919  0.636546  0.033293
    H   H134  0.207822  0.168283  0.692503  0.032186
    H   H135  0.156974  0.064720  0.723678  0.104574
    H   H136  0.055322  0.138995  0.662787  0.197910
    H   H137  0.046103  0.074274  0.715289  0.171701
    C   C216  0.140662  0.820127  0.662318  0.015275
    C   C217  0.099508  0.862577  0.695518  -0.058141
    C   C218  0.104760  0.924000  0.690852  -0.475915
    H   H138  0.173920  0.847621  0.636545  0.033293
    H   H139  0.168285  0.792179  0.692502  0.032186
    H   H140  0.064721  0.843026  0.723677  0.104564
    H   H141  0.138996  0.944679  0.662786  0.197917
    H   H142  0.074275  0.953897  0.715288  0.171693
    C   C219  0.820128  0.859338  0.662318  0.015258
    C   C220  0.862579  0.900493  0.695518  -0.058136
    C   C221  0.924001  0.895241  0.690852  -0.475907
    H   H143  0.847622  0.826080  0.636546  0.033299
    H   H144  0.792180  0.831716  0.692503  0.032186
    H   H145  0.843028  0.935279  0.723677  0.104563
    H   H146  0.944680  0.861004  0.662786  0.197912
    H   H147  0.953899  0.925725  0.715287  0.171695
    C   C222  0.859340  0.179873  0.662319  0.015302
    C   C223  0.900494  0.137422  0.695519  -0.058167
    C   C224  0.895242  0.075999  0.690853  -0.475899
    H   H148  0.826081  0.152379  0.636547  0.033285
    H   H149  0.831717  0.207820  0.692503  0.032180
    H   H150  0.935281  0.156973  0.723678  0.104575
    H   H151  0.861006  0.055320  0.662787  0.197912
    H   H152  0.925727  0.046102  0.715288  0.171695
    C   C225  0.679872  0.359339  0.837686  0.015348
    C   C226  0.637422  0.400493  0.804486  -0.058165
    C   C227  0.575999  0.395241  0.809152  -0.475902
    H   H153  0.652378  0.326081  0.863458  0.033283
    H   H154  0.707820  0.331717  0.807501  0.032161
    H   H155  0.656972  0.435280  0.776327  0.104571
    H   H156  0.555320  0.361005  0.837218  0.197912
    H   H157  0.546102  0.425726  0.784716  0.171695
    C   C228  0.640659  0.679873  0.837685  0.015347
    C   C229  0.599505  0.637422  0.804485  -0.058178
    C   C230  0.604757  0.575999  0.809151  -0.475895
    H   H158  0.673918  0.652379  0.863457  0.033285
    H   H159  0.668282  0.707821  0.807501  0.032162
    H   H160  0.564718  0.656973  0.776326  0.104574
    H   H161  0.638993  0.555321  0.837217  0.197915
    H   H162  0.574272  0.546102  0.784715  0.171698
    C   C231  0.320125  0.640660  0.837686  0.015315
    C   C232  0.362576  0.599506  0.804485  -0.058146
    C   C233  0.423999  0.604758  0.809151  -0.475917
    H   H163  0.347619  0.673918  0.863458  0.033296
    H   H164  0.292178  0.668283  0.807502  0.032167
    H   H165  0.343026  0.564719  0.776326  0.104570
    H   H166  0.444678  0.638994  0.837217  0.197914
    H   H167  0.453896  0.574273  0.784716  0.171699
    C   C234  0.359338  0.320126  0.837686  0.015335
    C   C235  0.400492  0.362577  0.804486  -0.058158
    C   C236  0.395241  0.424000  0.809152  -0.475912
    H   H168  0.326080  0.347620  0.863459  0.033296
    H   H169  0.331715  0.292179  0.807502  0.032172
    H   H170  0.435279  0.343026  0.776327  0.104559
    H   H171  0.361004  0.444679  0.837218  0.197915
    H   H172  0.425725  0.453897  0.784716  0.171706
    C   C237  0.679873  0.640659  0.162320  0.015315
    C   C238  0.637422  0.599505  0.195520  -0.058152
    C   C239  0.575999  0.604757  0.190854  -0.475909
    H   H173  0.652379  0.673918  0.136548  0.033275
    H   H174  0.707820  0.668282  0.192504  0.032175
    H   H175  0.656973  0.564718  0.223679  0.104573
    H   H176  0.555321  0.638993  0.162788  0.197911
    H   H177  0.546102  0.574272  0.215290  0.171697
    C   C240  0.640660  0.320126  0.162319  0.015281
    C   C241  0.599506  0.362577  0.195519  -0.058132
    C   C242  0.604758  0.423999  0.190853  -0.475912
    H   H178  0.673919  0.347620  0.136547  0.033290
    H   H179  0.668283  0.292179  0.192503  0.032182
    H   H180  0.564719  0.343026  0.223678  0.104568
    H   H181  0.638994  0.444678  0.162788  0.197917
    H   H182  0.574273  0.453897  0.215289  0.171690
    C   C243  0.320126  0.359339  0.162319  0.015285
    C   C244  0.362577  0.400493  0.195519  -0.058150
    C   C245  0.424000  0.395241  0.190853  -0.475912
    H   H183  0.347620  0.326080  0.136547  0.033284
    H   H184  0.292178  0.331716  0.192504  0.032183
    H   H185  0.343026  0.435280  0.223678  0.104574
    H   H186  0.444679  0.361005  0.162787  0.197914
    H   H187  0.453897  0.425726  0.215289  0.171694
    C   C246  0.359339  0.679873  0.162320  0.015289
    C   C247  0.400494  0.637422  0.195520  -0.058159
    C   C248  0.395242  0.575999  0.190854  -0.475901
    H   H188  0.326081  0.652379  0.136547  0.033281
    H   H189  0.331717  0.707821  0.192504  0.032185
    H   H190  0.435280  0.656973  0.223678  0.104577
    H   H191  0.361005  0.555320  0.162788  0.197910
    H   H192  0.425727  0.546102  0.215289  0.171698
