data_DB0-m29_o96_o470_f0_pts.sym.88_repeat
_audit_creation_date              2024-02-24
_audit_creation_method            'Materials Studio'
_symmetry_space_group_name_H-M    'P1'
_symmetry_Int_Tables_number       1
_symmetry_cell_setting            triclinic
loop_
_symmetry_equiv_pos_as_xyz
  x,y,z
_cell_length_a                    17.3867
_cell_length_b                    12.2751
_cell_length_c                    18.9471
_cell_angle_alpha                 77.9839
_cell_angle_beta                  90.6168
_cell_angle_gamma                 114.6363
loop_
_atom_site_label
_atom_site_type_symbol
_atom_site_fract_x
_atom_site_fract_y
_atom_site_fract_z
_atom_site_U_iso_or_equiv
_atom_site_adp_type
_atom_site_occupancy
C1     C     0.22605   0.01727   0.10229   0.00000  Uiso   1.00
C2     C     0.16946   0.98489   0.16020   0.00000  Uiso   1.00
C3     C     0.09438   0.98038   0.13394   0.00000  Uiso   1.00
N1     N     0.10247   0.00548   0.06081   0.00000  Uiso   1.00
C4     C     0.18320   0.02734   0.04125   0.00000  Uiso   1.00
C5     C     0.02589   0.96081   0.17520   0.00000  Uiso   1.00
C6     C     0.94933   0.97149   0.14766   0.00000  Uiso   1.00
C7     C     0.89410   0.99615   0.18639   0.00000  Uiso   1.00
C8     C     0.83046   0.99633   0.14418   0.00000  Uiso   1.00
C9     C     0.84838   0.97262   0.07924   0.00000  Uiso   1.00
N2     N     0.92047   0.95537   0.08257   0.00000  Uiso   1.00
C10    C     0.79771   0.96875   0.01609   0.00000  Uiso   1.00
C11    C     0.82944   0.98964   0.94797   0.00000  Uiso   1.00
C12    C     0.78672   0.00031   0.88684   0.00000  Uiso   1.00
C13    C     0.84329   0.03251   0.82891   0.00000  Uiso   1.00
C14    C     0.91822   0.03607   0.85522   0.00000  Uiso   1.00
N3     N     0.91004   0.01085   0.92837   0.00000  Uiso   1.00
C15    C     0.98645   0.05403   0.81409   0.00000  Uiso   1.00
C16    C     0.06265   0.04227   0.84197   0.00000  Uiso   1.00
C17    C     0.11716   0.01493   0.80408   0.00000  Uiso   1.00
C18    C     0.18067   0.01492   0.84651   0.00000  Uiso   1.00
C19    C     0.16359   0.04174   0.91054   0.00000  Uiso   1.00
N4     N     0.09201   0.06033   0.90666   0.00000  Uiso   1.00
C20    C     0.21479   0.04757   0.97327   0.00000  Uiso   1.00
H1     H     0.02894   0.94629   0.23315   0.00000  Uiso   1.00
H2     H     0.73369   0.95931   0.02508   0.00000  Uiso   1.00
H3     H     0.98336   0.06787   0.75614   0.00000  Uiso   1.00
H4     H     0.27887   0.05731   0.96422   0.00000  Uiso   1.00
H5     H     0.94617   0.92654   0.04481   0.00000  Uiso   1.00
H6     H     0.06708   0.09127   0.94377   0.00000  Uiso   1.00
C21    C     0.11417   0.98990   0.73656   0.00000  Uiso   1.00
C22    C     0.17926   0.96726   0.71157   0.00000  Uiso   1.00
C23    C     0.24599   0.96928   0.75368   0.00000  Uiso   1.00
C24    C     0.24640   0.99189   0.82290   0.00000  Uiso   1.00
C25    C     0.30889   0.03419   0.11082   0.00000  Uiso   1.00
C26    C     0.33125   0.01192   0.18096   0.00000  Uiso   1.00
C27    C     0.27172   0.97405   0.23978   0.00000  Uiso   1.00
C28    C     0.19042   0.96231   0.22995   0.00000  Uiso   1.00
C29    C     0.89677   0.01885   0.25452   0.00000  Uiso   1.00
C30    C     0.83110   0.03910   0.28052   0.00000  Uiso   1.00
C31    C     0.76405   0.03666   0.23885   0.00000  Uiso   1.00
C32    C     0.76397   0.01658   0.16896   0.00000  Uiso   1.00
C33    C     0.70371   0.98262   0.87824   0.00000  Uiso   1.00
C34    C     0.68105   0.00406   0.80807   0.00000  Uiso   1.00
C35    C     0.74073   0.04268   0.74925   0.00000  Uiso   1.00
C36    C     0.82225   0.05512   0.75914   0.00000  Uiso   1.00
H7     H     0.06326   0.98856   0.70307   0.00000  Uiso   1.00
H8     H     0.29752   0.99428   0.85636   0.00000  Uiso   1.00
H9     H     0.35490   0.06240   0.06518   0.00000  Uiso   1.00
H10    H     0.28910   0.95725   0.29456   0.00000  Uiso   1.00
H11    H     0.14575   0.93496   0.27641   0.00000  Uiso   1.00
H12    H     0.94790   0.02025   0.28773   0.00000  Uiso   1.00
H13    H     0.71266   0.01427   0.13575   0.00000  Uiso   1.00
H14    H     0.65756   0.95328   0.92391   0.00000  Uiso   1.00
H15    H     0.72314   0.05857   0.69448   0.00000  Uiso   1.00
H16    H     0.86696   0.08237   0.71272   0.00000  Uiso   1.00
H17    H     0.17772   0.94948   0.65796   0.00000  Uiso   1.00
H18    H     0.83231   0.05490   0.33460   0.00000  Uiso   1.00
O1     O     0.62424   0.03642   0.23729   0.00000  Uiso   1.00
C37    C     0.69221   0.04822   0.27184   0.00000  Uiso   1.00
O2     O     0.55014   0.79595   0.35137   0.00000  Uiso   1.00
O3     O     0.69210   0.05772   0.33955   0.00000  Uiso   1.00
O4     O     0.49854   0.90825   0.40001   0.00000  Uiso   1.00
C38    C     0.50698   0.80590   0.40410   0.00000  Uiso   1.00
Fe1    Fe    0.53211   0.02302   0.30382   0.00000  Uiso   1.00
O5     O     0.42369   0.95746   0.25608   0.00000  Uiso   1.00
O6     O     0.48309   0.12756   0.16406   0.00000  Uiso   1.00
C39    C     0.41703   0.02809   0.19654   0.00000  Uiso   1.00
O7     O     0.57796   0.19346   0.32185   0.00000  Uiso   1.00
O8     O     0.43947   0.15842   0.31806   0.00000  Uiso   1.00
C40    C     0.51594   0.22399   0.33447   0.00000  Uiso   1.00
C41    C     0.48550   0.71838   0.47476   0.00000  Uiso   1.00
C42    C     0.47903   0.76416   0.53413   0.00000  Uiso   1.00
C43    C     0.48469   0.70643   0.60272   0.00000  Uiso   1.00
C44    C     0.50044   0.60366   0.61193   0.00000  Uiso   1.00
C45    C     0.49837   0.54984   0.55391   0.00000  Uiso   1.00
C46    C     0.48429   0.60129   0.48564   0.00000  Uiso   1.00
C47    C     0.51046   0.44389   0.56541   0.00000  Uiso   1.00
C48    C     0.50834   0.38542   0.50958   0.00000  Uiso   1.00
C49    C     0.49218   0.43526   0.44123   0.00000  Uiso   1.00
C50    C     0.46861   0.53299   0.43195   0.00000  Uiso   1.00
C51    C     0.51916   0.27614   0.52018   0.00000  Uiso   1.00
C52    C     0.53137   0.23559   0.46016   0.00000  Uiso   1.00
C53    C     0.52216   0.29018   0.39185   0.00000  Uiso   1.00
C54    C     0.49871   0.38597   0.38273   0.00000  Uiso   1.00
H19    H     0.47805   0.85304   0.52767   0.00000  Uiso   1.00
H20    H     0.51216   0.56376   0.66507   0.00000  Uiso   1.00
H21    H     0.54139   0.15321   0.46590   0.00000  Uiso   1.00
H22    H     0.48978   0.42475   0.32837   0.00000  Uiso   1.00
H23    H     0.52843   0.41528   0.61791   0.00000  Uiso   1.00
O9     O     0.58454   0.04815   0.73220   0.00000  Uiso   1.00
O10    O     0.52982   0.88354   0.82794   0.00000  Uiso   1.00
C55    C     0.59421   0.98273   0.79276   0.00000  Uiso   1.00
O11    O     0.43067   0.79864   0.67664   0.00000  Uiso   1.00
O12    O     0.57174   0.84982   0.66835   0.00000  Uiso   1.00
C56    C     0.49430   0.77438   0.65963   0.00000  Uiso   1.00
O13    O     0.48706   0.20956   0.65210   0.00000  Uiso   1.00
O14    O     0.38320   0.95916   0.75732   0.00000  Uiso   1.00
C57    C     0.31719   0.95507   0.72148   0.00000  Uiso   1.00
O15    O     0.50074   0.07943   0.59067   0.00000  Uiso   1.00
C58    C     0.50636   0.18922   0.59093   0.00000  Uiso   1.00
O16    O     0.31864   0.94965   0.65310   0.00000  Uiso   1.00
Fe2    Fe    0.47382   0.97223   0.68915   0.00000  Uiso   1.00
C59    C     0.40808   0.54153   0.37491   0.00000  Uiso   1.00
C60    C     0.33319   0.55275   0.40511   0.00000  Uiso   1.00
C61    C     0.27822   0.57255   0.36083   0.00000  Uiso   1.00
H24    H     0.37973   0.45603   0.35470   0.00000  Uiso   1.00
H25    H     0.44029   0.61703   0.32723   0.00000  Uiso   1.00
H26    H     0.32080   0.54043   0.46282   0.00000  Uiso   1.00
H27    H     0.28834   0.58268   0.30302   0.00000  Uiso   1.00
H28    H     0.22302   0.57844   0.38258   0.00000  Uiso   1.00
