data_DB0-m3_o11_o29_f0_pcu.sym.18_repeat
_audit_creation_date              2024-02-23
_audit_creation_method            'Materials Studio'
_symmetry_space_group_name_H-M    'P1'
_symmetry_Int_Tables_number       1
_symmetry_cell_setting            triclinic
loop_
_symmetry_equiv_pos_as_xyz
  x,y,z
_cell_length_a                    27.6280
_cell_length_b                    11.1330
_cell_length_c                    9.9074
_cell_angle_alpha                 89.9974
_cell_angle_beta                  89.9930
_cell_angle_gamma                 89.9936
loop_
_atom_site_label
_atom_site_type_symbol
_atom_site_fract_x
_atom_site_fract_y
_atom_site_fract_z
_atom_site_U_iso_or_equiv
_atom_site_adp_type
_atom_site_occupancy
O1     O     0.50140   0.31073   0.59646   0.00000  Uiso   1.00
O2     O     0.50029   0.31133   0.36395   0.00000  Uiso   1.00
C1     C     0.50035   0.25497   0.48040   0.00000  Uiso   1.00
O3     O     0.43058   0.49287   0.60642   0.00000  Uiso   1.00
O4     O     0.42897   0.49312   0.37394   0.00000  Uiso   1.00
C2     C     0.40710   0.49371   0.49132   0.00000  Uiso   1.00
Zn1    Zn    0.50307   0.48880   0.63730   0.00000  Uiso   1.00
Zn2    Zn    0.50059   0.49100   0.33033   0.00000  Uiso   1.00
O5     O     0.50424   0.66830   0.60395   0.00000  Uiso   1.00
O6     O     0.50234   0.66940   0.37062   0.00000  Uiso   1.00
O7     O     0.57472   0.48593   0.59398   0.00000  Uiso   1.00
O8     O     0.57311   0.48821   0.36098   0.00000  Uiso   1.00
C3     C     0.50350   0.72481   0.48760   0.00000  Uiso   1.00
C4     C     0.59662   0.48551   0.47633   0.00000  Uiso   1.00
C5     C     0.17856   0.38974   0.46831   0.00000  Uiso   1.00
O9     O     0.20394   0.28849   0.44727   0.00000  Uiso   1.00
N1     N     0.20219   0.49285   0.49460   0.00000  Uiso   1.00
C6     C     0.17750   0.59510   0.51745   0.00000  Uiso   1.00
C7     C     0.27868   0.47273   0.37627   0.00000  Uiso   1.00
C8     C     0.32853   0.47385   0.37517   0.00000  Uiso   1.00
C9     C     0.32901   0.51528   0.61176   0.00000  Uiso   1.00
C10    C     0.27904   0.51616   0.61205   0.00000  Uiso   1.00
C11    C     0.25378   0.49415   0.49445   0.00000  Uiso   1.00
C12    C     0.10251   0.49119   0.48630   0.00000  Uiso   1.00
C13    C     0.12851   0.38741   0.46513   0.00000  Uiso   1.00
C14    C     0.10441   0.28202   0.43894   0.00000  Uiso   1.00
C15    C     0.12742   0.59574   0.51235   0.00000  Uiso   1.00
C16    C     0.35402   0.49448   0.49307   0.00000  Uiso   1.00
H1     H     0.34810   0.53206   0.70507   0.00000  Uiso   1.00
H2     H     0.25975   0.53245   0.70521   0.00000  Uiso   1.00
H3     H     0.12382   0.19965   0.41906   0.00000  Uiso   1.00
C17    C     0.64984   0.48325   0.47315   0.00000  Uiso   1.00
C18    C     0.97709   0.38130   0.46601   0.00000  Uiso   1.00
C19    C     0.97635   0.59736   0.48053   0.00000  Uiso   1.00
C20    C     0.95177   0.48894   0.47084   0.00000  Uiso   1.00
C21    C     0.95092   0.27431   0.46702   0.00000  Uiso   1.00
C22    C     0.90124   0.27470   0.46676   0.00000  Uiso   1.00
C23    C     0.87629   0.38143   0.46478   0.00000  Uiso   1.00
C24    C     0.90144   0.48813   0.46641   0.00000  Uiso   1.00
C25    C     0.87568   0.59397   0.46427   0.00000  Uiso   1.00
C26    C     0.82560   0.59181   0.46036   0.00000  Uiso   1.00
N2     N     0.80175   0.48638   0.46109   0.00000  Uiso   1.00
C27    C     0.82622   0.38186   0.46347   0.00000  Uiso   1.00
C28    C     0.72648   0.44374   0.57757   0.00000  Uiso   1.00
C29    C     0.67657   0.44186   0.58257   0.00000  Uiso   1.00
C30    C     0.67388   0.52323   0.35908   0.00000  Uiso   1.00
C31    C     0.72379   0.52502   0.35515   0.00000  Uiso   1.00
C32    C     0.75018   0.48516   0.46441   0.00000  Uiso   1.00
O10    O     0.80164   0.27771   0.46282   0.00000  Uiso   1.00
C33    C     0.02773   0.38290   0.46181   0.00000  Uiso   1.00
C34    C     0.05219   0.49046   0.48113   0.00000  Uiso   1.00
C35    C     0.02677   0.59730   0.49510   0.00000  Uiso   1.00
C36    C     0.05475   0.27943   0.43753   0.00000  Uiso   1.00
H4     H     0.74717   0.41348   0.66373   0.00000  Uiso   1.00
H5     H     0.88251   0.18953   0.46832   0.00000  Uiso   1.00
H6     H     0.96747   0.18710   0.47316   0.00000  Uiso   1.00
H7     H     0.03890   0.19427   0.41190   0.00000  Uiso   1.00
O11    O     0.20186   0.69733   0.54158   0.00000  Uiso   1.00
C37    C     0.10218   0.70039   0.53360   0.00000  Uiso   1.00
H8     H     0.34712   0.45684   0.28114   0.00000  Uiso   1.00
H9     H     0.25911   0.45608   0.28364   0.00000  Uiso   1.00
H10    H     0.12063   0.78337   0.55701   0.00000  Uiso   1.00
C38    C     0.94969   0.70349   0.47424   0.00000  Uiso   1.00
C39    C     0.90008   0.70150   0.46592   0.00000  Uiso   1.00
O12    O     0.80040   0.69505   0.45989   0.00000  Uiso   1.00
C40    C     0.05258   0.70153   0.52485   0.00000  Uiso   1.00
H11    H     0.96593   0.79118   0.47099   0.00000  Uiso   1.00
H12    H     0.65394   0.55583   0.27269   0.00000  Uiso   1.00
H13    H     0.88095   0.78604   0.46139   0.00000  Uiso   1.00
H14    H     0.74215   0.55716   0.26581   0.00000  Uiso   1.00
H15    H     0.03565   0.78623   0.54690   0.00000  Uiso   1.00
C41    C     0.50144   0.92210   0.37739   0.00000  Uiso   1.00
C42    C     0.50434   0.85643   0.49063   0.00000  Uiso   1.00
H16    H     0.49915   0.87680   0.28082   0.00000  Uiso   1.00
H17    H     0.50758   0.89703   0.58910   0.00000  Uiso   1.00
C43    C     0.50172   0.05521   0.37452   0.00000  Uiso   1.00
C44    C     0.49960   0.12350   0.48542   0.00000  Uiso   1.00
H18    H     0.50325   0.09810   0.27644   0.00000  Uiso   1.00
H19    H     0.49719   0.08480   0.58500   0.00000  Uiso   1.00
C45    C     0.52419   0.57028   0.91086   0.00000  Uiso   1.00
N3     N     0.50577   0.48579   0.83903   0.00000  Uiso   1.00
H20    H     0.53915   0.64886   0.86159   0.00000  Uiso   1.00
H21    H     0.49779   0.40683   0.88775   0.00000  Uiso   1.00
C46    C     0.52807   0.56006   0.05945   0.00000  Uiso   1.00
N4     N     0.49862   0.49519   0.12857   0.00000  Uiso   1.00
H22    H     0.55534   0.61258   0.11141   0.00000  Uiso   1.00
H23    H     0.46937   0.45986   0.07842   0.00000  Uiso   1.00
O13    O     0.65432   0.40027   0.69691   0.00000  Uiso   1.00
C47    C     0.65291   0.27537   0.68322   0.00000  Uiso   1.00
H24    H     0.68944   0.23705   0.70046   0.00000  Uiso   1.00
H25    H     0.64004   0.25071   0.58092   0.00000  Uiso   1.00
C48    C     0.61851   0.22366   0.78705   0.00000  Uiso   1.00
H26    H     0.58187   0.26190   0.77187   0.00000  Uiso   1.00
H27    H     0.61700   0.12462   0.77576   0.00000  Uiso   1.00
H28    H     0.63152   0.24651   0.88978   0.00000  Uiso   1.00
