data_DB0-m29_o96_o100_f0_pts.sym.28_repeat
_audit_creation_date              2024-02-23
_audit_creation_method            'Materials Studio'
_symmetry_space_group_name_H-M    'P1'
_symmetry_Int_Tables_number       1
_symmetry_cell_setting            triclinic
loop_
_symmetry_equiv_pos_as_xyz
  x,y,z
_cell_length_a                    17.4855
_cell_length_b                    14.0643
_cell_length_c                    16.7531
_cell_angle_alpha                 91.6202
_cell_angle_beta                  91.0571
_cell_angle_gamma                 100.1185
loop_
_atom_site_label
_atom_site_type_symbol
_atom_site_fract_x
_atom_site_fract_y
_atom_site_fract_z
_atom_site_U_iso_or_equiv
_atom_site_adp_type
_atom_site_occupancy
C1     C     0.21741   0.04295   0.13100   0.00000  Uiso   1.00
C2     C     0.17663   0.09507   0.17824   0.00000  Uiso   1.00
C3     C     0.10301   0.08588   0.14469   0.00000  Uiso   1.00
N1     N     0.09813   0.03177   0.07634   0.00000  Uiso   1.00
C4     C     0.16853   0.00599   0.06750   0.00000  Uiso   1.00
C5     C     0.04392   0.11988   0.17760   0.00000  Uiso   1.00
C6     C     0.96316   0.09555   0.14742   0.00000  Uiso   1.00
C7     C     0.89929   0.08574   0.19536   0.00000  Uiso   1.00
C8     C     0.83516   0.06290   0.14712   0.00000  Uiso   1.00
C9     C     0.86069   0.05888   0.06973   0.00000  Uiso   1.00
N2     N     0.93935   0.07960   0.07024   0.00000  Uiso   1.00
C10    C     0.80951   0.03416   0.99869   0.00000  Uiso   1.00
C11    C     0.82979   0.98641   0.93479   0.00000  Uiso   1.00
C12    C     0.78092   0.94948   0.87127   0.00000  Uiso   1.00
C13    C     0.82169   0.89736   0.82404   0.00000  Uiso   1.00
C14    C     0.89531   0.90651   0.85760   0.00000  Uiso   1.00
N3     N     0.90018   0.96061   0.92596   0.00000  Uiso   1.00
C15    C     0.95439   0.87250   0.82470   0.00000  Uiso   1.00
C16    C     0.03515   0.89681   0.85488   0.00000  Uiso   1.00
C17    C     0.09902   0.90662   0.80694   0.00000  Uiso   1.00
C18    C     0.16315   0.92946   0.85518   0.00000  Uiso   1.00
C19    C     0.13762   0.93348   0.93257   0.00000  Uiso   1.00
N4     N     0.05896   0.91276   0.93206   0.00000  Uiso   1.00
C20    C     0.18880   0.95823   0.00361   0.00000  Uiso   1.00
H1     H     0.05359   0.15819   0.23474   0.00000  Uiso   1.00
H2     H     0.75014   0.04582   0.00258   0.00000  Uiso   1.00
H3     H     0.94473   0.83420   0.76755   0.00000  Uiso   1.00
H4     H     0.24817   0.94659   0.99971   0.00000  Uiso   1.00
H5     H     0.97487   0.08682   0.02075   0.00000  Uiso   1.00
H6     H     0.02344   0.90556   0.98155   0.00000  Uiso   1.00
C21    C     0.10395   0.90050   0.72540   0.00000  Uiso   1.00
C22    C     0.17703   0.91827   0.69313   0.00000  Uiso   1.00
C23    C     0.24346   0.94166   0.74208   0.00000  Uiso   1.00
C24    C     0.23677   0.94738   0.82460   0.00000  Uiso   1.00
C25    C     0.29297   0.03440   0.15024   0.00000  Uiso   1.00
C26    C     0.32707   0.08428   0.21814   0.00000  Uiso   1.00
C27    C     0.28576   0.14049   0.26439   0.00000  Uiso   1.00
C28    C     0.20935   0.14497   0.24565   0.00000  Uiso   1.00
C29    C     0.89436   0.09186   0.27691   0.00000  Uiso   1.00
C30    C     0.82128   0.07411   0.30917   0.00000  Uiso   1.00
C31    C     0.75485   0.05073   0.26022   0.00000  Uiso   1.00
C32    C     0.76154   0.04500   0.17770   0.00000  Uiso   1.00
C33    C     0.70537   0.95807   0.85201   0.00000  Uiso   1.00
C34    C     0.67128   0.90823   0.78408   0.00000  Uiso   1.00
C35    C     0.71259   0.85203   0.73783   0.00000  Uiso   1.00
C36    C     0.78899   0.84751   0.75660   0.00000  Uiso   1.00
H7     H     0.05282   0.88356   0.68692   0.00000  Uiso   1.00
H8     H     0.28745   0.96645   0.86346   0.00000  Uiso   1.00
H9     H     0.32528   0.99150   0.11384   0.00000  Uiso   1.00
H10    H     0.31262   0.17891   0.31736   0.00000  Uiso   1.00
H11    H     0.17766   0.18751   0.28306   0.00000  Uiso   1.00
H12    H     0.94549   0.10879   0.31538   0.00000  Uiso   1.00
H13    H     0.71086   0.02595   0.13884   0.00000  Uiso   1.00
H14    H     0.67306   0.00098   0.88840   0.00000  Uiso   1.00
H15    H     0.68575   0.81364   0.68484   0.00000  Uiso   1.00
H16    H     0.82069   0.80497   0.71919   0.00000  Uiso   1.00
H17    H     0.18151   0.91358   0.62896   0.00000  Uiso   1.00
H18    H     0.81680   0.07881   0.37334   0.00000  Uiso   1.00
O1     O     0.61410   0.02008   0.25314   0.00000  Uiso   1.00
C37    C     0.67841   0.03333   0.29704   0.00000  Uiso   1.00
O2     O     0.57207   0.82917   0.32060   0.00000  Uiso   1.00
O3     O     0.67406   0.03325   0.37513   0.00000  Uiso   1.00
O4     O     0.49529   0.90611   0.39806   0.00000  Uiso   1.00
C38    C     0.52971   0.83159   0.38419   0.00000  Uiso   1.00
Fe1    Fe    0.52367   0.01262   0.32343   0.00000  Uiso   1.00
O5     O     0.42822   0.99508   0.25239   0.00000  Uiso   1.00
O6     O     0.45027   0.15767   0.27378   0.00000  Uiso   1.00
C39    C     0.40646   0.07919   0.24375   0.00000  Uiso   1.00
O7     O     0.55381   0.13454   0.39037   0.00000  Uiso   1.00
O8     O     0.44140   0.07357   0.45081   0.00000  Uiso   1.00
C40    C     0.50243   0.14210   0.44538   0.00000  Uiso   1.00
C41    C     0.47917   0.54481   0.79994   0.00000  Uiso   1.00
C42    C     0.48113   0.24415   0.56503   0.00000  Uiso   1.00
C43    C     0.40097   0.53310   0.81549   0.00000  Uiso   1.00
C44    C     0.34683   0.51223   0.75374   0.00000  Uiso   1.00
C45    C     0.50327   0.53563   0.72265   0.00000  Uiso   1.00
C46    C     0.44913   0.51474   0.66077   0.00000  Uiso   1.00
C47    C     0.37086   0.50306   0.67642   0.00000  Uiso   1.00
C48    C     0.47217   0.33396   0.59521   0.00000  Uiso   1.00
C49    C     0.48563   0.41542   0.54851   0.00000  Uiso   1.00
C50    C     0.47474   0.50510   0.57863   0.00000  Uiso   1.00
C51    C     0.48799   0.58567   0.53099   0.00000  Uiso   1.00
C52    C     0.47844   0.67571   0.56085   0.00000  Uiso   1.00
C53    C     0.49460   0.75688   0.51562   0.00000  Uiso   1.00
C54    C     0.50363   0.23565   0.48652   0.00000  Uiso   1.00
C55    C     0.51973   0.31682   0.44127   0.00000  Uiso   1.00
C56    C     0.51011   0.40684   0.47111   0.00000  Uiso   1.00
C57    C     0.52327   0.48738   0.42344   0.00000  Uiso   1.00
C58    C     0.51245   0.57709   0.45358   0.00000  Uiso   1.00
C59    C     0.52593   0.65854   0.40688   0.00000  Uiso   1.00
C60    C     0.49418   0.45643   0.27959   0.00000  Uiso   1.00
C61    C     0.54857   0.47767   0.34119   0.00000  Uiso   1.00
C62    C     0.62672   0.48954   0.32519   0.00000  Uiso   1.00
C63    C     0.51773   0.44707   0.20208   0.00000  Uiso   1.00
C64    C     0.59608   0.45897   0.18618   0.00000  Uiso   1.00
C65    C     0.51705   0.74838   0.43709   0.00000  Uiso   1.00
C66    C     0.65038   0.48019   0.24777   0.00000  Uiso   1.00
H19    H     0.52159   0.56120   0.84836   0.00000  Uiso   1.00
H20    H     0.38210   0.54029   0.87610   0.00000  Uiso   1.00
H21    H     0.28553   0.50307   0.76596   0.00000  Uiso   1.00
H22    H     0.56458   0.54487   0.71046   0.00000  Uiso   1.00
H23    H     0.32842   0.48673   0.62802   0.00000  Uiso   1.00
H24    H     0.45493   0.33866   0.65643   0.00000  Uiso   1.00
H25    H     0.46223   0.68611   0.62180   0.00000  Uiso   1.00
H26    H     0.53598   0.30642   0.38033   0.00000  Uiso   1.00
H27    H     0.54313   0.65383   0.34566   0.00000  Uiso   1.00
H28    H     0.43296   0.44699   0.29223   0.00000  Uiso   1.00
H29    H     0.66938   0.50613   0.37337   0.00000  Uiso   1.00
H30    H     0.61571   0.45186   0.12584   0.00000  Uiso   1.00
H31    H     0.71163   0.48949   0.23530   0.00000  Uiso   1.00
O9     O     0.57015   0.99748   0.74985   0.00000  Uiso   1.00
O10    O     0.54810   0.83491   0.72835   0.00000  Uiso   1.00
C67    C     0.59190   0.91336   0.75844   0.00000  Uiso   1.00
O11    O     0.44449   0.85802   0.61181   0.00000  Uiso   1.00
O12    O     0.55690   0.91894   0.55135   0.00000  Uiso   1.00
C68    C     0.49586   0.85044   0.55679   0.00000  Uiso   1.00
O13    O     0.42608   0.16331   0.68148   0.00000  Uiso   1.00
O14    O     0.38421   0.97240   0.74915   0.00000  Uiso   1.00
C69    C     0.31989   0.95912   0.70526   0.00000  Uiso   1.00
O15    O     0.50306   0.08651   0.60415   0.00000  Uiso   1.00
C70    C     0.46853   0.16095   0.61795   0.00000  Uiso   1.00
O16    O     0.32423   0.95925   0.62717   0.00000  Uiso   1.00
Fe2    Fe    0.47466   0.98000   0.67877   0.00000  Uiso   1.00
N5     N     0.46086   0.42508   0.13912   0.00000  Uiso   1.00
H32    H     0.48921   0.42253   0.08505   0.00000  Uiso   1.00
H33    H     0.42967   0.48187   0.13743   0.00000  Uiso   1.00
