# generated using pymatgen
data_ZnH12C24NO4
_symmetry_space_group_name_H-M   'P 1'
_cell_length_a   12.99315100
_cell_length_b   17.51557900
_cell_length_c   8.56237600
_cell_angle_alpha   90.00000000
_cell_angle_beta   95.10708600
_cell_angle_gamma   90.00000000
_symmetry_Int_Tables_number   1
_chemical_formula_structural   ZnH12C24NO4
_chemical_formula_sum   'Zn2 H24 C48 N2 O8'
_cell_volume   1940.91146774
_cell_formula_units_Z   2
loop_
 _symmetry_equiv_pos_site_id
 _symmetry_equiv_pos_as_xyz
  1  'x, y, z'
loop_
 _atom_site_type_symbol
 _atom_site_label
 _atom_site_symmetry_multiplicity
 _atom_site_fract_x
 _atom_site_fract_y
 _atom_site_fract_z
 _atom_site_occupancy
  Zn  Zn1  1  0.50362600  0.08635200  0.50034700  1
  Zn  Zn2  1  0.49637400  0.91364800  0.49965300  1
  H  H1  1  0.01352500  0.05614800  0.13790600  1
  H  H2  1  0.98647400  0.94385200  0.86209400  1
  H  H3  1  0.85522000  0.01891100  0.29030700  1
  H  H4  1  0.14478000  0.98108900  0.70969300  1
  H  H5  1  0.57278600  0.96788300  0.02273100  1
  H  H6  1  0.42721400  0.03211700  0.97726800  1
  H  H7  1  0.34397000  0.19144400  0.46959400  1
  H  H8  1  0.65603000  0.80855600  0.53040500  1
  H  H9  1  0.66835700  0.19430300  0.53211700  1
  H  H10  1  0.33164300  0.80569700  0.46788300  1
  H  H11  1  0.24759500  0.30855500  0.45093900  1
  H  H12  1  0.75240500  0.69144500  0.54906000  1
  H  H13  1  0.76031000  0.31411800  0.54984000  1
  H  H14  1  0.23969000  0.68588200  0.45015900  1
  H  H15  1  0.15229600  0.42623700  0.43268600  1
  H  H16  1  0.84770300  0.57376300  0.56731400  1
  H  H17  1  0.85063100  0.43398300  0.56749700  1
  H  H18  1  0.14936900  0.56601700  0.43250200  1
  H  H19  1  0.92141100  0.06605500  0.76715800  1
  H  H20  1  0.84947100  0.98769600  0.66983400  1
  H  H21  1  0.79410300  0.08148000  0.68520500  1
  H  H22  1  0.15052800  0.01230400  0.33016500  1
  H  H23  1  0.07858900  0.93394500  0.23284200  1
  H  H24  1  0.20589700  0.91852000  0.31479400  1
  C  C1  1  0.70646100  0.99603400  0.17138100  1
  C  C2  1  0.29353900  0.00396700  0.82861800  1
  C  C3  1  0.81112400  0.01225300  0.17800600  1
  C  C4  1  0.18887600  0.98774700  0.82199300  1
  C  C5  1  0.86018600  0.01644100  0.04008500  1
  C  C6  1  0.13981400  0.98355900  0.95991500  1
  C  C7  1  0.80161700  0.01549600  0.89643900  1
  C  C8  1  0.19838300  0.98450400  0.10356100  1
  C  C9  1  0.69872900  0.99631400  0.89195600  1
  C  C10  1  0.30127100  0.00368600  0.10804400  1
  C  C11  1  0.65344400  0.98266200  0.02817000  1
  C  C12  1  0.34655600  0.01733800  0.97183000  1
  C  C13  1  0.97330500  0.02101500  0.04801800  1
  C  C14  1  0.02669500  0.97898500  0.95198200  1
  C  C15  1  0.64591500  0.99741700  0.30840300  1
  C  C16  1  0.35408500  0.00258300  0.69159700  1
  C  C17  1  0.36661000  0.00244200  0.25462100  1
  C  C18  1  0.63339000  0.99755800  0.74537800  1
  C  C19  1  0.41519400  0.22360700  0.48332200  1
  C  C20  1  0.58480600  0.77639400  0.51667700  1
  C  C21  1  0.59609600  0.22518800  0.51818700  1
  C  C22  1  0.40390300  0.77481200  0.48181300  1
  C  C23  1  0.31910900  0.34038200  0.46478000  1
  C  C24  1  0.68089100  0.65961800  0.53521900  1
  C  C25  1  0.68750900  0.34430800  0.53584300  1
  C  C26  1  0.31249100  0.65569200  0.46415600  1
  C  C27  1  0.41238500  0.30227700  0.48278100  1
  C  C28  1  0.58761400  0.69772300  0.51721900  1
  C  C29  1  0.59586600  0.30407400  0.51815800  1
  C  C30  1  0.40413400  0.69592600  0.48184200  1
  C  C31  1  0.50333100  0.34273600  0.50035300  1
  C  C32  1  0.49666800  0.65726400  0.49964700  1
  C  C33  1  0.22418800  0.45759400  0.44664800  1
  C  C34  1  0.77581100  0.54240600  0.55335200  1
  C  C35  1  0.77746500  0.46368100  0.55345100  1
  C  C36  1  0.22253500  0.53631900  0.44654900  1
  C  C37  1  0.31723000  0.41917600  0.46453200  1
  C  C38  1  0.68276900  0.58082400  0.53546700  1
  C  C39  1  0.68607200  0.42317000  0.53571200  1
  C  C40  1  0.31392800  0.57683000  0.46428800  1
  C  C41  1  0.40858300  0.45964100  0.48226500  1
  C  C42  1  0.59141700  0.54035900  0.51773500  1
  C  C43  1  0.59308800  0.46164000  0.51786900  1
  C  C44  1  0.40691200  0.53836000  0.48213000  1
  C  C45  1  0.50167200  0.42136800  0.50014600  1
  C  C46  1  0.49832800  0.57863200  0.49985400  1
  C  C47  1  0.84495300  0.03828400  0.74682900  1
  C  C48  1  0.15504700  0.96171600  0.25317100  1
  N  N1  1  0.50624400  0.18642500  0.50091700  1
  N  N2  1  0.49375600  0.81357500  0.49908200  1
  O  O1  1  0.60713900  0.93258600  0.35355800  1
  O  O2  1  0.39286100  0.06741500  0.64644200  1
  O  O3  1  0.38580900  0.93581900  0.64437900  1
  O  O4  1  0.61419100  0.06418200  0.35562000  1
  O  O5  1  0.40142900  0.06755300  0.31288000  1
  O  O6  1  0.59857100  0.93244700  0.68711900  1
  O  O7  1  0.60531600  0.06423100  0.68668500  1
  O  O8  1  0.39468400  0.93576900  0.31331400  1
