# Generated by REPEAT Assigner based on pymatgen
data_DB0-m2_o25_o26_f0_pcu.sym.27
_audit_creation_date              2022-05-24
_audit_creation_method            REPEAT_Assigner
_cell_length_a                    14.501696
_cell_length_b                    15.941425
_cell_length_c                    17.422340
_cell_angle_alpha                 90.003026
_cell_angle_beta                  86.295355
_cell_angle_gamma                 90.006924
_cell_volume                      4019.240143
_symmetry_space_group_name_H-M    P1
_symmetry_Int_Tables_number       1
loop_
    _symmetry_equiv_pos_site_id
    _symmetry_equiv_pos_as_xyz
    1  x,y,z
loop_
    _atom_site_type_symbol
    _atom_site_label
    _atom_site_fract_x
    _atom_site_fract_y
    _atom_site_fract_z
    _atom_type_partial_charge
    O   O1   0.420906  0.622052  0.500919  -0.576171
    O   O2   0.579670  0.378287  0.500969  -0.530513
    O   O3   0.579683  0.622097  0.500839  -0.634257
    O   O4   0.421347  0.378266  0.497714  -0.593875
    C   C1   0.500270  0.661152  0.501101  0.848723
    C   C2   0.500529  0.339171  0.499158  0.719106
    O   O5   0.416588  0.500826  0.613744  -0.584135
    O   O6   0.584113  0.502570  0.386446  -0.566336
    O   O7   0.574996  0.502841  0.609927  -0.490677
    O   O8   0.425899  0.504489  0.390384  -0.466919
    C   C3   0.494334  0.497928  0.648121  0.560271
    C   C4   0.506317  0.500422  0.351929  0.531715
    Cu  Cu1  0.408077  0.500102  0.502327  0.928870
    Cu  Cu2  0.592724  0.500190  0.497882  0.898847
    C   C5   0.489690  0.496441  0.732956  0.015289
    C   C6   0.510237  0.500931  0.266896  0.027804
    C   C7   0.565319  0.476107  0.774737  -0.071424
    C   C8   0.431483  0.495161  0.225418  -0.086815
    C   C9   0.557652  0.481180  0.854037  -0.162795
    C   C10  0.438864  0.503881  0.146494  -0.112297
    C   C11  0.474954  0.502078  0.893032  0.261672
    C   C12  0.523990  0.511394  0.106307  0.172049
    C   C13  0.398788  0.520450  0.851781  -0.094181
    C   C14  0.603065  0.513381  0.147315  -0.078272
    C   C15  0.407083  0.517906  0.772323  -0.094526
    C   C16  0.595234  0.510298  0.226856  -0.085343
    C   C17  0.465829  0.492202  0.977006  -0.246181
    C   C18  0.529930  0.522032  0.021737  -0.164738
    H   H1   0.657273  0.513104  0.257820  0.163073
    H   H2   0.348346  0.534960  0.740631  0.169404
    H   H3   0.588043  0.555995  0.994764  0.130827
    H   H4   0.406359  0.458020  0.001042  0.151286
    H   H5   0.375977  0.503991  0.116768  0.184294
    H   H6   0.615083  0.461521  0.886251  0.188618
    C   C19  0.462578  0.027958  0.437105  -0.185079
    C   C20  0.538196  0.972365  0.563214  -0.149335
    C   C21  0.548313  0.971602  0.437576  -0.166230
    C   C22  0.452461  0.028722  0.562743  -0.184004
    H   H7   0.590546  0.947867  0.386846  0.123237
    H   H8   0.410229  0.052459  0.613473  0.122653
    H   H9   0.428562  0.051065  0.385973  0.130216
    H   H10  0.572212  0.949260  0.614347  0.119042
    C   C23  0.500252  0.751153  0.501140  -0.145533
    C   C24  0.500533  0.249170  0.499148  -0.051308
    C   C25  0.417232  0.974250  0.500118  0.012568
    C   C26  0.583541  0.026073  0.500201  -0.017640
    C   C27  0.500373  0.918549  0.500582  0.522418
    C   C28  0.500400  0.081774  0.499737  0.586685
    C   C29  0.500229  0.826736  0.500969  -0.320598
    C   C30  0.500549  0.173587  0.499338  -0.387752
    C   C31  0.029968  0.420887  0.502805  -0.167150
    C   C32  0.970828  0.579537  0.497290  -0.128895
    C   C33  0.963218  0.464661  0.559502  -0.114908
    C   C34  0.037573  0.535764  0.440590  -0.153898
    H   H11  0.054344  0.355345  0.508107  0.143870
    H   H12  0.946450  0.645078  0.491987  0.131312
    H   H13  0.042413  0.573965  0.615909  0.152638
    H   H14  0.958380  0.426455  0.384189  0.136760
    N   N1   0.730838  0.500342  0.494610  -0.062070
    N   N2   0.269965  0.500073  0.505529  -0.071639
    C   C35  0.977650  0.458588  0.437288  -0.194800
    C   C36  0.023143  0.541836  0.562808  -0.238463
    C   C37  0.911384  0.501187  0.496011  0.642061
    C   C38  0.089416  0.499238  0.504079  0.657689
    C   C39  0.810593  0.500672  0.494918  -0.170549
    C   C40  0.190211  0.499752  0.505191  -0.164623
    N   N3   0.648968  0.443483  0.738630  0.568910
    O   O9   0.726858  0.460218  0.768340  -0.336369
    O   O10  0.645202  0.380134  0.691856  -0.276084
    N   N4   0.342321  0.478099  0.261584  0.617928
    O   O11  0.270853  0.517019  0.237563  -0.352753
    O   O12  0.329446  0.408804  0.300252  -0.340751
    N   N5   0.312069  0.543905  0.889664  0.632613
    O   O13  0.309368  0.586603  0.953391  -0.356424
    O   O14  0.236697  0.535780  0.853773  -0.375744
    N   N6   0.693224  0.517038  0.109000  0.622073
    O   O15  0.713017  0.470253  0.049009  -0.350491
    O   O16  0.760418  0.551426  0.143668  -0.373139
    N   N7   0.678783  0.054318  0.500245  0.572253
    O   O17  0.744999  0.999392  0.500642  -0.388724
    O   O18  0.698388  0.133893  0.499907  -0.320912
    N   N8   0.321990  0.946009  0.500075  0.565138
    O   O19  0.255776  0.000938  0.499675  -0.384812
    O   O20  0.302380  0.866435  0.500434  -0.323980
    N   N9   0.918790  0.424105  0.626628  0.592943
    O   O21  0.931540  0.452792  0.694978  -0.318790
    O   O22  0.869101  0.357162  0.618653  -0.342755
    N   N10  0.081935  0.576319  0.373438  0.614709
    O   O23  0.068586  0.547981  0.305077  -0.312572
    O   O24  0.131935  0.643071  0.381398  -0.351334
