# generated using pymatgen
data_ZnH20C37N3ClO4
_symmetry_space_group_name_H-M   'P 1'
_cell_length_a   13.36988200
_cell_length_b   16.55225100
_cell_length_c   16.67680100
_cell_angle_alpha   90.00000000
_cell_angle_beta   98.96098700
_cell_angle_gamma   90.00000000
_symmetry_Int_Tables_number   1
_chemical_formula_structural   ZnH20C37N3ClO4
_chemical_formula_sum   'Zn2 H40 C74 N6 Cl2 O8'
_cell_volume   3645.55827078
_cell_formula_units_Z   2
loop_
 _symmetry_equiv_pos_site_id
 _symmetry_equiv_pos_as_xyz
  1  'x, y, z'
loop_
 _atom_site_type_symbol
 _atom_site_label
 _atom_site_symmetry_multiplicity
 _atom_site_fract_x
 _atom_site_fract_y
 _atom_site_fract_z
 _atom_site_occupancy
  Zn  Zn1  1  0.11309000  0.50194600  0.51045000  1
  Zn  Zn2  1  0.88691000  0.50194600  0.48955000  1
  H  H1  1  0.94152300  0.92253900  0.70463600  1
  H  H2  1  0.05853200  0.08152100  0.29534200  1
  H  H3  1  0.05847700  0.92253900  0.29536300  1
  H  H4  1  0.94146900  0.08152100  0.70465800  1
  H  H5  1  0.00907600  0.31200100  0.92348500  1
  H  H6  1  0.99100700  0.69206000  0.07659700  1
  H  H7  1  0.99092400  0.31200200  0.07651400  1
  H  H8  1  0.00899300  0.69205900  0.92340300  1
  H  H9  1  0.94228400  0.00201800  0.05637600  1
  H  H10  1  0.05771600  0.00201600  0.94362400  1
  H  H11  1  0.85787500  0.75079000  0.80067800  1
  H  H12  1  0.14162100  0.25418300  0.19836200  1
  H  H13  1  0.14212500  0.75079000  0.19932100  1
  H  H14  1  0.85838000  0.25418300  0.80163800  1
  H  H15  1  0.15781200  0.71963600  0.66625500  1
  H  H16  1  0.84390400  0.28220800  0.33571400  1
  H  H17  1  0.84218900  0.71963600  0.33374500  1
  H  H18  1  0.15609700  0.28220800  0.66428500  1
  H  H19  1  0.15730400  0.82068400  0.77313600  1
  H  H20  1  0.84349500  0.18232800  0.22779300  1
  H  H21  1  0.84269600  0.82068400  0.22686400  1
  H  H22  1  0.15650500  0.18232800  0.77220700  1
  H  H23  1  0.85867800  0.35628400  0.69674900  1
  H  H24  1  0.14200400  0.64883400  0.30436800  1
  H  H25  1  0.14132200  0.35628400  0.30325000  1
  H  H26  1  0.85799600  0.64883400  0.69563200  1
  H  H27  1  0.77922900  0.50270400  0.60844600  1
  H  H28  1  0.22077100  0.50270400  0.39155300  1
  H  H29  1  0.65387700  0.50297500  0.69223300  1
  H  H30  1  0.34612300  0.50297500  0.30776700  1
  H  H31  1  0.47949300  0.50243900  0.70950800  1
  H  H32  1  0.52050700  0.50243900  0.29049100  1
  H  H33  1  0.70493400  0.62416900  0.31163600  1
  H  H34  1  0.74406400  0.48053900  0.10682400  1
  H  H35  1  0.72945000  0.35747100  0.18665300  1
  H  H36  1  0.70156700  0.36813900  0.32861900  1
  H  H37  1  0.29506600  0.62416900  0.68836400  1
  H  H38  1  0.25593600  0.48053900  0.89317600  1
  H  H39  1  0.27055000  0.35747100  0.81334700  1
  H  H40  1  0.29843300  0.36813900  0.67138100  1
  C  C1  1  0.00458000  0.25832600  0.95962400  1
  C  C2  1  0.99545000  0.74570400  0.04039700  1
  C  C3  1  0.99542000  0.25832600  0.04037600  1
  C  C4  1  0.00455000  0.74570400  0.95960300  1
  C  C5  1  0.99422300  0.17827800  0.06383400  1
  C  C6  1  0.00578300  0.82575100  0.93614600  1
  C  C7  1  0.00577700  0.17827800  0.93616600  1
  C  C8  1  0.99421800  0.82575100  0.06385400  1
  C  C9  1  0.99069100  0.15317300  0.13980300  1
  C  C10  1  0.00936100  0.85086800  0.86015900  1
  C  C11  1  0.00930900  0.15317300  0.86019700  1
  C  C12  1  0.99063900  0.85086800  0.13984000  1
  C  C13  1  0.99813200  0.06750700  0.16479700  1
  C  C14  1  0.00189200  0.93653700  0.83518800  1
  C  C15  1  0.00186800  0.06750700  0.83520300  1
  C  C16  1  0.99810900  0.93653700  0.16481200  1
  C  C17  1  0.03312800  0.04352200  0.24344200  1
  C  C18  1  0.96689700  0.96053100  0.75654700  1
  C  C19  1  0.96687200  0.04352200  0.75655800  1
  C  C20  1  0.03310300  0.96053100  0.24345200  1
  C  C21  1  0.92424400  0.74343100  0.77173300  1
  C  C22  1  0.07551200  0.26111300  0.22771000  1
  C  C23  1  0.07575600  0.74343100  0.22826700  1
  C  C24  1  0.92448800  0.26111300  0.77229000  1
  C  C25  1  0.92443600  0.68608500  0.71189500  1
  C  C26  1  0.07527000  0.31850300  0.28748800  1
  C  C27  1  0.07556500  0.68608500  0.28810400  1
  C  C28  1  0.92473100  0.31850300  0.71251100  1
  C  C29  1  0.00922200  0.67543000  0.67494800  1
  C  C30  1  0.99093900  0.32840800  0.32513200  1
  C  C31  1  0.99077800  0.67543000  0.32505200  1
  C  C32  1  0.00906100  0.32840800  0.67486800  1
  C  C33  1  0.09227900  0.72493900  0.69639300  1
  C  C34  1  0.90851900  0.27809400  0.30444800  1
  C  C35  1  0.90772100  0.72493900  0.30360600  1
  C  C36  1  0.09148200  0.27809400  0.69555200  1
  C  C37  1  0.09178300  0.78255400  0.75619700  1
  C  C38  1  0.90866200  0.22094600  0.24421900  1
  C  C39  1  0.90821700  0.78255400  0.24380200  1
  C  C40  1  0.09133800  0.22094600  0.75578100  1
  C  C41  1  0.00883500  0.79052300  0.79551700  1
  C  C42  1  0.99121400  0.21355100  0.20437900  1
  C  C43  1  0.99116500  0.79052300  0.20448300  1
  C  C44  1  0.00878600  0.21355100  0.79562100  1
  C  C45  1  0.00893300  0.61302900  0.61248200  1
  C  C46  1  0.99114900  0.39080700  0.38759000  1
  C  C47  1  0.99106700  0.61302900  0.38751700  1
  C  C48  1  0.00885100  0.39080700  0.61241000  1
  C  C49  1  0.68219600  0.50183300  0.41238200  1
  C  C50  1  0.31780400  0.50183300  0.58761700  1
  C  C51  1  0.72407600  0.50285300  0.55398500  1
  C  C52  1  0.27592500  0.50285300  0.44601500  1
  C  C53  1  0.62355000  0.50324900  0.56257700  1
  C  C54  1  0.37645000  0.50325000  0.43742300  1
  C  C55  1  0.55054200  0.50346000  0.49546900  1
  C  C56  1  0.44945800  0.50346000  0.50453000  1
  C  C57  1  0.57930200  0.50289000  0.41953300  1
  C  C58  1  0.42069800  0.50289000  0.58046600  1
  C  C59  1  0.59640700  0.50312900  0.63890100  1
  C  C60  1  0.40359300  0.50312900  0.36109900  1
  C  C61  1  0.49587800  0.50274900  0.64818900  1
  C  C62  1  0.50412200  0.50274900  0.35181100  1
  C  C63  1  0.71034000  0.49668500  0.33109200  1
  C  C64  1  0.71493200  0.56570100  0.28525500  1
  C  C65  1  0.72742200  0.55984800  0.20483000  1
  C  C66  1  0.73492100  0.48508800  0.16993600  1
  C  C67  1  0.72692800  0.41614800  0.21471300  1
  C  C68  1  0.71281100  0.42205100  0.29463400  1
  C  C69  1  0.28966000  0.49668500  0.66890800  1
  C  C70  1  0.28506800  0.56570100  0.71474500  1
  C  C71  1  0.27257800  0.55984800  0.79516900  1
  C  C72  1  0.26507900  0.48508900  0.83006400  1
  C  C73  1  0.27307200  0.41614800  0.78528700  1
  C  C74  1  0.28718900  0.42205100  0.70536600  1
  N  N1  1  0.00000000  0.12940700  0.00000000  1
  N  N2  1  0.00000000  0.87461600  0.00000000  1
  N  N3  1  0.97554800  0.00201800  0.11706000  1
  N  N4  1  0.02445300  0.00201800  0.88294000  1
  N  N5  1  0.75378700  0.50201600  0.48012800  1
  N  N6  1  0.24621300  0.50201600  0.51987200  1
  Cl  Cl1  1  0.72845900  0.64698800  0.14549100  1
  Cl  Cl2  1  0.27154100  0.64698800  0.85450900  1
  O  O1  1  0.92094300  0.58437700  0.57890100  1
  O  O2  1  0.07911700  0.41962200  0.42099800  1
  O  O3  1  0.07905700  0.58437700  0.42109900  1
  O  O4  1  0.92088300  0.41962200  0.57900200  1
  O  O5  1  0.09530000  0.58827500  0.59255600  1
  O  O6  1  0.90476600  0.41546600  0.40760900  1
  O  O7  1  0.90470000  0.58827400  0.40744300  1
  O  O8  1  0.09523400  0.41546600  0.59239100  1
