# generated using pymatgen
data_ZnH8C27N2(OF)6
_symmetry_space_group_name_H-M   'P 1'
_cell_length_a   12.94524200
_cell_length_b   14.12527000
_cell_length_c   27.64858800
_cell_angle_alpha   90.00057600
_cell_angle_beta   93.53229300
_cell_angle_gamma   88.91326100
_symmetry_Int_Tables_number   1
_chemical_formula_structural   ZnH8C27N2(OF)6
_chemical_formula_sum   'Zn2 H16 C54 N4 O12 F12'
_cell_volume   5045.16795001
_cell_formula_units_Z   2
loop_
 _symmetry_equiv_pos_site_id
 _symmetry_equiv_pos_as_xyz
  1  'x, y, z'
loop_
 _atom_site_type_symbol
 _atom_site_label
 _atom_site_symmetry_multiplicity
 _atom_site_fract_x
 _atom_site_fract_y
 _atom_site_fract_z
 _atom_site_occupancy
  Zn  Zn1  1  0.38770600  0.48987600  0.49622600  1
  Zn  Zn2  1  0.62258800  0.50285700  0.50387900  1
  H  H1  1  0.33656600  0.49933600  0.64854900  1
  H  H2  1  0.67208600  0.51311700  0.35112100  1
  H  H3  1  0.33503500  0.50049800  0.73640800  1
  H  H4  1  0.67226900  0.51497500  0.26307300  1
  H  H5  1  0.63062000  0.69577400  0.88183300  1
  H  H6  1  0.43602600  0.27907100  0.11909500  1
  H  H7  1  0.34285400  0.48239300  0.34056400  1
  H  H8  1  0.66810700  0.49226700  0.65991100  1
  H  H9  1  0.34464400  0.48475000  0.25262900  1
  H  H10  1  0.66518800  0.49166300  0.74780300  1
  H  H11  1  0.57011100  0.72686200  0.03181500  1
  H  H12  1  0.35876200  0.30729500  0.96696600  1
  H  H13  1  0.63482800  0.70020300  0.96661000  1
  H  H14  1  0.43082600  0.27589100  0.03420500  1
  H  H15  1  0.01534100  0.56734500  0.54173100  1
  H  H16  1  0.99495900  0.42538000  0.45837000  1
  C  C1  1  0.48915700  0.68109600  0.49984000  1
  C  C2  1  0.52113600  0.31163600  0.50026600  1
  C  C3  1  0.50365300  0.49581400  0.59472200  1
  C  C4  1  0.50660800  0.49696000  0.40538000  1
  C  C5  1  0.54179000  0.56817800  0.82485700  1
  C  C6  1  0.48210700  0.42387100  0.17542600  1
  C  C7  1  0.45350000  0.42500800  0.82214200  1
  C  C8  1  0.53443800  0.58162000  0.17801900  1
  C  C9  1  0.59291700  0.49400500  0.72601100  1
  C  C10  1  0.41663600  0.49058600  0.27431000  1
  C  C11  1  0.59430400  0.49407800  0.67616700  1
  C  C12  1  0.41591500  0.48958100  0.32415000  1
  C  C13  1  0.40945800  0.49755000  0.66981100  1
  C  C14  1  0.59948100  0.50673100  0.33002500  1
  C  C15  1  0.40829800  0.49795300  0.71963200  1
  C  C16  1  0.59988000  0.50811000  0.28016000  1
  C  C17  1  0.49993500  0.49604300  0.74797800  1
  C  C18  1  0.50848900  0.50013800  0.25213400  1
  C  C19  1  0.49542000  0.49790700  0.89910200  1
  C  C20  1  0.50605000  0.50482300  0.10094800  1
  C  C21  1  0.54222400  0.56902500  0.87466800  1
  C  C22  1  0.47988400  0.42450400  0.12560700  1
  C  C23  1  0.59069900  0.64098600  0.90004600  1
  C  C24  1  0.45323200  0.34364700  0.10053600  1
  C  C25  1  0.44751500  0.42520400  0.87275100  1
  C  C26  1  0.53484800  0.58551500  0.12712400  1
  C  C27  1  0.50251400  0.49575700  0.64775400  1
  C  C28  1  0.50738900  0.49767000  0.35233400  1
  C  C29  1  0.53464600  0.58084300  0.02543600  1
  C  C30  1  0.45651800  0.42666400  0.97438900  1
  C  C31  1  0.46834500  0.42404500  0.02506600  1
  C  C32  1  0.54051500  0.57595700  0.97503200  1
  C  C33  1  0.50317900  0.50324100  0.05047400  1
  C  C34  1  0.49722500  0.50029500  0.94952300  1
  C  C35  1  0.55830500  0.66272300  0.05113100  1
  C  C36  1  0.40159400  0.35831100  0.94821200  1
  C  C37  1  0.56051300  0.66678100  0.10127800  1
  C  C38  1  0.39454200  0.35679300  0.89800800  1
  C  C39  1  0.59051500  0.64439800  0.94949800  1
  C  C40  1  0.44762300  0.34307900  0.05098600  1
  C  C41  1  0.53002900  0.21021800  0.50039700  1
  C  C42  1  0.48026000  0.78251400  0.49971000  1
  C  C43  1  0.54729800  0.02327100  0.50067300  1
  C  C44  1  0.46297900  0.96946100  0.49943500  1
  C  C45  1  0.47260900  0.86770000  0.49959000  1
  C  C46  1  0.53767300  0.12503100  0.50051700  1
  C  C47  1  0.03307400  0.47102000  0.48516800  1
  C  C48  1  0.97722000  0.52170700  0.51493400  1
  C  C49  1  0.86622400  0.51599000  0.51158300  1
  C  C50  1  0.14407000  0.47673800  0.48852000  1
  C  C51  1  0.59151000  0.75965000  0.12487900  1
  C  C52  1  0.32607100  0.28293500  0.87355300  1
  C  C53  1  0.35655000  0.01283400  0.49785300  1
  C  C54  1  0.65372500  0.97989600  0.50225300  1
  N  N1  1  0.49834300  0.49658800  0.79958900  1
  N  N2  1  0.50881300  0.50169100  0.20054800  1
  N  N3  1  0.23337300  0.48139400  0.49125000  1
  N  N4  1  0.77692100  0.51133500  0.50885400  1
  O  O1  1  0.40385600  0.63225900  0.49692400  1
  O  O2  1  0.60643400  0.36047500  0.50310900  1
  O  O3  1  0.58210500  0.64213300  0.50285900  1
  O  O4  1  0.42819100  0.35060000  0.49731800  1
  O  O5  1  0.41502500  0.49110800  0.56916300  1
  O  O6  1  0.59525400  0.50181000  0.43093400  1
  O  O7  1  0.59310300  0.50077500  0.57499500  1
  O  O8  1  0.41721100  0.49181400  0.42511900  1
  O  O9  1  0.58375700  0.63971500  0.80125600  1
  O  O10  1  0.45869100  0.34495200  0.19926100  1
  O  O11  1  0.55673500  0.65697000  0.20595400  1
  O  O12  1  0.41965900  0.35214100  0.79481800  1
  F  F1  1  0.61503400  0.82668700  0.09105800  1
  F  F2  1  0.67915900  0.74610500  0.15550000  1
  F  F3  1  0.51087000  0.79631800  0.15011300  1
  F  F4  1  0.26917000  0.23604300  0.90645800  1
  F  F5  1  0.38595700  0.21583500  0.85116900  1
  F  F6  1  0.25606000  0.32570000  0.84017300  1
  F  F7  1  0.28490800  0.94144600  0.49680000  1
  F  F8  1  0.33941900  0.06779100  0.45663800  1
  F  F9  1  0.34467900  0.06774000  0.53862500  1
  F  F10  1  0.72536800  0.05128300  0.50330400  1
  F  F11  1  0.66559100  0.92499100  0.46148000  1
  F  F12  1  0.67085900  0.92493800  0.54346700  1
