# generated using pymatgen
data_ZnH13C18S3NO4
_symmetry_space_group_name_H-M   'P 1'
_cell_length_a   16.13568600
_cell_length_b   14.98513800
_cell_length_c   10.89890400
_cell_angle_alpha   90.00000000
_cell_angle_beta   90.00010400
_cell_angle_gamma   90.00000000
_symmetry_Int_Tables_number   1
_chemical_formula_structural   ZnH13C18S3NO4
_chemical_formula_sum   'Zn2 H26 C36 S6 N2 O8'
_cell_volume   2635.30573979
_cell_formula_units_Z   2
loop_
 _symmetry_equiv_pos_site_id
 _symmetry_equiv_pos_as_xyz
  1  'x, y, z'
loop_
 _atom_site_type_symbol
 _atom_site_label
 _atom_site_symmetry_multiplicity
 _atom_site_fract_x
 _atom_site_fract_y
 _atom_site_fract_z
 _atom_site_occupancy
  Zn  Zn1  1  0.50000000  0.59098800  0.50000000  1
  Zn  Zn2  1  0.49999900  0.38794400  0.50000000  1
  H  H1  1  0.40094300  0.07152900  0.37075800  1
  H  H2  1  0.59905200  0.90737500  0.62924800  1
  H  H3  1  0.59905600  0.07152900  0.62924300  1
  H  H4  1  0.40094700  0.90737500  0.37075200  1
  H  H5  1  0.07622200  0.63148700  0.49986900  1
  H  H6  1  0.92377600  0.34713900  0.50013000  1
  H  H7  1  0.92377700  0.63148700  0.50013000  1
  H  H8  1  0.07622400  0.34714000  0.49986900  1
  H  H9  1  0.27275200  0.63404100  0.88859900  1
  H  H10  1  0.28693800  0.58385300  0.73947700  1
  H  H11  1  0.37550300  0.61996700  0.82587300  1
  H  H12  1  0.72724000  0.63405700  0.11140500  1
  H  H13  1  0.71305400  0.58386700  0.26052700  1
  H  H14  1  0.62448900  0.61997700  0.17412600  1
  H  H15  1  0.32372500  0.63923500  0.26435900  1
  H  H16  1  0.33458900  0.53921000  0.17469600  1
  H  H17  1  0.26825400  0.62784900  0.12097100  1
  H  H18  1  0.51983300  0.19199900  0.89625300  1
  H  H19  1  0.54291400  0.24035600  0.74908600  1
  H  H20  1  0.46475500  0.29020500  0.84486300  1
  H  H21  1  0.67626600  0.63925000  0.73564300  1
  H  H22  1  0.66540800  0.53922400  0.82530400  1
  H  H23  1  0.73173700  0.62786800  0.87903200  1
  H  H24  1  0.48019200  0.19199900  0.10373900  1
  H  H25  1  0.45710500  0.24034800  0.25090900  1
  H  H26  1  0.53526000  0.29020900  0.15513700  1
  C  C1  1  0.33802200  0.48943200  0.50025500  1
  C  C2  1  0.66197700  0.48943200  0.49974400  1
  C  C3  1  0.49940400  0.48936000  0.25953700  1
  C  C4  1  0.50059600  0.48936000  0.74046200  1
  C  C5  1  0.24908100  0.48936400  0.49990700  1
  C  C6  1  0.75091900  0.48936300  0.50009200  1
  C  C7  1  0.44447500  0.94344100  0.42754900  1
  C  C8  1  0.55552600  0.03546500  0.57245000  1
  C  C9  1  0.55552400  0.94344100  0.57245200  1
  C  C10  1  0.44447300  0.03546500  0.42755100  1
  C  C11  1  0.50000000  0.89742700  0.50000000  1
  C  C12  1  0.49999900  0.08148000  0.50000100  1
  C  C13  1  0.46110800  0.56010000  0.04002400  1
  C  C14  1  0.53834100  0.41688800  0.95971700  1
  C  C15  1  0.53888700  0.56010400  0.95997600  1
  C  C16  1  0.46166400  0.41688500  0.04028300  1
  C  C17  1  0.42433300  0.48918800  0.95763600  1
  C  C18  1  0.57566700  0.48919500  0.04236400  1
  C  C19  1  0.50143300  0.48884100  0.87808300  1
  C  C20  1  0.49856700  0.48884000  0.12191700  1
  C  C21  1  0.50000000  0.80166400  0.50000000  1
  C  C22  1  0.49999900  0.17724500  0.50000100  1
  C  C23  1  0.82559900  0.48932500  0.50020700  1
  C  C24  1  0.17440000  0.48932600  0.49979200  1
  C  C25  1  0.95726900  0.56900900  0.50008400  1
  C  C26  1  0.04273200  0.40961700  0.49991500  1
  C  C27  1  0.04273100  0.56900900  0.49991500  1
  C  C28  1  0.95726800  0.40961700  0.50008400  1
  C  C29  1  0.91453500  0.48931400  0.50017800  1
  C  C30  1  0.08546400  0.48931400  0.49982100  1
  C  C31  1  0.31312900  0.58989400  0.83305300  1
  C  C32  1  0.68686400  0.58990800  0.16694900  1
  C  C33  1  0.32686800  0.61247500  0.16963800  1
  C  C34  1  0.52526800  0.25553100  0.84497700  1
  C  C35  1  0.67312400  0.61249000  0.83036400  1
  C  C36  1  0.47475000  0.25552800  0.15502000  1
  S  S1  1  0.31778000  0.47979200  0.90312100  1
  S  S2  1  0.68222100  0.47980600  0.09687800  1
  S  S3  1  0.41328900  0.66443500  0.08951900  1
  S  S4  1  0.60555800  0.32460200  0.91344200  1
  S  S5  1  0.58669900  0.66444300  0.91048200  1
  S  S6  1  0.39445500  0.32459300  0.08655700  1
  N  N1  1  0.49999900  0.25447100  0.50000000  1
  N  N2  1  0.50000000  0.72445400  0.50000000  1
  O  O1  1  0.37651900  0.56649700  0.50042500  1
  O  O2  1  0.62347700  0.41240700  0.49972600  1
  O  O3  1  0.62348100  0.56649700  0.49957500  1
  O  O4  1  0.37652200  0.41240700  0.50027400  1
  O  O5  1  0.49967300  0.56641300  0.31709700  1
  O  O6  1  0.50021500  0.41257700  0.68276800  1
  O  O7  1  0.50032700  0.56641400  0.68290300  1
  O  O8  1  0.49978400  0.41257700  0.31723200  1
