# generated using pymatgen
data_CuH30C33NO12
_symmetry_space_group_name_H-M   'P 1'
_cell_length_a   11.36974200
_cell_length_b   19.31333800
_cell_length_c   17.84429400
_cell_angle_alpha   89.98385600
_cell_angle_beta   102.52893800
_cell_angle_gamma   90.00712800
_symmetry_Int_Tables_number   1
_chemical_formula_structural   CuH30C33NO12
_chemical_formula_sum   'Cu2 H60 C66 N2 O24'
_cell_volume   3825.07654080
_cell_formula_units_Z   2
loop_
 _symmetry_equiv_pos_site_id
 _symmetry_equiv_pos_as_xyz
  1  'x, y, z'
loop_
 _atom_site_type_symbol
 _atom_site_label
 _atom_site_symmetry_multiplicity
 _atom_site_fract_x
 _atom_site_fract_y
 _atom_site_fract_z
 _atom_site_occupancy
  Cu  Cu1  1  0.49997300  0.49852300  0.58058900  1
  Cu  Cu2  1  0.48758000  0.50411200  0.42934100  1
  H  H1  1  0.90051800  0.51133800  0.60536100  1
  H  H2  1  0.08968700  0.47890500  0.40664700  1
  H  H3  1  0.65081600  0.71699100  0.60121600  1
  H  H4  1  0.66250000  0.28515100  0.46199800  1
  H  H5  1  0.65790000  0.84361200  0.59716600  1
  H  H6  1  0.66679500  0.15838200  0.46698100  1
  H  H7  1  0.33099500  0.84478200  0.42559000  1
  H  H8  1  0.32720500  0.15845200  0.53260500  1
  H  H9  1  0.33183100  0.71817000  0.42430500  1
  H  H10  1  0.32856600  0.28516900  0.53343400  1
  H  H11  1  0.38576000  0.41188700  0.67978100  1
  H  H12  1  0.59548100  0.59377000  0.32940400  1
  H  H13  1  0.62931500  0.57541100  0.85707500  1
  H  H14  1  0.36195900  0.42565900  0.15315800  1
  H  H15  1  0.63188800  0.57667200  0.72055900  1
  H  H16  1  0.36132700  0.42328400  0.29005100  1
  H  H17  1  0.68846400  0.48454300  0.97057500  1
  H  H18  1  0.29640600  0.51997500  0.03926100  1
  H  H19  1  0.67758800  0.49436100  0.10555500  1
  H  H20  1  0.30727400  0.51075700  0.90421500  1
  H  H21  1  0.86668000  0.40952100  0.28623200  1
  H  H22  1  0.71797400  0.44449400  0.28369400  1
  H  H23  1  0.80279700  0.29846000  0.33792600  1
  H  H24  1  0.71313800  0.32030400  0.24408700  1
  H  H25  1  0.65277200  0.33398200  0.32870700  1
  H  H26  1  0.28565300  0.59869500  0.69754200  1
  H  H27  1  0.13726600  0.62483800  0.70906100  1
  H  H28  1  0.30260900  0.70729900  0.62668800  1
  H  H29  1  0.27642400  0.72485000  0.72139800  1
  H  H30  1  0.15433400  0.73330100  0.63781200  1
  H  H31  1  0.16732300  0.32127700  0.83930200  1
  H  H32  1  0.27190100  0.25977500  0.81267200  1
  H  H33  1  0.05440000  0.32587300  0.70389600  1
  H  H34  1  0.06252300  0.23839200  0.74125400  1
  H  H35  1  0.15864800  0.26438400  0.67750100  1
  H  H36  1  0.73213400  0.68589100  0.09466100  1
  H  H37  1  0.62870800  0.74511700  0.12621200  1
  H  H38  1  0.58569500  0.67006000  0.97096800  1
  H  H39  1  0.62588000  0.76031600  0.98799000  1
  H  H40  1  0.48236900  0.72896300  0.00253400  1
  H  H41  1  0.57932300  0.85465600  0.76984300  1
  H  H42  1  0.48593200  0.92278700  0.79608100  1
  H  H43  1  0.76197900  0.92408100  0.82223600  1
  H  H44  1  0.67513600  0.90799200  0.89436900  1
  H  H45  1  0.66889300  0.99201500  0.84859700  1
  H  H46  1  0.59591500  0.14637400  0.26702300  1
  H  H47  1  0.50175700  0.07880800  0.21440500  1
  H  H48  1  0.77723400  0.07489200  0.26811500  1
  H  H49  1  0.69362300  0.09077200  0.17111500  1
  H  H50  1  0.68343400  0.00739200  0.21570600  1
  H  H51  1  0.40561800  0.16194300  0.73499900  1
  H  H52  1  0.50205800  0.09741300  0.79161400  1
  H  H53  1  0.22620600  0.09140400  0.74157200  1
  H  H54  1  0.31234600  0.11256500  0.83656800  1
  H  H55  1  0.32212300  0.02669900  0.79767000  1
  H  H56  1  0.41833900  0.83993400  0.25256600  1
  H  H57  1  0.51482100  0.90469400  0.22304800  1
  H  H58  1  0.23858300  0.90928100  0.19393500  1
  H  H59  1  0.32704700  0.88761400  0.12419400  1
  H  H60  1  0.33459700  0.97398000  0.16443400  1
  C  C1  1  0.49566000  0.36857900  0.49901200  1
  C  C2  1  0.49161200  0.63413800  0.51092700  1
  C  C3  1  0.26228500  0.50024300  0.48063100  1
  C  C4  1  0.72553300  0.50221300  0.52920900  1
  C  C5  1  0.12972600  0.49585700  0.46423300  1
  C  C6  1  0.85846800  0.50455000  0.54545200  1
  C  C7  1  0.06023700  0.50922300  0.51501300  1
  C  C8  1  0.92675100  0.50048200  0.49236100  1
  C  C9  1  0.58042100  0.74511000  0.56272800  1
  C  C10  1  0.58838000  0.25727400  0.47687800  1
  C  C11  1  0.58425700  0.81648200  0.56035100  1
  C  C12  1  0.59080400  0.18587200  0.47994300  1
  C  C13  1  0.49477700  0.85305800  0.51113400  1
  C  C14  1  0.49704500  0.14968600  0.49990500  1
  C  C15  1  0.40259200  0.81711600  0.46360900  1
  C  C16  1  0.40174600  0.18591400  0.51764700  1
  C  C17  1  0.40259900  0.74575900  0.46308200  1
  C  C18  1  0.40212300  0.25727500  0.51781500  1
  C  C19  1  0.49069800  0.70965800  0.51316300  1
  C  C20  1  0.49465300  0.29305000  0.49661600  1
  C  C21  1  0.49499700  0.96774300  0.57420200  1
  C  C22  1  0.50002400  0.03511400  0.43735000  1
  C  C23  1  0.49836400  0.03958100  0.57184600  1
  C  C24  1  0.50227700  0.96326900  0.44055000  1
  C  C25  1  0.49890200  0.07344100  0.50311100  1
  C  C26  1  0.49777900  0.92936200  0.50868800  1
  C  C27  1  0.43943500  0.44744100  0.71983300  1
  C  C28  1  0.54397300  0.55720700  0.28959300  1
  C  C29  1  0.43760200  0.44359900  0.79697100  1
  C  C30  1  0.54452900  0.56155400  0.21227100  1
  C  C31  1  0.50551900  0.49076600  0.84746000  1
  C  C32  1  0.47941000  0.51318000  0.16220300  1
  C  C33  1  0.57678800  0.53766700  0.81926200  1
  C  C34  1  0.41213800  0.46432400  0.19081900  1
  C  C35  1  0.57757500  0.53879200  0.74214600  1
  C  C36  1  0.41262200  0.46255900  0.26809600  1
  C  C37  1  0.60218800  0.49272200  0.98533200  1
  C  C38  1  0.38267000  0.51199200  0.02440800  1
  C  C39  1  0.59607300  0.49845300  0.06142600  1
  C  C40  1  0.38882500  0.50652500  0.94829600  1
  C  C41  1  0.48638800  0.50873900  0.08124100  1
  C  C42  1  0.49845300  0.49585500  0.92845600  1
  C  C43  1  0.87157700  0.48715700  0.41110200  1
  C  C44  1  0.78754500  0.40772300  0.31322600  1
  C  C45  1  0.73566000  0.33524700  0.30554500  1
  C  C46  1  0.11478300  0.53583300  0.59195100  1
  C  C47  1  0.20323700  0.62827500  0.67161700  1
  C  C48  1  0.23636500  0.70346000  0.66385200  1
  C  C49  1  0.36717600  0.38751800  0.82238400  1
  C  C50  1  0.21124500  0.30415500  0.79269400  1
  C  C51  1  0.11527600  0.28169600  0.72426000  1
  C  C52  1  0.61101800  0.61904900  0.18604900  1
  C  C53  1  0.63592400  0.69916100  0.09019100  1
  C  C54  1  0.57864600  0.71573300  0.00738300  1
  C  C55  1  0.48902000  0.93238300  0.64639900  1
  C  C56  1  0.57130200  0.91125800  0.77806800  1
  C  C57  1  0.67634300  0.93546200  0.83995500  1
  C  C58  1  0.49902400  0.07056000  0.36411200  1
  C  C59  1  0.58642600  0.08976900  0.25693900  1
  C  C60  1  0.69225200  0.06397800  0.22589500  1
  C  C61  1  0.50054300  0.07979100  0.64229200  1
  C  C62  1  0.41630100  0.10605200  0.74922400  1
  C  C63  1  0.31229600  0.08261000  0.78354900  1
  C  C64  1  0.50828300  0.92314300  0.37130300  1
  C  C65  1  0.42839100  0.89578200  0.24079600  1
  C  C66  1  0.32527600  0.91816800  0.17654700  1
  N  N1  1  0.50935100  0.49389900  0.69374400  1
  N  N2  1  0.47817000  0.50872700  0.31618000  1
  O  O1  1  0.49354500  0.39849200  0.56443100  1
  O  O2  1  0.48787600  0.60419700  0.44475600  1
  O  O3  1  0.49721300  0.40322400  0.43608800  1
  O  O4  1  0.49636100  0.59952400  0.57461800  1
  O  O5  1  0.32427500  0.50172200  0.55166700  1
  O  O6  1  0.66331800  0.50418100  0.45833900  1
  O  O7  1  0.31383200  0.49855800  0.42163800  1
  O  O8  1  0.67397300  0.50080300  0.58824800  1
  O  O9  1  0.87750100  0.53100100  0.36281300  1
  O  O10  1  0.82257800  0.42471900  0.38947900  1
  O  O11  1  0.12664700  0.49783600  0.64773200  1
  O  O12  1  0.15326000  0.60199800  0.60042400  1
  O  O13  1  0.39492200  0.36491000  0.88766600  1
  O  O14  1  0.27609100  0.35781000  0.77149500  1
  O  O15  1  0.69280400  0.64713200  0.23140300  1
  O  O16  1  0.57713400  0.64409400  0.11401700  1
  O  O17  1  0.40908700  0.89054600  0.64778100  1
  O  O18  1  0.57319900  0.94518500  0.71079800  1
  O  O19  1  0.42122200  0.11329300  0.33938900  1
  O  O20  1  0.58487200  0.05650900  0.32464900  1
  O  O21  1  0.57778500  0.12384200  0.66269900  1
  O  O22  1  0.41637100  0.06867400  0.68388200  1
  O  O23  1  0.58649300  0.87942000  0.37376400  1
  O  O24  1  0.42596100  0.93366400  0.30545300  1
