# Generated by REPEAT Assigner based on pymatgen
data_DB0-m3_o3_o24_f0_nbo.sym.89
_audit_creation_date              2022-05-24
_audit_creation_method            REPEAT_Assigner
_cell_length_a                    44.154923
_cell_length_b                    38.909445
_cell_length_c                    21.490543
_cell_angle_alpha                 90.000000
_cell_angle_beta                  61.740765
_cell_angle_gamma                 90.000000
_cell_volume                      32521.156686
_symmetry_space_group_name_H-M    P1
_symmetry_Int_Tables_number       1
loop_
    _symmetry_equiv_pos_site_id
    _symmetry_equiv_pos_as_xyz
    1  x,y,z
loop_
    _atom_site_type_symbol
    _atom_site_label
    _atom_site_fract_x
    _atom_site_fract_y
    _atom_site_fract_z
    _atom_type_partial_charge
    O   O1    0.051416  0.528912  0.448476  -0.699463
    O   O2    0.948945  0.531144  0.549016  -0.694063
    O   O3    0.551416  0.028912  0.448476  -0.699416
    O   O4    0.448945  0.031144  0.549016  -0.694100
    O   O5    0.050879  0.469609  0.451296  -0.689073
    O   O6    0.948405  0.471853  0.552285  -0.700484
    O   O7    0.550879  0.969609  0.451296  -0.689105
    O   O8    0.448405  0.971853  0.552285  -0.700449
    C   C1    0.067257  0.499120  0.433963  0.702112
    C   C2    0.932564  0.501644  0.566584  0.693870
    C   C3    0.567257  0.999120  0.433963  0.702107
    C   C4    0.432564  0.001644  0.566584  0.693830
    O   O9    0.999958  0.529233  0.592856  -0.728498
    O   O10   0.999541  0.530897  0.407829  -0.710814
    O   O11   0.499958  0.029233  0.592856  -0.728470
    O   O12   0.499541  0.030897  0.407829  -0.710825
    O   O13   0.000371  0.469859  0.592625  -0.725431
    O   O14   0.999773  0.471521  0.407769  -0.736702
    O   O15   0.500371  0.969859  0.592625  -0.725436
    O   O16   0.499773  0.971521  0.407769  -0.736680
    C   C5    0.000207  0.499564  0.621483  0.562768
    C   C6    0.999645  0.501193  0.379030  0.548763
    C   C7    0.500207  0.999564  0.621483  0.562754
    C   C8    0.499645  0.001193  0.379030  0.548766
    Zn  Zn1   0.000391  0.539340  0.499976  1.347259
    Zn  Zn2   0.500391  0.039340  0.499976  1.347264
    Zn  Zn3   0.999429  0.461415  0.500568  1.351033
    Zn  Zn4   0.499429  0.961415  0.500568  1.351046
    C   C9    0.024381  0.478390  0.706045  -0.155882
    C   C10   0.969133  0.491851  0.300411  -0.178385
    C   C11   0.524381  0.978390  0.706045  -0.155754
    C   C12   0.469133  0.991851  0.300411  -0.178392
    C   C13   0.994042  0.468168  0.776218  -0.142511
    C   C14   0.992414  0.469603  0.237740  -0.112797
    C   C15   0.494042  0.968168  0.776218  -0.142707
    C   C16   0.492414  0.969603  0.237740  -0.112754
    H   H1    0.988803  0.442114  0.799948  0.057821
    H   H2    0.986233  0.443689  0.225430  0.049145
    H   H3    0.488803  0.942114  0.799948  0.057857
    H   H4    0.486233  0.943689  0.225430  0.049141
    H   H5    0.044304  0.460808  0.667987  0.066433
    H   H6    0.943588  0.484448  0.343842  0.073812
    H   H7    0.544304  0.960808  0.667987  0.066416
    H   H8    0.443588  0.984448  0.343842  0.073809
    C   C17   0.000480  0.499556  0.809263  0.428495
    C   C18   0.000050  0.500569  0.190613  0.423488
    C   C19   0.500480  0.999556  0.809263  0.428678
    C   C20   0.500050  0.000569  0.190613  0.423436
    C   C21   0.030808  0.509757  0.740279  -0.128141
    C   C22   0.976760  0.522836  0.252116  -0.111675
    C   C23   0.530808  0.009757  0.740279  -0.128233
    C   C24   0.476760  0.022836  0.252116  -0.111642
    C   C25   0.006704  0.531008  0.723430  -0.116897
    C   C26   0.007414  0.532074  0.262840  -0.128738
    C   C27   0.506704  0.031008  0.723430  -0.116788
    C   C28   0.507414  0.032074  0.262840  -0.128739
    C   C29   0.976400  0.520802  0.793561  -0.173688
    C   C30   0.030731  0.509794  0.200115  -0.166146
    C   C31   0.476400  0.020802  0.793561  -0.173848
    C   C32   0.530731  0.009794  0.200115  -0.166127
    C   C33   0.969963  0.489392  0.759302  -0.061728
    C   C34   0.023108  0.478845  0.248428  -0.114972
    C   C35   0.469963  0.989392  0.759302  -0.061589
    C   C36   0.523108  0.978845  0.248428  -0.114993
    C   C37   0.000290  0.499618  0.690345  0.404801
    C   C38   0.999798  0.501097  0.309944  0.436368
    C   C39   0.500290  0.999618  0.690345  0.404696
    C   C40   0.499798  0.001097  0.309944  0.436343
    H   H9    0.056133  0.518268  0.733650  0.051170
    H   H10   0.957536  0.541104  0.251899  0.046698
    H   H11   0.556133  0.018268  0.733650  0.051183
    H   H12   0.457536  0.041104  0.251899  0.046693
    H   H13   0.012010  0.557160  0.700155  0.048791
    H   H14   0.013658  0.558076  0.274604  0.051363
    H   H15   0.512010  0.057160  0.700155  0.048777
    H   H16   0.513658  0.058076  0.274604  0.051364
    H   H17   0.956486  0.538403  0.831584  0.065617
    H   H18   0.056354  0.517266  0.157051  0.065990
    H   H19   0.456486  0.038403  0.831584  0.065648
    H   H20   0.556354  0.017266  0.157051  0.065978
    H   H21   0.944724  0.480965  0.765331  0.031893
    H   H22   0.042344  0.460593  0.248645  0.049805
    H   H23   0.444724  0.980965  0.765331  0.031873
    H   H24   0.542344  0.960593  0.248645  0.049812
    C   C41   0.376440  0.498058  0.067933  -0.146986
    C   C42   0.623221  0.498459  0.932232  -0.150932
    C   C43   0.876440  0.998058  0.067933  -0.146955
    C   C44   0.123221  0.998459  0.932232  -0.151075
    H   H25   0.389520  0.497014  0.010899  0.125842
    H   H26   0.610083  0.496809  0.989204  0.127660
    H   H27   0.889520  0.997014  0.010899  0.125841
    H   H28   0.110083  0.996809  0.989204  0.127737
    C   C45   0.340970  0.497782  0.103289  -0.135874
    C   C46   0.658682  0.498959  0.897170  -0.133801
    C   C47   0.840970  0.997782  0.103289  -0.135879
    C   C48   0.158682  0.998959  0.897170  -0.133766
    H   H29   0.327194  0.497088  0.073045  0.113272
    H   H30   0.672336  0.498201  0.927652  0.112420
    H   H31   0.827194  0.997088  0.073045  0.113271
    H   H32   0.172336  0.998201  0.927652  0.112407
    C   C49   0.323365  0.499336  0.176227  0.050852
    C   C50   0.676394  0.501355  0.824331  0.048105
    C   C51   0.823365  0.999336  0.176227  0.050794
    C   C52   0.176394  0.001355  0.824331  0.048067
    C   C53   0.341731  0.501002  0.213320  -0.094497
    C   C54   0.658114  0.503123  0.787054  -0.090558
    C   C55   0.841731  0.001002  0.213320  -0.094477
    C   C56   0.158114  0.003123  0.787054  -0.090469
    H   H33   0.328595  0.501568  0.270388  0.106334
    H   H34   0.671324  0.504309  0.730029  0.105507
    H   H35   0.828595  0.001568  0.270388  0.106349
    H   H36   0.171324  0.004309  0.730029  0.105494
    C   C57   0.377169  0.500945  0.178092  -0.186970
    C   C58   0.622675  0.502384  0.822006  -0.190579
    C   C59   0.877169  0.000945  0.178092  -0.186947
    C   C60   0.122675  0.002384  0.822006  -0.190770
    H   H37   0.390785  0.502036  0.208617  0.121605
    H   H38   0.609128  0.503611  0.791353  0.120889
    H   H39   0.890785  0.002036  0.208617  0.121533
    H   H40   0.109128  0.003611  0.791353  0.120933
    C   C61   0.394768  0.499531  0.105152  0.108884
    C   C62   0.604985  0.500081  0.894845  0.117700
    C   C63   0.894768  0.999531  0.105152  0.108939
    C   C64   0.104985  0.000081  0.894845  0.117929
    C   C65   0.267925  0.520484  0.271616  -0.149670
    C   C66   0.731698  0.523419  0.729729  -0.145713
    C   C67   0.767925  0.020484  0.271616  -0.149903
    C   C68   0.231698  0.023419  0.729729  -0.145739
    H   H41   0.281611  0.537851  0.288726  0.115491
    H   H42   0.717884  0.540670  0.712717  0.115428
    H   H43   0.781611  0.037851  0.288726  0.115560
    H   H44   0.217884  0.040670  0.712717  0.115434
    C   C69   0.232488  0.520439  0.307145  -0.151582
    C   C70   0.767150  0.523747  0.694355  -0.155755
    C   C71   0.732488  0.020439  0.307145  -0.151500
    C   C72   0.267150  0.023747  0.694355  -0.155742
    H   H45   0.219331  0.537050  0.352444  0.112724
    H   H46   0.780178  0.540488  0.649234  0.113780
    H   H47   0.719331  0.037050  0.352444  0.112721
    H   H48   0.280178  0.040488  0.649234  0.113778
    C   C73   0.214163  0.498859  0.286127  0.094338
    C   C74   0.785638  0.502274  0.715168  0.094420
    C   C75   0.714163  0.998859  0.286127  0.094310
    C   C76   0.285638  0.002274  0.715168  0.094415
    C   C77   0.231812  0.477457  0.228769  -0.155239
    C   C78   0.768127  0.480711  0.772314  -0.153631
    C   C79   0.731812  0.977457  0.228769  -0.155160
    C   C80   0.268127  0.980711  0.772314  -0.153621
    H   H49   0.218080  0.460711  0.210645  0.118057
    H   H50   0.781941  0.464061  0.790401  0.118120
    H   H51   0.718080  0.960711  0.210645  0.118042
    H   H52   0.281941  0.964061  0.790401  0.118115
    C   C81   0.267266  0.477800  0.192696  -0.142706
    C   C82   0.732683  0.480622  0.808104  -0.143691
    C   C83   0.767266  0.977800  0.192696  -0.142810
    C   C84   0.232683  0.980622  0.808104  -0.143693
    H   H53   0.280468  0.460579  0.148472  0.113249
    H   H54   0.719654  0.463148  0.851932  0.114557
    H   H55   0.780468  0.960579  0.148472  0.113261
    H   H56   0.219654  0.963148  0.851932  0.114558
    C   C85   0.285583  0.499233  0.214020  0.081680
    C   C86   0.714189  0.501862  0.786891  0.078737
    C   C87   0.785583  0.999233  0.214020  0.081855
    C   C88   0.214189  0.001862  0.786891  0.078754
    C   C89   0.158312  0.468279  0.338269  -0.137041
    C   C90   0.841353  0.471602  0.663294  -0.132965
    C   C91   0.658312  0.968279  0.338269  -0.137051
    C   C92   0.341353  0.971602  0.663294  -0.132969
    H   H57   0.171726  0.444006  0.322537  0.108910
    H   H58   0.827863  0.447388  0.679511  0.107396
    H   H59   0.671726  0.944006  0.322537  0.108907
    H   H60   0.327863  0.947388  0.679511  0.107398
    C   C93   0.122848  0.468296  0.374395  -0.109074
    C   C94   0.876785  0.471426  0.627152  -0.114752
    C   C95   0.622848  0.968296  0.374395  -0.109050
    C   C96   0.376785  0.971426  0.627152  -0.114750
    H   H61   0.109403  0.444038  0.384954  0.115231
    H   H62   0.890037  0.447079  0.617194  0.116169
    H   H63   0.609403  0.944038  0.384954  0.115228
    H   H64   0.390037  0.947079  0.617194  0.116164
    C   C97   0.104985  0.498910  0.396281  0.014494
    C   C98   0.894834  0.501894  0.604364  0.031580
    C   C99   0.604985  0.998910  0.396281  0.014467
    C   C100  0.394834  0.001894  0.604364  0.031598
    C   C101  0.123049  0.529455  0.381893  -0.126241
    C   C102  0.876953  0.532523  0.617900  -0.134965
    C   C103  0.623049  0.029455  0.381893  -0.126221
    C   C104  0.376953  0.032523  0.617900  -0.134957
    H   H65   0.109803  0.553788  0.398162  0.116926
    H   H66   0.890378  0.556733  0.600906  0.119278
    H   H67   0.609803  0.053788  0.398162  0.116911
    H   H68   0.390378  0.056733  0.600906  0.119281
    C   C105  0.158485  0.529378  0.346408  -0.114619
    C   C106  0.841488  0.532644  0.653626  -0.114791
    C   C107  0.658485  0.029378  0.346408  -0.114628
    C   C108  0.341488  0.032644  0.653626  -0.114807
    H   H69   0.171979  0.553636  0.334869  0.104114
    H   H70   0.828117  0.556959  0.664600  0.104656
    H   H71   0.671979  0.053636  0.334869  0.104121
    H   H72   0.328117  0.056959  0.664600  0.104659
    C   C109  0.176382  0.498815  0.324188  0.054629
    C   C110  0.823428  0.502194  0.676783  0.053661
    C   C111  0.676382  0.998815  0.324188  0.054627
    C   C112  0.323428  0.002194  0.676783  0.053666
    O   O17   0.970351  0.448168  0.031612  -0.697162
    O   O18   0.029665  0.449119  0.969564  -0.721761
    O   O19   0.470351  0.948168  0.031612  -0.697197
    O   O20   0.529665  0.949119  0.969564  -0.721714
    C   C113  0.000242  0.432601  0.000443  0.703711
    C   C114  0.500242  0.932601  0.000443  0.703859
    O   O21   0.971221  0.498257  0.936006  -0.741291
    O   O22   0.029345  0.501329  0.063849  -0.732452
    O   O23   0.471221  0.998257  0.936006  -0.741381
    O   O24   0.529345  0.001329  0.063849  -0.732468
    O   O25   0.030571  0.501085  0.877154  -0.704659
    O   O26   0.969976  0.498892  0.122724  -0.716672
    O   O27   0.530571  0.001085  0.877154  -0.704715
    O   O28   0.469976  0.998892  0.122724  -0.716731
    C   C115  0.000761  0.499570  0.877931  0.563095
    C   C116  0.999800  0.500223  0.121926  0.565457
    C   C117  0.500761  0.999570  0.877931  0.563127
    C   C118  0.499800  0.000223  0.121926  0.565500
    Zn  Zn5   0.961345  0.499419  0.038158  1.348866
    Zn  Zn6   0.039204  0.500319  0.961707  1.348010
    Zn  Zn7   0.461345  0.999419  0.038158  1.348963
    Zn  Zn8   0.539204  0.000319  0.961707  1.348011
    O   O29   0.970897  0.550617  0.029938  -0.701794
    O   O30   0.030183  0.551572  0.968640  -0.685339
    O   O31   0.470897  0.050617  0.029938  -0.701874
    O   O32   0.530183  0.051572  0.968640  -0.685366
    C   C119  0.000304  0.567184  0.999460  0.681434
    C   C120  0.500304  0.067184  0.999460  0.681550
    O   O33   0.499297  0.448064  0.055538  -0.684118
    O   O34   0.500531  0.448250  0.947095  -0.699076
    O   O35   0.999297  0.948064  0.055538  -0.684226
    O   O36   0.000531  0.948250  0.947095  -0.699136
    C   C121  0.499921  0.432054  0.001231  0.663661
    C   C122  0.999921  0.932054  0.001231  0.663842
    O   O37   0.448773  0.498669  0.105441  -0.677055
    O   O38   0.550986  0.500267  0.894379  -0.673767
    O   O39   0.948773  0.998669  0.105441  -0.676789
    O   O40   0.050986  0.000267  0.894379  -0.673730
    O   O41   0.448468  0.500310  0.998524  -0.755590
    O   O42   0.551278  0.498823  0.001311  -0.755332
    O   O43   0.948468  0.000310  0.998524  -0.755532
    O   O44   0.051278  0.998823  0.001311  -0.755453
    C   C123  0.432495  0.499476  0.067857  0.670631
    C   C124  0.567259  0.499555  0.931983  0.662878
    C   C125  0.932495  0.999476  0.067857  0.670324
    C   C126  0.067259  0.999555  0.931983  0.662856
    Zn  Zn9   0.500218  0.499449  0.069977  1.348425
    Zn  Zn10  0.499534  0.499365  0.929921  1.346584
    Zn  Zn11  0.000218  0.999449  0.069977  1.348486
    Zn  Zn12  0.999534  0.999365  0.929921  1.346538
    O   O45   0.499190  0.550533  0.052814  -0.746922
    O   O46   0.500488  0.550714  0.944350  -0.730296
    O   O47   0.999190  0.050533  0.052814  -0.747066
    O   O48   0.000488  0.050714  0.944350  -0.730308
    C   C127  0.499836  0.566767  0.998655  0.786183
    C   C128  0.999836  0.066767  0.998655  0.786277
    C   C129  0.523399  0.622369  0.012945  0.196746
    C   C130  0.476981  0.622729  0.984032  0.182826
    C   C131  0.023399  0.122369  0.012945  0.196735
    C   C132  0.976981  0.122729  0.984032  0.182767
    C   C133  0.522882  0.657960  0.014229  -0.269011
    C   C134  0.478011  0.658306  0.982348  -0.260701
    C   C135  0.022882  0.157960  0.014229  -0.269017
    C   C136  0.978011  0.158306  0.982348  -0.260661
    H   H73   0.539453  0.671985  0.029298  0.168076
    H   H74   0.461645  0.672585  0.967104  0.165516
    H   H75   0.039453  0.171985  0.029298  0.168083
    H   H76   0.961645  0.172585  0.967104  0.165512
    C   C137  0.500565  0.676065  0.998220  0.034267
    C   C138  0.000565  0.176065  0.998220  0.034259
    C   C139  0.500045  0.604576  0.998631  -0.364096
    C   C140  0.000045  0.104576  0.998631  -0.364006
    C   C141  0.470480  0.732210  0.020467  -0.160175
    C   C142  0.531140  0.731972  0.976207  -0.161808
    C   C143  0.970480  0.232210  0.020467  -0.160135
    C   C144  0.031140  0.231972  0.976207  -0.161809
    H   H77   0.446119  0.719142  0.039510  0.102804
    H   H78   0.555405  0.718699  0.957031  0.103765
    H   H79   0.946119  0.219142  0.039510  0.102801
    H   H80   0.055405  0.218699  0.957031  0.103776
    C   C145  0.970644  0.267623  0.020002  -0.123815
    C   C146  0.031209  0.267399  0.977175  -0.126056
    C   C147  0.470644  0.767623  0.020002  -0.123674
    C   C148  0.531209  0.767399  0.977175  -0.125954
    H   H81   0.946600  0.280813  0.035652  0.115695
    H   H82   0.055325  0.280418  0.961679  0.116757
    H   H83   0.446600  0.780813  0.035652  0.115657
    H   H84   0.555325  0.780418  0.961679  0.116732
    C   C149  0.000972  0.285644  0.998823  0.015984
    C   C150  0.500972  0.785644  0.998823  0.015651
    C   C151  0.500743  0.713975  0.998258  0.151873
    C   C152  0.000743  0.213975  0.998258  0.151839
    C   C153  0.028894  0.341862  0.949686  -0.134935
    C   C154  0.973051  0.341525  0.049813  -0.133801
    C   C155  0.528894  0.841862  0.949686  -0.135123
    C   C156  0.473051  0.841525  0.049813  -0.133780
    H   H85   0.050760  0.328874  0.908288  0.104629
    H   H86   0.951292  0.328290  0.090955  0.104050
    H   H87   0.550760  0.828874  0.908288  0.104681
    H   H88   0.451292  0.828290  0.090955  0.104016
    C   C157  0.028903  0.377302  0.950699  -0.144235
    C   C158  0.972727  0.376931  0.049574  -0.144243
    C   C159  0.528903  0.877302  0.950699  -0.144101
    C   C160  0.472727  0.876931  0.049574  -0.144222
    H   H89   0.050861  0.390967  0.910977  0.129409
    H   H90   0.950606  0.390274  0.089583  0.129818
    H   H91   0.550861  0.890967  0.910977  0.129367
    H   H92   0.450606  0.890274  0.089583  0.129815
    C   C161  0.000695  0.394993  0.000256  0.046370
    C   C162  0.500695  0.894993  0.000256  0.046125
    C   C163  0.001003  0.323571  0.999447  0.097721
    C   C164  0.501003  0.823571  0.999447  0.098056
    C   C165  0.501580  0.376573  0.943792  -0.154199
    C   C166  0.497594  0.376297  0.058448  -0.152622
    C   C167  0.001580  0.876573  0.943792  -0.154077
    C   C168  0.997594  0.876297  0.058448  -0.152553
    H   H93   0.503142  0.390015  0.898378  0.125514
    H   H94   0.496214  0.389529  0.103914  0.124774
    H   H95   0.003142  0.890015  0.898378  0.125494
    H   H96   0.996214  0.889529  0.103914  0.124763
    C   C169  0.501404  0.341153  0.943680  -0.136932
    C   C170  0.497200  0.340870  0.058458  -0.138501
    C   C171  0.001404  0.841153  0.943680  -0.137025
    C   C172  0.997200  0.840870  0.058458  -0.138566
    H   H97   0.502283  0.327844  0.898729  0.112503
    H   H98   0.496115  0.327317  0.103350  0.113732
    H   H99   0.002283  0.827844  0.898729  0.112509
    H   H100  0.996115  0.827317  0.103350  0.113750
    C   C173  0.499165  0.323046  0.001031  0.078421
    C   C174  0.999165  0.823046  0.001031  0.078507
    C   C175  0.499739  0.394371  0.001135  0.079375
    C   C176  0.999739  0.894371  0.001135  0.079242
    C   C177  0.477510  0.267266  0.061192  -0.133758
    C   C178  0.520392  0.267390  0.940208  -0.131932
    C   C179  0.977510  0.767266  0.061192  -0.133775
    C   C180  0.020392  0.767390  0.940208  -0.131889
    H   H101  0.460151  0.280648  0.108959  0.108386
    H   H102  0.537822  0.280849  0.892615  0.108936
    H   H103  0.960151  0.780648  0.108959  0.108383
    H   H104  0.037822  0.780849  0.892615  0.108924
    C   C181  0.977367  0.731837  0.060897  -0.159976
    C   C182  0.020467  0.731977  0.940091  -0.163074
    C   C183  0.477367  0.231837  0.060897  -0.160005
    C   C184  0.520467  0.231977  0.940091  -0.163022
    H   H105  0.960667  0.718354  0.109051  0.116520
    H   H106  0.037193  0.718618  0.891786  0.116245
    H   H107  0.460667  0.218354  0.109051  0.116525
    H   H108  0.537193  0.218618  0.891786  0.116212
    C   C185  0.998943  0.713937  0.000410  0.098066
    C   C186  0.498943  0.213937  0.000410  0.098054
    C   C187  0.498997  0.285298  0.000818  0.073036
    C   C188  0.998997  0.785298  0.000818  0.073006
    C   C189  0.029884  0.658496  0.965808  -0.120613
    C   C190  0.968797  0.657955  0.034580  -0.129235
    C   C191  0.529884  0.158496  0.965808  -0.120621
    C   C192  0.468797  0.157955  0.034580  -0.129240
    H   H109  0.054048  0.672129  0.939855  0.104483
    H   H110  0.944410  0.671184  0.060800  0.105267
    H   H111  0.554048  0.172129  0.939855  0.104491
    H   H112  0.444410  0.171184  0.060800  0.105271
    C   C193  0.030230  0.623089  0.965731  -0.138347
    C   C194  0.969089  0.622514  0.034158  -0.128533
    C   C195  0.530230  0.123089  0.965731  -0.138354
    C   C196  0.469089  0.122514  0.034158  -0.128547
    H   H113  0.054660  0.610003  0.938657  0.127545
    H   H114  0.944935  0.608930  0.061062  0.125828
    H   H115  0.554660  0.110003  0.938657  0.127549
    H   H116  0.444935  0.108930  0.061062  0.125840
    C   C197  0.999830  0.604865  0.999795  0.037916
    C   C198  0.499830  0.104865  0.999795  0.037894
    C   C199  0.999187  0.676190  0.000269  0.054267
    C   C200  0.499187  0.176190  0.000269  0.054290
    C   C201  0.549757  0.603295  0.024963  0.246508
    O   O49   0.575255  0.625456  0.021794  -0.624765
    H   H117  0.562310  0.583453  0.983453  0.020613
    H   H118  0.537308  0.590780  0.077567  0.060097
    H   H119  0.595357  0.620631  0.975362  0.355159
    C   C202  0.450396  0.604058  0.972102  0.260312
    O   O50   0.425192  0.626582  0.975084  -0.626218
    H   H120  0.437582  0.584325  0.013737  0.019259
    H   H121  0.462698  0.591454  0.919584  0.057357
    H   H122  0.405111  0.622170  0.021779  0.354011
    C   C203  0.049757  0.103295  0.024963  0.246439
    O   O51   0.075255  0.125456  0.021794  -0.624757
    H   H123  0.062310  0.083453  0.983453  0.020650
    H   H124  0.037308  0.090780  0.077567  0.060139
    H   H125  0.095357  0.120631  0.975362  0.355154
    C   C204  0.950396  0.104058  0.972102  0.260202
    O   O52   0.925192  0.126582  0.975084  -0.626179
    H   H126  0.937582  0.084325  0.013737  0.019327
    H   H127  0.962698  0.091454  0.919584  0.057374
    H   H128  0.905111  0.122170  0.021779  0.353995
