# Generated by REPEAT Assigner based on pymatgen
data_DB0-m3_o21_o26_f0_pcu.sym.39
_audit_creation_date              2022-05-24
_audit_creation_method            REPEAT_Assigner
_cell_length_a                    12.979435
_cell_length_b                    14.092887
_cell_length_c                    17.490621
_cell_angle_alpha                 89.712555
_cell_angle_beta                  90.251107
_cell_angle_gamma                 91.092114
_cell_volume                      3198.693501
_symmetry_space_group_name_H-M    P1
_symmetry_Int_Tables_number       1
loop_
    _symmetry_equiv_pos_site_id
    _symmetry_equiv_pos_as_xyz
    1  x,y,z
loop_
    _atom_site_type_symbol
    _atom_site_label
    _atom_site_fract_x
    _atom_site_fract_y
    _atom_site_fract_z
    _atom_type_partial_charge
    O   O1   0.398802  0.366410  0.503409  -0.676476
    O   O2   0.600647  0.638484  0.492446  -0.703086
    O   O3   0.575922  0.356236  0.497108  -0.691425
    O   O4   0.423400  0.648664  0.498713  -0.705900
    C   C1   0.483520  0.317316  0.500962  0.942982
    C   C2   0.515859  0.687558  0.494839  0.983823
    O   O5   0.402457  0.505788  0.387316  -0.644505
    O   O6   0.596844  0.499068  0.608523  -0.627137
    O   O7   0.579522  0.495563  0.381043  -0.643435
    O   O8   0.419936  0.509343  0.614794  -0.631910
    C   C3   0.488434  0.500096  0.348420  0.646677
    C   C4   0.510943  0.504781  0.647436  0.617272
    Zn  Zn1  0.382962  0.509150  0.502142  1.086140
    Zn  Zn2  0.616425  0.495732  0.493710  1.093858
    C   C5   0.482590  0.498419  0.264633  -0.007248
    C   C6   0.516817  0.506355  0.731216  0.009470
    C   C7   0.571170  0.490557  0.221741  -0.118138
    C   C8   0.428566  0.516231  0.774165  -0.083765
    C   C9   0.566030  0.488662  0.142987  -0.210451
    C   C10  0.433925  0.518189  0.852921  -0.223316
    C   C11  0.471861  0.495354  0.105857  0.250459
    C   C12  0.527948  0.509621  0.889937  0.268702
    C   C13  0.383448  0.501708  0.149005  -0.243119
    C   C14  0.616042  0.501194  0.846735  -0.246801
    C   C15  0.388536  0.503679  0.227732  -0.051120
    C   C16  0.610695  0.498964  0.768036  -0.096336
    C   C17  0.461060  0.492734  0.021874  -0.214161
    C   C18  0.538928  0.512426  0.973870  -0.231615
    H   H1   0.645660  0.484981  0.249033  0.118107
    H   H2   0.354253  0.523470  0.746907  0.101676
    H   H3   0.680967  0.491237  0.736004  0.118300
    H   H4   0.317886  0.509335  0.259688  0.096590
    H   H5   0.614640  0.530583  0.995875  0.127830
    H   H6   0.385460  0.474401  0.999711  0.136184
    H   H7   0.309216  0.506024  0.121077  0.122748
    H   H8   0.690164  0.495316  0.874600  0.119160
    H   H9   0.363550  0.528999  0.883976  0.129472
    H   H10  0.636828  0.479523  0.112090  0.134061
    C   C19  0.524685  0.789204  0.493234  -0.355335
    C   C20  0.474682  0.215670  0.502539  -0.352006
    C   C21  0.540561  0.976439  0.490376  -0.042418
    C   C22  0.458780  0.028436  0.505357  -0.125207
    C   C23  0.467387  0.130309  0.503831  0.070059
    C   C24  0.531964  0.874565  0.491920  0.045185
    H   H11  0.385596  0.994054  0.518732  0.155878
    H   H12  0.613745  0.010823  0.477004  0.136883
    N   N1   0.229592  0.517878  0.508095  -0.145736
    N   N2   0.769799  0.486807  0.487949  -0.150028
    C   C25  0.031097  0.522194  0.525652  0.015156
    C   C26  0.968275  0.467015  0.483034  0.028613
    C   C27  0.858279  0.478635  0.485622  0.129110
    C   C28  0.141088  0.520209  0.515240  0.134475
    C   C29  0.009164  0.398517  0.428317  0.093480
    C   C30  0.974788  0.399627  0.353576  -0.108539
    C   C31  0.009821  0.334017  0.302121  -0.304358
    C   C32  0.078119  0.265455  0.324768  0.445176
    O   O9   0.110365  0.202827  0.272207  -0.329404
    C   C33  0.178015  0.131362  0.287470  0.077096
    C   C34  0.110781  0.262708  0.400368  -0.193128
    C   C35  0.075738  0.328560  0.451730  -0.178535
    H   H13  0.921441  0.452863  0.334537  0.138768
    H   H14  0.983423  0.336250  0.243451  0.156940
    H   H15  0.191356  0.090950  0.234298  0.067970
    H   H16  0.144999  0.082179  0.331032  0.023202
    H   H17  0.252778  0.161800  0.307490  0.036784
    H   H18  0.163083  0.209742  0.421257  0.135494
    H   H19  0.099894  0.324130  0.510843  0.139534
    C   C36  0.990346  0.590369  0.580637  0.087397
    C   C37  0.023970  0.683770  0.577933  -0.079814
    C   C38  0.989864  0.747787  0.631034  -0.338028
    C   C39  0.923502  0.719151  0.688407  0.478429
    O   O10  0.892315  0.784444  0.739189  -0.329858
    C   C40  0.826688  0.764938  0.798845  0.084119
    C   C41  0.891676  0.624734  0.692382  -0.242787
    C   C42  0.925448  0.560900  0.638911  -0.154763
    H   H20  0.076128  0.707675  0.533521  0.130045
    H   H21  0.015670  0.821074  0.627852  0.165729
    H   H22  0.813750  0.831123  0.831159  0.069372
    H   H23  0.861427  0.712183  0.838037  0.013484
    H   H24  0.751442  0.738117  0.776681  0.032560
    H   H25  0.841189  0.598432  0.736880  0.151293
    H   H26  0.901996  0.487116  0.643811  0.134143
