data_DB0-m3_o11_o29_f0_pcu.sym.25_repeat
_audit_creation_date              2024-02-20
_audit_creation_method            'Materials Studio'
_symmetry_space_group_name_H-M    'P1'
_symmetry_Int_Tables_number       1
_symmetry_cell_setting            triclinic
loop_
_symmetry_equiv_pos_as_xyz
  x,y,z
_cell_length_a                    27.6398
_cell_length_b                    11.1247
_cell_length_c                    9.9276
_cell_angle_alpha                 89.9974
_cell_angle_beta                  89.9930
_cell_angle_gamma                 89.9936
loop_
_atom_site_label
_atom_site_type_symbol
_atom_site_fract_x
_atom_site_fract_y
_atom_site_fract_z
_atom_site_U_iso_or_equiv
_atom_site_adp_type
_atom_site_occupancy
O1     O     0.50078   0.31999   0.61299   0.00000  Uiso   1.00
O2     O     0.49854   0.31723   0.38067   0.00000  Uiso   1.00
C1     C     0.50000   0.26252   0.49791   0.00000  Uiso   1.00
O3     O     0.42799   0.49599   0.62300   0.00000  Uiso   1.00
O4     O     0.42521   0.49428   0.39083   0.00000  Uiso   1.00
C2     C     0.40394   0.49425   0.50893   0.00000  Uiso   1.00
Zn1    Zn    0.50068   0.49910   0.64935   0.00000  Uiso   1.00
Zn2    Zn    0.49644   0.49623   0.34300   0.00000  Uiso   1.00
O5     O     0.49858   0.67808   0.61160   0.00000  Uiso   1.00
O6     O     0.49654   0.67546   0.37914   0.00000  Uiso   1.00
O7     O     0.57192   0.50086   0.60148   0.00000  Uiso   1.00
O8     O     0.56915   0.49913   0.36922   0.00000  Uiso   1.00
C3     C     0.49781   0.73301   0.49450   0.00000  Uiso   1.00
C4     C     0.59319   0.50062   0.48334   0.00000  Uiso   1.00
C5     C     0.17471   0.39631   0.46484   0.00000  Uiso   1.00
O9     O     0.19942   0.30067   0.41892   0.00000  Uiso   1.00
N1     N     0.19892   0.49034   0.51738   0.00000  Uiso   1.00
C6     C     0.17467   0.58577   0.56656   0.00000  Uiso   1.00
C7     C     0.27514   0.48451   0.39565   0.00000  Uiso   1.00
C8     C     0.32496   0.48578   0.39350   0.00000  Uiso   1.00
C9     C     0.32624   0.49826   0.63365   0.00000  Uiso   1.00
C10    C     0.27629   0.49765   0.63543   0.00000  Uiso   1.00
C11    C     0.25056   0.49055   0.51640   0.00000  Uiso   1.00
C12    C     0.09917   0.49399   0.50843   0.00000  Uiso   1.00
C13    C     0.12468   0.39714   0.45954   0.00000  Uiso   1.00
C14    C     0.10010   0.30091   0.40644   0.00000  Uiso   1.00
C15    C     0.12461   0.58855   0.56293   0.00000  Uiso   1.00
C16    C     0.35087   0.49258   0.51248   0.00000  Uiso   1.00
H1     H     0.34558   0.50363   0.72804   0.00000  Uiso   1.00
H2     H     0.25740   0.50158   0.73071   0.00000  Uiso   1.00
H3     H     0.11903   0.22238   0.37006   0.00000  Uiso   1.00
C17    C     0.64627   0.50204   0.47984   0.00000  Uiso   1.00
C18    C     0.97360   0.40738   0.43013   0.00000  Uiso   1.00
C19    C     0.97307   0.59325   0.55522   0.00000  Uiso   1.00
C20    C     0.94841   0.50151   0.48958   0.00000  Uiso   1.00
C21    C     0.94747   0.32153   0.35815   0.00000  Uiso   1.00
C22    C     0.89791   0.32569   0.35175   0.00000  Uiso   1.00
C23    C     0.87293   0.41577   0.41585   0.00000  Uiso   1.00
C24    C     0.89808   0.50372   0.48367   0.00000  Uiso   1.00
C25    C     0.87226   0.59364   0.54600   0.00000  Uiso   1.00
C26    C     0.82223   0.59403   0.54088   0.00000  Uiso   1.00
N2     N     0.79827   0.50638   0.47509   0.00000  Uiso   1.00
C27    C     0.82286   0.41801   0.41238   0.00000  Uiso   1.00
C28    C     0.72202   0.50006   0.59687   0.00000  Uiso   1.00
C29    C     0.67220   0.49867   0.59894   0.00000  Uiso   1.00
C30    C     0.67088   0.50666   0.35859   0.00000  Uiso   1.00
C31    C     0.72083   0.50817   0.35683   0.00000  Uiso   1.00
C32    C     0.74660   0.50507   0.47603   0.00000  Uiso   1.00
O10    O     0.79849   0.32958   0.34994   0.00000  Uiso   1.00
C33    C     0.02405   0.40171   0.44276   0.00000  Uiso   1.00
C34    C     0.04884   0.49644   0.50237   0.00000  Uiso   1.00
C35    C     0.02378   0.59371   0.55566   0.00000  Uiso   1.00
C36    C     0.05056   0.30270   0.39840   0.00000  Uiso   1.00
H4     H     0.65406   0.49433   0.69522   0.00000  Uiso   1.00
H5     H     0.74173   0.49584   0.69081   0.00000  Uiso   1.00
H6     H     0.87930   0.25680   0.29520   0.00000  Uiso   1.00
H7     H     0.96394   0.25022   0.30143   0.00000  Uiso   1.00
H8     H     0.03441   0.22208   0.35939   0.00000  Uiso   1.00
O11    O     0.19940   0.68006   0.61573   0.00000  Uiso   1.00
C37    C     0.09998   0.68682   0.61092   0.00000  Uiso   1.00
H9     H     0.34313   0.48141   0.29727   0.00000  Uiso   1.00
H10    H     0.25540   0.48035   0.30177   0.00000  Uiso   1.00
H11    H     0.11892   0.76354   0.65179   0.00000  Uiso   1.00
C38    C     0.94610   0.68200   0.62003   0.00000  Uiso   1.00
C39    C     0.89649   0.68209   0.61496   0.00000  Uiso   1.00
O12    O     0.79727   0.68332   0.59999   0.00000  Uiso   1.00
C40    C     0.05037   0.68979   0.60724   0.00000  Uiso   1.00
H12    H     0.96175   0.75227   0.68002   0.00000  Uiso   1.00
H13    H     0.65151   0.50966   0.26410   0.00000  Uiso   1.00
H14    H     0.87724   0.75264   0.66712   0.00000  Uiso   1.00
H15    H     0.73964   0.51314   0.26151   0.00000  Uiso   1.00
H16    H     0.03438   0.77181   0.64293   0.00000  Uiso   1.00
C41    C     0.51511   0.93352   0.39517   0.00000  Uiso   1.00
C42    C     0.49617   0.86518   0.49400   0.00000  Uiso   1.00
H17    H     0.47593   0.90641   0.57503   0.00000  Uiso   1.00
C43    C     0.50691   0.06491   0.39153   0.00000  Uiso   1.00
C44    C     0.50289   0.13100   0.50328   0.00000  Uiso   1.00
H18    H     0.50823   0.11011   0.29499   0.00000  Uiso   1.00
H19    H     0.50516   0.08993   0.60189   0.00000  Uiso   1.00
C45    C     0.52155   0.58248   0.92995   0.00000  Uiso   1.00
N3     N     0.50504   0.50025   0.85070   0.00000  Uiso   1.00
H20    H     0.49525   0.42106   0.89620   0.00000  Uiso   1.00
C46    C     0.52260   0.56555   0.07802   0.00000  Uiso   1.00
N4     N     0.49300   0.49688   0.14169   0.00000  Uiso   1.00
H21    H     0.54898   0.61626   0.13528   0.00000  Uiso   1.00
H22    H     0.46444   0.46176   0.08848   0.00000  Uiso   1.00
N5     N     0.54525   0.88246   0.29270   0.00000  Uiso   1.00
O13    O     0.55122   0.94127   0.18079   0.00000  Uiso   1.00
O14    O     0.57693   0.80095   0.32510   0.00000  Uiso   1.00
N6     N     0.54310   0.68906   0.87687   0.00000  Uiso   1.00
O15    O     0.54171   0.78691   0.94824   0.00000  Uiso   1.00
O16    O     0.57463   0.68083   0.78030   0.00000  Uiso   1.00
