# Generated by REPEAT Assigner based on pymatgen
data_DB0-m3_o8_o9_f0_pcu.sym.79
_audit_creation_date              2022-05-24
_audit_creation_method            REPEAT_Assigner
_cell_length_a                    10.975147
_cell_length_b                    15.977490
_cell_length_c                    17.111495
_cell_angle_alpha                 89.116627
_cell_angle_beta                  89.992999
_cell_angle_gamma                 92.777275
_cell_volume                      2996.709621
_symmetry_space_group_name_H-M    P1
_symmetry_Int_Tables_number       1
loop_
    _symmetry_equiv_pos_site_id
    _symmetry_equiv_pos_as_xyz
    1  x,y,z
loop_
    _atom_site_type_symbol
    _atom_site_label
    _atom_site_fract_x
    _atom_site_fract_y
    _atom_site_fract_z
    _atom_type_partial_charge
    O   O1   0.497870  0.420786  0.613408  -0.694646
    O   O2   0.502324  0.579605  0.386606  -0.694457
    O   O3   0.503679  0.564976  0.619287  -0.663912
    O   O4   0.496516  0.435414  0.380727  -0.665309
    C   C1   0.500894  0.490549  0.652945  0.754055
    C   C2   0.499301  0.509841  0.347069  0.755181
    O   O5   0.678237  0.432861  0.496686  -0.729573
    O   O6   0.321957  0.567529  0.503328  -0.727415
    O   O7   0.685510  0.577101  0.502152  -0.618548
    O   O8   0.314683  0.423289  0.497861  -0.619405
    C   C3   0.739288  0.505397  0.498917  0.844311
    C   C4   0.260906  0.494994  0.501096  0.842384
    Zn  Zn1  0.496229  0.405095  0.496145  1.047701
    Zn  Zn2  0.503965  0.595295  0.503869  1.041193
    H   H1   0.748236  0.736570  0.769097  0.119552
    H   H2   0.251966  0.263899  0.230859  0.119679
    C   C5   0.831418  0.735217  0.656336  -0.054945
    C   C6   0.168781  0.265213  0.343621  -0.054274
    H   H3   0.828724  0.802245  0.647537  0.091972
    H   H4   0.171472  0.198182  0.352399  0.091676
    C   C7   0.881321  0.686650  0.599833  -0.290914
    C   C8   0.118876  0.313760  0.400140  -0.289187
    H   H5   0.918204  0.715742  0.546910  0.125244
    H   H6   0.081990  0.284649  0.453053  0.124932
    C   C9   0.884724  0.601008  0.610935  0.281760
    C   C10  0.115475  0.399406  0.389064  0.276686
    C   C11  0.838478  0.564177  0.678852  -0.135308
    C   C12  0.161726  0.436260  0.321158  -0.133128
    H   H7   0.842037  0.497264  0.688117  0.078864
    H   H8   0.158168  0.503176  0.311914  0.077983
    C   C13  0.790354  0.612978  0.735827  -0.077696
    C   C14  0.209850  0.387480  0.264167  -0.077833
    H   H9   0.756508  0.584270  0.789660  0.093716
    H   H10  0.243698  0.416206  0.210344  0.093824
    C   C15  0.786276  0.698411  0.724453  -0.207755
    C   C16  0.213926  0.302043  0.275515  -0.208263
    C   C17  0.067801  0.544558  0.554714  0.272134
    C   C18  0.932393  0.455835  0.445299  0.274371
    C   C19  0.126682  0.495392  0.501741  -0.285233
    C   C20  0.873512  0.505000  0.498273  -0.288148
    C   C21  0.057730  0.450231  0.447572  -0.071040
    C   C22  0.942465  0.550164  0.552440  -0.072402
    C   C23  0.500433  0.484985  0.738629  -0.074413
    C   C24  0.499770  0.515405  0.261385  -0.074396
    C   C25  0.488995  0.556084  0.782572  0.038346
    C   C26  0.511216  0.444306  0.217442  0.037268
    C   C27  0.489554  0.551226  0.863159  -0.169465
    C   C28  0.510665  0.449165  0.136855  -0.168860
    C   C29  0.501470  0.474432  0.900743  0.415984
    C   C30  0.498750  0.525959  0.099271  0.416656
    C   C31  0.511542  0.403565  0.856691  -0.298356
    C   C32  0.488673  0.596825  0.143322  -0.299587
    C   C33  0.510906  0.408511  0.776219  -0.124444
    C   C34  0.489298  0.591879  0.223794  -0.123938
    N   N1   0.503835  0.466181  0.983200  -0.220127
    N   N2   0.496387  0.534210  0.016813  -0.220434
    H   H11  0.520580  0.383861  0.245400  0.087773
    H   H12  0.479631  0.616530  0.754614  0.087292
    H   H13  0.519595  0.391554  0.105517  0.052130
    H   H14  0.480629  0.608837  0.894498  0.052415
    H   H15  0.520582  0.343542  0.885580  0.117182
    H   H16  0.479633  0.656848  0.114432  0.117639
    H   H17  0.519794  0.351860  0.743450  0.177766
    H   H18  0.480405  0.648529  0.256563  0.177857
    N   N3   0.505252  0.720288  0.508884  -0.061957
    N   N4   0.494941  0.280103  0.491130  -0.066761
    C   C35  0.557801  0.768583  0.451893  -0.022397
    C   C36  0.442366  0.231807  0.548111  -0.019366
    C   C37  0.544862  0.854263  0.449684  0.023730
    C   C38  0.455297  0.146126  0.550320  0.021832
    C   C39  0.477772  0.890783  0.508280  0.436798
    C   C40  0.522407  0.109605  0.491734  0.438590
    C   C41  0.424758  0.839613  0.565515  -0.353305
    C   C42  0.575445  0.160777  0.434508  -0.355169
    C   C43  0.439481  0.754602  0.565299  0.054120
    C   C44  0.560729  0.245788  0.434724  0.057109
    N   N5   0.455131  0.977274  0.509804  -0.220631
    N   N6   0.545044  0.023114  0.490209  -0.221057
    H   H19  0.393607  0.260607  0.594673  0.091214
    H   H20  0.606545  0.739783  0.405325  0.091786
    H   H21  0.370267  0.866321  0.610556  0.163278
    H   H22  0.629950  0.134068  0.389475  0.163514
    H   H23  0.394943  0.715136  0.609605  0.150229
    H   H24  0.605283  0.285254  0.390425  0.149561
    S   S1   0.394942  0.089375  0.634239  -0.154786
    C   C45  0.530867  0.113016  0.691830  0.110410
    H   H25  0.532118  0.069280  0.742751  0.057266
    H   H26  0.530330  0.178310  0.712832  -0.015271
    H   H27  0.613389  0.104611  0.655958  -0.004562
    S   S2   0.605174  0.911015  0.365754  -0.155082
    C   C46  0.469294  0.887269  0.308152  0.112352
    H   H28  0.467815  0.931143  0.257343  0.056704
    H   H29  0.386749  0.895398  0.344080  -0.005235
    H   H30  0.470098  0.822047  0.286986  -0.015834
    S   S3   0.150873  0.596417  0.631669  -0.172101
    C   C47  0.141822  0.503936  0.694941  -0.029880
    H   H31  0.232066  0.475878  0.697905  0.019286
    H   H32  0.074001  0.457076  0.671664  0.021482
    H   H33  0.112827  0.521770  0.754246  0.031641
    S   S4   0.849320  0.403981  0.368341  -0.172819
    C   C48  0.858377  0.496465  0.305072  -0.026152
    H   H34  0.926184  0.543328  0.328360  0.020525
    H   H35  0.768130  0.524517  0.302098  0.018095
    H   H36  0.887394  0.478635  0.245771  0.030733
