# Generated by REPEAT Assigner based on pymatgen
data_DB0-m3_o25_o530_f0_fsc.sym.32
_audit_creation_date              2022-05-24
_audit_creation_method            REPEAT_Assigner
_cell_length_a                    18.928758
_cell_length_b                    8.537554
_cell_length_c                    14.313708
_cell_angle_alpha                 90.000000
_cell_angle_beta                  102.018206
_cell_angle_gamma                 90.000000
_cell_volume                      2262.469585
_symmetry_space_group_name_H-M    P1
_symmetry_Int_Tables_number       1
loop_
    _symmetry_equiv_pos_site_id
    _symmetry_equiv_pos_as_xyz
    1  x,y,z
loop_
    _atom_site_type_symbol
    _atom_site_label
    _atom_site_fract_x
    _atom_site_fract_y
    _atom_site_fract_z
    _atom_type_partial_charge
    C   C1   0.842693  0.917045  0.950590  0.470644
    C   C2   0.157343  0.088734  0.049358  0.468188
    C   C3   0.129316  0.914121  0.920537  0.454986
    C   C4   0.870734  0.091673  0.079401  0.465244
    N   N1   0.822189  0.004219  0.018954  -0.210184
    N   N2   0.177841  0.001690  0.980943  -0.199950
    C   C5   0.942529  0.092380  0.072665  -0.103667
    C   C6   0.057529  0.913270  0.927326  -0.109522
    C   C7   0.085876  0.090614  0.057807  -0.122779
    C   C8   0.914175  0.915030  0.942190  -0.113408
    C   C9   0.964282  0.003221  0.003718  0.093367
    C   C10  0.035774  0.002402  0.996284  0.113240
    C   C11  0.992754  0.180573  0.134857  -0.063099
    C   C12  0.007311  0.824994  0.865172  -0.059399
    C   C13  0.064231  0.179625  0.127476  -0.060225
    C   C14  0.935831  0.825938  0.872556  -0.068189
    O   O1   0.793064  0.835413  0.888773  -0.482060
    O   O2   0.206967  0.170381  0.111171  -0.477380
    O   O3   0.150635  0.830946  0.851653  -0.484851
    O   O4   0.849419  0.174890  0.148271  -0.494628
    H   H1   0.976966  0.251173  0.189745  0.129065
    H   H2   0.023105  0.754370  0.810295  0.127588
    H   H3   0.102602  0.249579  0.176699  0.130013
    H   H4   0.897463  0.755959  0.823343  0.134877
    C   C15  0.287185  0.862341  0.966768  -0.272671
    C   C16  0.712872  0.143733  0.033177  -0.271174
    C   C17  0.712362  0.863246  0.030852  -0.288946
    C   C18  0.287654  0.142827  0.969110  -0.278431
    H   H5   0.261355  0.752464  0.976743  0.148440
    H   H6   0.738710  0.253582  0.023159  0.150141
    H   H7   0.738677  0.752830  0.023834  0.154475
    H   H8   0.261308  0.253215  0.976097  0.152619
    C   C19  0.357355  0.862852  0.953836  0.020475
    C   C20  0.642726  0.143293  0.046241  0.015180
    C   C21  0.642380  0.863658  0.044612  -0.029543
    C   C22  0.357673  0.142476  0.955472  -0.032726
    C   C23  0.391217  0.002775  0.944575  -0.177203
    C   C24  0.608875  0.003384  0.055591  -0.177946
    C   C25  0.251327  0.002491  0.971294  0.336956
    C   C26  0.748701  0.003537  0.028606  0.352562
    H   H9   0.447140  0.002815  0.938571  0.139222
    H   H10  0.552977  0.003373  0.061702  0.138996
    O   O5   0.423619  0.671812  0.055582  -0.722547
    O   O6   0.576434  0.334343  0.944497  -0.724561
    O   O7   0.576216  0.671363  0.943663  -0.675840
    O   O8   0.423831  0.334788  0.056410  -0.678683
    O   O9   0.426269  0.666362  0.895082  -0.747279
    O   O10  0.573783  0.339788  0.104999  -0.703750
    O   O11  0.573548  0.667860  0.104183  -0.734031
    O   O12  0.426499  0.338289  0.895904  -0.689340
    C   C27  0.401415  0.721298  0.967621  0.864391
    C   C28  0.598650  0.284858  0.032461  0.829213
    C   C29  0.598337  0.722012  0.031387  0.862463
    C   C30  0.401701  0.284146  0.968692  0.825124
    Zn  Zn1  0.503147  0.502451  0.896634  1.075043
    Zn  Zn2  0.496901  0.503697  0.103444  1.079799
    C   C31  0.464932  0.375403  0.461189  -0.217979
    C   C32  0.534913  0.629396  0.538762  -0.218313
    C   C33  0.534459  0.374326  0.537994  -0.224716
    C   C34  0.465390  0.630478  0.462054  -0.213971
    H   H11  0.564372  0.269695  0.570944  0.117754
    H   H12  0.435472  0.735097  0.429083  0.128118
    H   H13  0.434564  0.271801  0.427502  0.120743
    H   H14  0.565283  0.733008  0.572432  0.133650
    N   N3   0.506330  0.501681  0.774835  0.067738
    N   N4   0.493703  0.504456  0.225236  0.067342
    C   C35  0.435129  0.502672  0.515786  -0.130457
    C   C36  0.564712  0.502048  0.484207  -0.127870
    C   C37  0.503424  0.501675  0.591051  0.771392
    C   C38  0.496417  0.503168  0.408957  0.768787
    C   C39  0.505445  0.501604  0.693775  -0.319863
    C   C40  0.494485  0.504077  0.306267  -0.322370
    C   C41  0.638972  0.501973  0.464517  0.634354
    O   O13  0.691234  0.507655  0.530598  -0.518288
    N   N5   0.649066  0.495573  0.368601  -0.658938
    H   H15  0.704585  0.498971  0.371268  0.332846
    H   H16  0.629972  0.387085  0.340468  0.271469
    C   C42  0.360823  0.502903  0.535307  0.630453
    O   O14  0.308655  0.511120  0.469211  -0.517949
    N   N6   0.350568  0.493205  0.631049  -0.641287
    H   H17  0.295026  0.496331  0.628242  0.328224
    H   H18  0.369537  0.383860  0.657827  0.260828
