# Generated by REPEAT Assigner based on pymatgen
data_DB0-m2_o11_o20_f0_nbo.sym.16_sqe
_audit_creation_date              2022-05-24
_audit_creation_method            REPEAT_Assigner
_cell_length_a                    31.213316
_cell_length_b                    31.735505
_cell_length_c                    21.253396
_cell_angle_alpha                 90.000000
_cell_angle_beta                  137.230405
_cell_angle_gamma                 90.000000
_cell_volume                      14296.067110
_symmetry_space_group_name_H-M    P1
_symmetry_Int_Tables_number       1
loop_
    _symmetry_equiv_pos_site_id
    _symmetry_equiv_pos_as_xyz
    1  x,y,z
loop_
    _atom_site_type_symbol
    _atom_site_label
    _atom_site_fract_x
    _atom_site_fract_y
    _atom_site_fract_z
    _atom_type_partial_charge
    O   O1    0.823225  0.761982  0.500561  -0.595151
    O   O2    0.180016  0.236472  0.499889  -0.599022
    O   O3    0.176775  0.761984  0.499449  -0.594928
    O   O4    0.819957  0.236418  0.500086  -0.598784
    O   O5    0.323225  0.261982  0.500561  -0.595164
    O   O6    0.680016  0.736472  0.499889  -0.599027
    O   O7    0.676775  0.261984  0.499449  -0.594936
    O   O8    0.319957  0.736418  0.500086  -0.598792
    O   O9    0.768591  0.816285  0.488352  -0.631124
    O   O10   0.234529  0.182173  0.511851  -0.624394
    O   O11   0.231421  0.816267  0.511635  -0.630810
    O   O12   0.765432  0.182136  0.488147  -0.623709
    O   O13   0.268591  0.316285  0.488352  -0.631126
    O   O14   0.734529  0.682173  0.511851  -0.624388
    O   O15   0.731421  0.316267  0.511635  -0.630803
    O   O16   0.265432  0.682136  0.488147  -0.623703
    C   C1    0.809884  0.802174  0.491950  0.766891
    C   C2    0.193376  0.196271  0.508525  0.762371
    C   C3    0.190123  0.802173  0.508041  0.766436
    C   C4    0.806592  0.196218  0.491475  0.761484
    C   C5    0.309884  0.302174  0.491950  0.766909
    C   C6    0.693376  0.696271  0.508525  0.762366
    C   C7    0.690123  0.302173  0.508041  0.766430
    C   C8    0.306592  0.696218  0.491475  0.761477
    O   O17   0.709972  0.720308  0.367717  -0.606787
    O   O18   0.293182  0.278193  0.632539  -0.607242
    O   O19   0.290016  0.720296  0.632286  -0.606603
    O   O20   0.706803  0.278152  0.367443  -0.607121
    O   O21   0.209972  0.220308  0.367717  -0.606791
    O   O22   0.793182  0.778193  0.632539  -0.607248
    O   O23   0.790016  0.220296  0.632286  -0.606607
    O   O24   0.206803  0.778152  0.367443  -0.607131
    O   O25   0.656588  0.772644  0.363465  -0.589603
    O   O26   0.346511  0.225778  0.636824  -0.588579
    O   O27   0.343410  0.772611  0.636516  -0.589542
    O   O28   0.653463  0.225757  0.363179  -0.588423
    O   O29   0.156588  0.272644  0.363465  -0.589601
    O   O30   0.846511  0.725778  0.636824  -0.588575
    O   O31   0.843410  0.272611  0.636516  -0.589531
    O   O32   0.153463  0.725757  0.363179  -0.588415
    C   C9    0.661506  0.745554  0.322485  0.828169
    C   C10   0.341529  0.252859  0.677748  0.830248
    C   C11   0.338489  0.745533  0.677507  0.827595
    C   C12   0.658448  0.252828  0.322244  0.829944
    C   C13   0.161506  0.245554  0.322485  0.828166
    C   C14   0.841529  0.752859  0.677748  0.830255
    C   C15   0.838489  0.245533  0.677507  0.827593
    C   C16   0.158448  0.752828  0.322244  0.829947
    Cu  Cu1   0.780912  0.717655  0.502729  0.985806
    Cu  Cu2   0.222235  0.280809  0.497546  0.992374
    Cu  Cu3   0.219068  0.717639  0.497276  0.985295
    Cu  Cu4   0.777758  0.280771  0.502433  0.992312
    Cu  Cu5   0.280912  0.217655  0.502729  0.985753
    Cu  Cu6   0.722235  0.780809  0.497546  0.992321
    Cu  Cu7   0.719068  0.217639  0.497276  0.985255
    Cu  Cu8   0.277758  0.780771  0.502433  0.992277
    C   C17   0.611701  0.743899  0.223102  -0.251394
    C   C18   0.390803  0.254216  0.777074  -0.252922
    C   C19   0.388296  0.743884  0.776891  -0.250821
    C   C20   0.609165  0.254189  0.222918  -0.252845
    C   C21   0.111701  0.243899  0.223102  -0.251388
    C   C22   0.890803  0.754216  0.777074  -0.252924
    C   C23   0.888296  0.243884  0.776891  -0.250822
    C   C24   0.109165  0.754189  0.222918  -0.252847
    C   C25   0.569890  0.742985  0.139614  0.104338
    C   C26   0.431823  0.254970  0.860512  0.104913
    C   C27   0.430110  0.742975  0.860379  0.103780
    C   C28   0.568141  0.254950  0.139480  0.104986
    C   C29   0.069890  0.242985  0.139614  0.104337
    C   C30   0.931823  0.754970  0.860512  0.104912
    C   C31   0.930110  0.242975  0.860379  0.103778
    C   C32   0.068141  0.754950  0.139480  0.104988
    C   C33   0.520901  0.742449  0.041754  -0.023029
    C   C34   0.479618  0.255409  0.958275  -0.022832
    C   C35   0.479099  0.742446  0.958240  -0.022437
    C   C36   0.520344  0.255403  0.041717  -0.022978
    C   C37   0.020901  0.242449  0.041754  -0.023028
    C   C38   0.979618  0.755409  0.958275  -0.022831
    C   C39   0.979099  0.242446  0.958240  -0.022434
    C   C40   0.020344  0.755403  0.041717  -0.022980
    C   C41   0.870514  0.897025  0.464169  -0.213570
    C   C42   0.132141  0.101023  0.534654  -0.204029
    C   C43   0.129462  0.897066  0.535678  -0.211440
    C   C44   0.867892  0.100931  0.465546  -0.203792
    C   C45   0.370514  0.397025  0.464169  -0.213458
    C   C46   0.632141  0.601023  0.534654  -0.204025
    C   C47   0.629462  0.397066  0.535678  -0.211439
    C   C48   0.367892  0.600931  0.465546  -0.203789
    C   C49   0.926075  0.914163  0.540445  -0.143657
    C   C50   0.073340  0.087577  0.458865  -0.141151
    C   C51   0.073791  0.914098  0.459399  -0.144875
    C   C52   0.926808  0.087631  0.541275  -0.138913
    C   C53   0.426075  0.414163  0.540444  -0.143790
    C   C54   0.573340  0.587577  0.458865  -0.141154
    C   C55   0.573791  0.414098  0.459399  -0.144864
    C   C56   0.426808  0.587631  0.541275  -0.138905
    H   H1    0.849963  0.903104  0.396262  0.162848
    H   H2    0.156266  0.091544  0.603271  0.160704
    H   H3    0.150145  0.903246  0.603637  0.162281
    H   H4    0.843632  0.091315  0.396929  0.160641
    H   H5    0.349963  0.403104  0.396262  0.162821
    H   H6    0.656266  0.591544  0.603271  0.160703
    H   H7    0.650145  0.403246  0.603637  0.162283
    H   H8    0.343632  0.591315  0.396929  0.160641
    C   C57   0.831889  0.872905  0.467357  0.223507
    C   C58   0.169348  0.125015  0.528571  0.207939
    C   C59   0.168037  0.872941  0.532399  0.221556
    C   C60   0.830750  0.124927  0.471747  0.206107
    C   C61   0.331889  0.372905  0.467357  0.223463
    C   C62   0.669348  0.625015  0.528571  0.207935
    C   C63   0.668037  0.372941  0.532399  0.221545
    C   C64   0.330750  0.624927  0.471747  0.206089
    C   C65   0.844363  0.831715  0.487976  -0.515009
    C   C66   0.159844  0.166783  0.514399  -0.503983
    C   C67   0.155665  0.831726  0.512036  -0.513985
    C   C68   0.840101  0.166719  0.485575  -0.502571
    C   C69   0.344363  0.331715  0.487976  -0.515022
    C   C70   0.659844  0.666783  0.514399  -0.503976
    C   C71   0.655665  0.331726  0.512036  -0.513974
    C   C72   0.340101  0.666719  0.485575  -0.502557
    H   H9    0.882563  0.818648  0.501426  0.210924
    H   H10   0.124685  0.180359  0.507493  0.211117
    H   H11   0.117559  0.818648  0.498803  0.210729
    H   H12   0.875122  0.180304  0.492188  0.210819
    H   H13   0.382563  0.318648  0.501426  0.210932
    H   H14   0.624685  0.680359  0.507493  0.211117
    H   H15   0.617559  0.318648  0.498803  0.210726
    H   H16   0.375122  0.680304  0.492188  0.210816
    O   O33   0.421838  0.545328  0.442299  -0.604379
    O   O34   0.578410  0.456351  0.557646  -0.596669
    O   O35   0.578243  0.545268  0.557767  -0.604225
    O   O36   0.421520  0.456412  0.442263  -0.596248
    O   O37   0.921838  0.045328  0.442299  -0.604381
    O   O38   0.078410  0.956351  0.557646  -0.596678
    O   O39   0.078243  0.045268  0.557767  -0.604227
    O   O40   0.921520  0.956412  0.442263  -0.596249
    O   O41   0.512622  0.542638  0.598712  -0.504455
    O   O42   0.487174  0.458514  0.401305  -0.520947
    O   O43   0.487454  0.542646  0.401349  -0.505597
    O   O44   0.512762  0.458506  0.598611  -0.521049
    O   O45   0.012622  0.042638  0.598712  -0.504457
    O   O46   0.987174  0.958514  0.401305  -0.520952
    O   O47   0.987454  0.042646  0.401349  -0.505599
    O   O48   0.012762  0.958506  0.598611  -0.521042
    C   C73   0.455984  0.557731  0.527288  0.631801
    C   C74   0.544233  0.443897  0.472761  0.637703
    C   C75   0.544121  0.557691  0.472798  0.633347
    C   C76   0.455675  0.443939  0.527128  0.637349
    C   C77   0.955984  0.057731  0.527288  0.631815
    C   C78   0.044233  0.943897  0.472761  0.637725
    C   C79   0.044121  0.057691  0.472798  0.633349
    C   C80   0.955675  0.943939  0.527128  0.637293
    Cu  Cu9   0.446167  0.500727  0.410019  0.925522
    Cu  Cu10  0.553839  0.500687  0.589969  0.925466
    Cu  Cu11  0.946167  0.000727  0.410019  0.925526
    Cu  Cu12  0.053839  0.000687  0.589969  0.925491
    C   C81   0.950790  0.904941  0.632684  0.304050
    C   C82   0.010005  0.928352  0.716328  -0.366454
    H   H17   0.050867  0.918095  0.731622  0.090413
    H   H18   0.002492  0.962886  0.705271  0.107147
    H   H19   0.020321  0.920384  0.777196  0.062693
    H   H20   0.913917  0.913308  0.627777  -0.020610
    H   H21   0.960699  0.870741  0.647319  -0.009432
    C   C83   0.044101  0.101002  0.365227  0.291093
    C   C84   0.979010  0.083767  0.280025  -0.303373
    H   H22   0.980483  0.048934  0.277649  0.069574
    H   H23   0.944310  0.094350  0.278337  0.076549
    H   H24   0.964015  0.096532  0.217652  0.049982
    H   H25   0.040140  0.135817  0.360309  -0.013617
    H   H26   0.075596  0.091143  0.360191  -0.017576
    C   C85   0.048912  0.904735  0.367087  0.304894
    C   C86   0.989473  0.927943  0.283337  -0.365379
    H   H27   0.948807  0.917670  0.268519  0.090263
    H   H28   0.996812  0.962503  0.293943  0.106053
    H   H29   0.978963  0.919806  0.222361  0.062330
    H   H30   0.085619  0.913157  0.371672  -0.020527
    H   H31   0.039196  0.870504  0.352789  -0.010000
    C   C87   0.956230  0.101220  0.634945  0.286632
    C   C88   0.021521  0.084226  0.720103  -0.298624
    H   H32   0.020299  0.049403  0.723023  0.067455
    H   H33   0.055937  0.094788  0.721200  0.075542
    H   H34   0.036707  0.097188  0.782497  0.049262
    H   H35   0.959953  0.136047  0.639490  -0.012918
    H   H36   0.924978  0.091314  0.640410  -0.016459
    C   C89   0.450789  0.404941  0.632684  0.304084
    C   C90   0.510005  0.428352  0.716328  -0.366465
    H   H37   0.550867  0.418095  0.731622  0.090423
    H   H38   0.502492  0.462886  0.705271  0.107152
    H   H39   0.520321  0.420384  0.777196  0.062688
    H   H40   0.413917  0.413308  0.627777  -0.020612
    H   H41   0.460699  0.370741  0.647319  -0.009431
    C   C91   0.544101  0.601002  0.365227  0.291093
    C   C92   0.479010  0.583767  0.280025  -0.303375
    H   H42   0.480483  0.548934  0.277649  0.069572
    H   H43   0.444310  0.594350  0.278337  0.076549
    H   H44   0.464015  0.596532  0.217652  0.049984
    H   H45   0.540140  0.635817  0.360309  -0.013616
    H   H46   0.575596  0.591143  0.360191  -0.017575
    C   C93   0.548912  0.404735  0.367087  0.304900
    C   C94   0.489473  0.427943  0.283337  -0.365391
    H   H47   0.448807  0.417670  0.268520  0.090264
    H   H48   0.496812  0.462503  0.293943  0.106056
    H   H49   0.478963  0.419806  0.222361  0.062335
    H   H50   0.585619  0.413157  0.371672  -0.020526
    H   H51   0.539196  0.370504  0.352789  -0.010003
    C   C95   0.456230  0.601220  0.634945  0.286633
    C   C96   0.521521  0.584226  0.720103  -0.298622
    H   H52   0.520299  0.549403  0.723023  0.067452
    H   H53   0.555937  0.594788  0.721200  0.075541
    H   H54   0.536707  0.597188  0.782497  0.049263
    H   H55   0.459953  0.636047  0.639490  -0.012918
    H   H56   0.424978  0.591314  0.640410  -0.016458
    C   C97   0.777424  0.894470  0.440559  0.158754
    C   C98   0.770923  0.940160  0.413242  -0.329050
    H   H57   0.813919  0.958212  0.472160  0.089590
    H   H58   0.761458  0.942235  0.351802  0.081304
    H   H59   0.730358  0.954308  0.394788  0.073611
    H   H60   0.732907  0.877957  0.380535  0.031264
    H   H61   0.784824  0.894130  0.500183  0.028229
    C   C99   0.218863  0.102308  0.544289  0.164221
    C   C100  0.221294  0.055586  0.562276  -0.333074
    H   H62   0.234441  0.050626  0.626422  0.084010
    H   H63   0.175393  0.040398  0.502107  0.092428
    H   H64   0.257918  0.040630  0.571944  0.073222
    H   H65   0.208043  0.105369  0.481781  0.025464
    H   H66   0.265902  0.115965  0.605339  0.032059
    C   C101  0.222357  0.894539  0.558843  0.160691
    C   C102  0.228738  0.940274  0.585840  -0.331073
    H   H67   0.185646  0.958233  0.526852  0.090123
    H   H68   0.238321  0.942454  0.647377  0.081942
    H   H69   0.269191  0.954443  0.604022  0.074009
    H   H70   0.266958  0.878119  0.618928  0.031034
    H   H71   0.214846  0.894098  0.499117  0.027680
    C   C103  0.781457  0.102189  0.456516  0.166949
    C   C104  0.779219  0.055430  0.438965  -0.333219
    H   H72   0.765928  0.050332  0.374734  0.084005
    H   H73   0.825232  0.040368  0.499174  0.092366
    H   H74   0.742772  0.040452  0.429681  0.073133
    H   H75   0.792406  0.105386  0.519118  0.024422
    H   H76   0.734320  0.115717  0.395427  0.031371
    C   C105  0.277424  0.394470  0.440559  0.158815
    C   C106  0.270923  0.440160  0.413242  -0.329087
    H   H77   0.313919  0.458212  0.472160  0.089602
    H   H78   0.261458  0.442235  0.351801  0.081303
    H   H79   0.230358  0.454308  0.394787  0.073625
    H   H80   0.232907  0.377957  0.380534  0.031250
    H   H81   0.284824  0.394130  0.500183  0.028216
    C   C107  0.718863  0.602308  0.544289  0.164219
    C   C108  0.721294  0.555586  0.562277  -0.333074
    H   H82   0.734441  0.550626  0.626422  0.084017
    H   H83   0.675393  0.540398  0.502107  0.092427
    H   H84   0.757918  0.540630  0.571944  0.073219
    H   H85   0.708043  0.605369  0.481781  0.025464
    H   H86   0.765902  0.615965  0.605339  0.032059
    C   C109  0.722357  0.394539  0.558843  0.160697
    C   C110  0.728738  0.440274  0.585840  -0.331071
    H   H87   0.685646  0.458233  0.526852  0.090121
    H   H88   0.738321  0.442454  0.647377  0.081940
    H   H89   0.769191  0.454443  0.604022  0.074008
    H   H90   0.766958  0.378119  0.618928  0.031034
    H   H91   0.714846  0.394098  0.499117  0.027680
    C   C111  0.281457  0.602189  0.456516  0.166969
    C   C112  0.279219  0.555430  0.438965  -0.333214
    H   H92   0.265928  0.550332  0.374734  0.084002
    H   H93   0.325232  0.540368  0.499174  0.092361
    H   H94   0.242772  0.540452  0.429681  0.073127
    H   H95   0.292406  0.605386  0.519118  0.024418
    H   H96   0.234320  0.615717  0.395427  0.031368
