data_DB0-m3_o115_o19_f0_fsc.sym.1_repeat
_audit_creation_date              2024-02-23
_audit_creation_method            'Materials Studio'
_symmetry_space_group_name_H-M    'P1'
_symmetry_Int_Tables_number       1
_symmetry_cell_setting            triclinic
loop_
_symmetry_equiv_pos_as_xyz
  x,y,z
_cell_length_a                    10.1751
_cell_length_b                    16.5798
_cell_length_c                    16.6188
_cell_angle_alpha                 90.0000
_cell_angle_beta                  98.8240
_cell_angle_gamma                 90.0000
loop_
_atom_site_label
_atom_site_type_symbol
_atom_site_fract_x
_atom_site_fract_y
_atom_site_fract_z
_atom_site_U_iso_or_equiv
_atom_site_adp_type
_atom_site_occupancy
H1     H     0.13063   0.92080   0.72764   0.00000  Uiso   1.00
H2     H     0.86937   0.07920   0.27236   0.00000  Uiso   1.00
H3     H     0.86937   0.92080   0.27236   0.00000  Uiso   1.00
H4     H     0.13063   0.07920   0.72764   0.00000  Uiso   1.00
C1     C     0.00431   0.25591   0.95913   0.00000  Uiso   1.00
C2     C     0.99569   0.74409   0.04087   0.00000  Uiso   1.00
C3     C     0.99569   0.25591   0.04087   0.00000  Uiso   1.00
C4     C     0.00431   0.74409   0.95913   0.00000  Uiso   1.00
C5     C     0.99220   0.17597   0.06401   0.00000  Uiso   1.00
C6     C     0.00780   0.82403   0.93599   0.00000  Uiso   1.00
C7     C     0.00780   0.17597   0.93599   0.00000  Uiso   1.00
C8     C     0.99220   0.82403   0.06401   0.00000  Uiso   1.00
N1     N     0.00000   0.12728   0.00000   0.00000  Uiso   1.00
N2     N     0.00000   0.87272   0.00000   0.00000  Uiso   1.00
C9     C     0.97866   0.15093   0.13893   0.00000  Uiso   1.00
C10    C     0.02134   0.84907   0.86107   0.00000  Uiso   1.00
C11    C     0.02134   0.15093   0.86107   0.00000  Uiso   1.00
C12    C     0.97866   0.84907   0.13893   0.00000  Uiso   1.00
C13    C     0.96150   0.06547   0.16074   0.00000  Uiso   1.00
C14    C     0.03850   0.93453   0.83926   0.00000  Uiso   1.00
C15    C     0.03850   0.06547   0.83926   0.00000  Uiso   1.00
C16    C     0.96150   0.93453   0.16074   0.00000  Uiso   1.00
C17    C     0.90673   0.04148   0.22793   0.00000  Uiso   1.00
C18    C     0.09327   0.95852   0.77207   0.00000  Uiso   1.00
C19    C     0.09327   0.04148   0.77207   0.00000  Uiso   1.00
C20    C     0.90673   0.95852   0.22793   0.00000  Uiso   1.00
N3     N     0.99707   0.00000   0.12077   0.00000  Uiso   1.00
N4     N     0.00293   0.00000   0.87922   0.00000  Uiso   1.00
H5     H     0.00950   0.30928   0.92237   0.00000  Uiso   1.00
H6     H     0.99050   0.69072   0.07763   0.00000  Uiso   1.00
H7     H     0.99050   0.30928   0.07763   0.00000  Uiso   1.00
H8     H     0.00950   0.69072   0.92237   0.00000  Uiso   1.00
H9     H     0.05093   0.00000   0.07250   0.00000  Uiso   1.00
H10    H     0.94907   0.00000   0.92750   0.00000  Uiso   1.00
C21    C     0.90455   0.76042   0.75575   0.00000  Uiso   1.00
C22    C     0.09545   0.23958   0.24426   0.00000  Uiso   1.00
C23    C     0.09545   0.76042   0.24426   0.00000  Uiso   1.00
C24    C     0.90455   0.23958   0.75575   0.00000  Uiso   1.00
H11    H     0.81172   0.78376   0.77015   0.00000  Uiso   1.00
H12    H     0.18828   0.21624   0.22985   0.00000  Uiso   1.00
H13    H     0.18828   0.78376   0.22985   0.00000  Uiso   1.00
H14    H     0.81172   0.21624   0.77015   0.00000  Uiso   1.00
C25    C     0.90344   0.70276   0.69610   0.00000  Uiso   1.00
C26    C     0.09656   0.29724   0.30390   0.00000  Uiso   1.00
C27    C     0.09656   0.70276   0.30390   0.00000  Uiso   1.00
C28    C     0.90344   0.29724   0.69610   0.00000  Uiso   1.00
C29    C     0.02164   0.67250   0.67701   0.00000  Uiso   1.00
C30    C     0.97836   0.32750   0.32299   0.00000  Uiso   1.00
C31    C     0.97836   0.67250   0.32299   0.00000  Uiso   1.00
C32    C     0.02164   0.32750   0.67701   0.00000  Uiso   1.00
C33    C     0.14107   0.70066   0.71862   0.00000  Uiso   1.00
C34    C     0.85893   0.29934   0.28138   0.00000  Uiso   1.00
C35    C     0.85893   0.70066   0.28138   0.00000  Uiso   1.00
C36    C     0.14107   0.29934   0.71862   0.00000  Uiso   1.00
H15    H     0.23467   0.67772   0.70509   0.00000  Uiso   1.00
H16    H     0.76533   0.32228   0.29491   0.00000  Uiso   1.00
H17    H     0.76533   0.67772   0.29491   0.00000  Uiso   1.00
H18    H     0.23467   0.32228   0.70509   0.00000  Uiso   1.00
C37    C     0.14172   0.75819   0.77888   0.00000  Uiso   1.00
C38    C     0.85828   0.24181   0.22112   0.00000  Uiso   1.00
C39    C     0.85828   0.75819   0.22112   0.00000  Uiso   1.00
C40    C     0.14172   0.24181   0.77888   0.00000  Uiso   1.00
H19    H     0.23518   0.77967   0.81163   0.00000  Uiso   1.00
H20    H     0.76483   0.22033   0.18837   0.00000  Uiso   1.00
H21    H     0.76483   0.77967   0.18837   0.00000  Uiso   1.00
H22    H     0.23518   0.22033   0.81163   0.00000  Uiso   1.00
C41    C     0.02329   0.78833   0.79722   0.00000  Uiso   1.00
C42    C     0.97671   0.21167   0.20278   0.00000  Uiso   1.00
C43    C     0.97671   0.78833   0.20278   0.00000  Uiso   1.00
C44    C     0.02329   0.21167   0.79722   0.00000  Uiso   1.00
H23    H     0.80850   0.31781   0.66471   0.00000  Uiso   1.00
H24    H     0.19150   0.68219   0.33529   0.00000  Uiso   1.00
H25    H     0.19150   0.31781   0.33529   0.00000  Uiso   1.00
H26    H     0.80850   0.68219   0.66471   0.00000  Uiso   1.00
O1     O     0.90138   0.58221   0.58181   0.00000  Uiso   1.00
O2     O     0.09862   0.41779   0.41819   0.00000  Uiso   1.00
O3     O     0.09862   0.58221   0.41819   0.00000  Uiso   1.00
O4     O     0.90138   0.41779   0.58181   0.00000  Uiso   1.00
O5     O     0.12947   0.58608   0.59079   0.00000  Uiso   1.00
O6     O     0.87053   0.41392   0.40921   0.00000  Uiso   1.00
O7     O     0.87053   0.58608   0.40921   0.00000  Uiso   1.00
O8     O     0.12947   0.41392   0.59079   0.00000  Uiso   1.00
C45    C     0.01799   0.61063   0.61354   0.00000  Uiso   1.00
C46    C     0.98201   0.38937   0.38646   0.00000  Uiso   1.00
C47    C     0.98201   0.61063   0.38646   0.00000  Uiso   1.00
C48    C     0.01799   0.38937   0.61354   0.00000  Uiso   1.00
Zn1    Zn    0.14770   0.50000   0.50733   0.00000  Uiso   1.00
Zn2    Zn    0.85230   0.50000   0.49267   0.00000  Uiso   1.00
N5     N     0.32144   0.50000   0.51310   0.00000  Uiso   1.00
N6     N     0.67856   0.50000   0.48690   0.00000  Uiso   1.00
C49    C     0.43257   0.50000   0.50549   0.00000  Uiso   1.00
C50    C     0.56743   0.50000   0.49451   0.00000  Uiso   1.00
