# Generated by REPEAT Assigner based on pymatgen
data_DB0-m2_o6_o11_f0_nbo.sym.56_sqe
_audit_creation_date              2022-05-24
_audit_creation_method            REPEAT_Assigner
_cell_length_a                    38.294873
_cell_length_b                    32.096835
_cell_length_c                    21.750732
_cell_angle_alpha                 90.000000
_cell_angle_beta                  123.226206
_cell_angle_gamma                 90.000000
_cell_volume                      22364.017841
_symmetry_space_group_name_H-M    P1
_symmetry_Int_Tables_number       1
loop_
    _symmetry_equiv_pos_site_id
    _symmetry_equiv_pos_as_xyz
    1  x,y,z
loop_
    _atom_site_type_symbol
    _atom_site_label
    _atom_site_fract_x
    _atom_site_fract_y
    _atom_site_fract_z
    _atom_type_partial_charge
    O   O1    0.440376  0.543261  0.425963  -0.629027
    O   O2    0.559618  0.543260  0.574038  -0.629056
    O   O3    0.940376  0.043261  0.425963  -0.628968
    O   O4    0.059618  0.043260  0.574038  -0.629016
    O   O5    0.440684  0.474706  0.461422  -0.631454
    O   O6    0.559310  0.474705  0.538579  -0.631446
    O   O7    0.940684  0.974706  0.461422  -0.631461
    O   O8    0.059310  0.974705  0.538579  -0.631480
    C   C1    0.421000  0.508892  0.424942  0.884028
    C   C2    0.578994  0.508892  0.575058  0.884146
    C   C3    0.921000  0.008892  0.424942  0.883964
    C   C4    0.078994  0.008892  0.575058  0.884093
    O   O9    0.488766  0.543267  0.576914  -0.642278
    O   O10   0.511229  0.543267  0.423087  -0.642247
    O   O11   0.988766  0.043267  0.576914  -0.642256
    O   O12   0.011229  0.043267  0.423087  -0.642248
    O   O13   0.512736  0.474749  0.599538  -0.605707
    O   O14   0.487258  0.474749  0.400462  -0.605736
    O   O15   0.012736  0.974749  0.599538  -0.605736
    O   O16   0.987258  0.974749  0.400462  -0.605777
    C   C5    0.501294  0.509116  0.617367  0.759452
    C   C6    0.498700  0.509116  0.382633  0.759328
    C   C7    0.001294  0.009116  0.617367  0.759469
    C   C8    0.998700  0.009116  0.382633  0.759362
    Cu  Cu1   0.499997  0.549634  0.500000  1.034725
    Cu  Cu2   0.999997  0.049634  0.500000  1.034852
    Cu  Cu3   0.499997  0.468359  0.500000  0.985429
    Cu  Cu4   0.999997  0.968359  0.500000  0.985318
    C   C9    0.526347  0.482011  0.806894  -0.016347
    C   C10   0.473644  0.482011  0.193105  -0.016340
    C   C11   0.026347  0.982011  0.806894  -0.016368
    C   C12   0.973644  0.982011  0.193105  -0.016351
    C   C13   0.493598  0.493394  0.809187  -0.265851
    C   C14   0.506394  0.493393  0.190811  -0.266015
    C   C15   0.993598  0.993394  0.809187  -0.265853
    C   C16   0.006394  0.993393  0.190811  -0.266041
    H   H1    0.554435  0.470534  0.855984  0.128403
    H   H2    0.445556  0.470536  0.144015  0.128407
    H   H3    0.054435  0.970534  0.855984  0.128404
    H   H4    0.945556  0.970536  0.144015  0.128404
    H   H5    0.463934  0.500790  0.759289  0.168001
    H   H6    0.536058  0.500787  0.240711  0.168045
    H   H7    0.963934  0.000790  0.759289  0.168002
    H   H8    0.036058  0.000787  0.240711  0.168053
    C   C17   0.524154  0.481181  0.737470  -0.035862
    C   C18   0.475838  0.481181  0.262529  -0.035816
    C   C19   0.024154  0.981181  0.737470  -0.035836
    C   C20   0.975838  0.981181  0.262529  -0.035792
    C   C21   0.502345  0.509640  0.685410  -0.281418
    C   C22   0.497648  0.509639  0.314589  -0.281346
    C   C23   0.002345  0.009640  0.685410  -0.281447
    C   C24   0.997648  0.009639  0.314589  -0.281382
    H   H9    0.543082  0.458599  0.731355  0.125675
    H   H10   0.456910  0.458600  0.268644  0.125691
    H   H11   0.043082  0.958599  0.731355  0.125667
    H   H12   0.956910  0.958600  0.268644  0.125686
    H   H13   0.486857  0.534970  0.694201  0.179802
    H   H14   0.513136  0.534969  0.305798  0.179804
    H   H15   0.986857  0.034970  0.694201  0.179811
    H   H16   0.013136  0.034969  0.305798  0.179818
    C   C25   0.230102  0.473901  0.198313  -0.188944
    C   C26   0.769892  0.473888  0.801664  -0.188789
    C   C27   0.730102  0.973901  0.198313  -0.188963
    C   C28   0.269892  0.973888  0.801664  -0.188815
    H   H17   0.213274  0.451898  0.153895  0.158342
    H   H18   0.786719  0.451874  0.846065  0.158292
    H   H19   0.713274  0.951898  0.153895  0.158350
    H   H20   0.286719  0.951874  0.846065  0.158298
    C   C29   0.207273  0.500892  0.212312  0.125019
    C   C30   0.792721  0.500892  0.787688  0.124875
    C   C31   0.707273  0.000892  0.212312  0.125067
    C   C32   0.292721  0.000892  0.787688  0.124919
    C   C33   0.227627  0.529863  0.268788  -0.059786
    C   C34   0.772367  0.529876  0.731234  -0.059580
    C   C35   0.727627  0.029863  0.268788  -0.059868
    C   C36   0.272367  0.029876  0.731234  -0.059624
    C   C37   0.270848  0.530793  0.310097  -0.203793
    C   C38   0.729147  0.530805  0.689924  -0.203941
    C   C39   0.770848  0.030793  0.310097  -0.203772
    C   C40   0.229147  0.030805  0.689924  -0.203929
    H   H21   0.287663  0.552883  0.354372  0.166610
    H   H22   0.712332  0.552906  0.645666  0.166663
    H   H23   0.787663  0.052883  0.354372  0.166605
    H   H24   0.212332  0.052906  0.645666  0.166660
    C   C41   0.293680  0.503726  0.296187  0.102845
    C   C42   0.706314  0.503725  0.703811  0.102799
    C   C43   0.793680  0.003726  0.296187  0.102865
    C   C44   0.206314  0.003725  0.703811  0.102821
    C   C45   0.273305  0.474819  0.239601  -0.049110
    C   C46   0.726688  0.474804  0.760375  -0.049037
    C   C47   0.773305  0.974819  0.239601  -0.049104
    C   C48   0.226688  0.974804  0.760375  -0.049033
    C   C49   0.162449  0.498149  0.166365  -0.085712
    C   C50   0.837546  0.498149  0.833634  -0.085656
    C   C51   0.662449  0.998149  0.166365  -0.085750
    C   C52   0.337546  0.998149  0.833634  -0.085695
    C   C53   0.338523  0.506385  0.341994  -0.031382
    C   C54   0.661471  0.506384  0.658005  -0.031240
    C   C55   0.838523  0.006385  0.341994  -0.031413
    C   C56   0.161471  0.006384  0.658005  -0.031277
    C   C57   0.376143  0.508030  0.380141  -0.273943
    C   C58   0.623851  0.508029  0.619859  -0.274123
    C   C59   0.876143  0.008030  0.380141  -0.273902
    C   C60   0.123851  0.008029  0.619859  -0.274069
    C   C61   0.124861  0.496226  0.127704  -0.200341
    C   C62   0.875133  0.496225  0.872295  -0.200357
    C   C63   0.624861  0.996226  0.127704  -0.200292
    C   C64   0.375133  0.996225  0.872295  -0.200292
    O   O17   0.535878  0.433480  0.030284  -0.615150
    O   O18   0.464113  0.433481  0.969713  -0.615217
    O   O19   0.035878  0.933480  0.030284  -0.615191
    O   O20   0.964113  0.933481  0.969713  -0.615237
    C   C65   0.499995  0.414105  0.999998  0.768776
    C   C66   0.999995  0.914105  0.999998  0.768851
    O   O21   0.533143  0.494917  0.939998  -0.587425
    O   O22   0.466849  0.494917  0.060001  -0.587437
    O   O23   0.033143  0.994917  0.939998  -0.587453
    O   O24   0.966849  0.994917  0.060001  -0.587462
    O   O25   0.461298  0.496224  0.876106  -0.610211
    O   O26   0.538694  0.496223  0.123893  -0.610200
    O   O27   0.961298  0.996224  0.876106  -0.610224
    O   O28   0.038694  0.996223  0.123893  -0.610231
    C   C67   0.496188  0.493458  0.878618  0.702832
    C   C68   0.503804  0.493457  0.121381  0.702886
    C   C69   0.996188  0.993458  0.878618  0.702877
    C   C70   0.003804  0.993457  0.121381  0.702966
    Cu  Cu5   0.541554  0.494054  0.036994  1.006990
    Cu  Cu6   0.458439  0.494054  0.963005  1.006989
    Cu  Cu7   0.041554  0.994054  0.036994  1.007035
    Cu  Cu8   0.958439  0.994054  0.963005  1.007052
    O   O29   0.535834  0.554603  0.028496  -0.615779
    O   O30   0.464159  0.554603  0.971506  -0.615849
    O   O31   0.035834  0.054603  0.028496  -0.615825
    O   O32   0.964159  0.054603  0.971506  -0.615867
    C   C71   0.499997  0.573984  0.000001  0.895116
    C   C72   0.999997  0.073984  0.000001  0.895203
    O   O33   0.996819  0.433675  0.049850  -0.596209
    O   O34   0.003176  0.433675  0.950150  -0.596242
    O   O35   0.496819  0.933675  0.049850  -0.596216
    O   O36   0.503176  0.933675  0.950150  -0.596179
    C   C73   0.999997  0.414305  0.000000  0.777131
    C   C74   0.499997  0.914305  0.000000  0.777094
    O   O37   0.059133  0.492806  0.113260  -0.618839
    O   O38   0.940862  0.492805  0.886739  -0.618840
    O   O39   0.559133  0.992806  0.113260  -0.618834
    O   O40   0.440862  0.992805  0.886739  -0.618787
    O   O41   0.062174  0.492636  0.010305  -0.609604
    O   O42   0.937820  0.492636  0.989694  -0.609598
    O   O43   0.562174  0.992636  0.010305  -0.609560
    O   O44   0.437820  0.992636  0.989694  -0.609585
    C   C75   0.080053  0.494840  0.081689  0.806391
    C   C76   0.919941  0.494840  0.918309  0.806390
    C   C77   0.580053  0.994840  0.081689  0.806338
    C   C78   0.419941  0.994840  0.918309  0.806301
    Cu  Cu9   0.998266  0.494248  0.059536  1.028892
    Cu  Cu10  0.001728  0.494247  0.940463  1.028804
    Cu  Cu11  0.498266  0.994248  0.059536  1.028769
    Cu  Cu12  0.501728  0.994247  0.940463  1.028939
    O   O45   0.996732  0.554802  0.049646  -0.623223
    O   O46   0.003262  0.554802  0.950351  -0.623266
    O   O47   0.496732  0.054802  0.049646  -0.623223
    O   O48   0.503262  0.054802  0.950351  -0.623207
    C   C79   0.999996  0.574165  0.999998  0.721553
    C   C80   0.499996  0.074165  0.999998  0.721513
    H   H25   0.444173  0.283828  0.997277  0.164021
    H   H26   0.555815  0.283829  0.002712  0.163994
    H   H27   0.944173  0.783828  0.997277  0.164015
    H   H28   0.055815  0.783829  0.002712  0.163999
    C   C81   0.967886  0.722936  0.998417  -0.041171
    C   C82   0.032102  0.722937  0.001571  -0.041477
    C   C83   0.467886  0.222936  0.998417  -0.041309
    C   C84   0.532102  0.222937  0.001571  -0.041501
    C   C85   0.999995  0.701087  0.999994  0.211571
    C   C86   0.499995  0.201087  0.999994  0.211635
    C   C87   0.531525  0.266003  0.001553  -0.382306
    C   C88   0.468464  0.266002  0.998437  -0.382470
    C   C89   0.031525  0.766003  0.001553  -0.382324
    C   C90   0.968464  0.766002  0.998437  -0.382452
    C   C91   0.499994  0.287256  0.999995  0.389659
    C   C92   0.999994  0.787256  0.999995  0.389625
    C   C93   0.999995  0.656338  0.999996  -0.201127
    C   C94   0.499995  0.156338  0.999996  -0.201135
    C   C95   0.499995  0.331919  0.999996  -0.096708
    C   C96   0.999995  0.831919  0.999996  -0.096681
    C   C97   0.499995  0.369438  0.999997  -0.195052
    C   C98   0.999995  0.869438  0.999997  -0.195090
    C   C99   0.999996  0.618783  0.999997  -0.056568
    C   C100  0.499996  0.118783  0.999997  -0.056572
    H   H29   0.451869  0.704426  0.887643  0.163199
    H   H30   0.548126  0.704426  0.112361  0.163138
    H   H31   0.951869  0.204426  0.887643  0.163200
    H   H32   0.048126  0.204426  0.112361  0.163142
    C   C101  0.972325  0.265330  0.935395  -0.005175
    C   C102  0.027671  0.265330  0.064608  -0.004728
    C   C103  0.472325  0.765330  0.935395  -0.005165
    C   C104  0.527671  0.765330  0.064608  -0.004730
    C   C105  0.999998  0.287224  0.000002  0.155470
    C   C106  0.499998  0.787224  0.000002  0.155459
    C   C107  0.527175  0.722242  0.063436  -0.401577
    C   C108  0.472820  0.722242  0.936567  -0.401602
    C   C109  0.027175  0.222242  0.063436  -0.401583
    C   C110  0.972820  0.222242  0.936567  -0.401601
    C   C111  0.499997  0.700953  0.000002  0.381249
    C   C112  0.999997  0.200953  0.000002  0.381234
    C   C113  0.999998  0.332035  0.000001  -0.155697
    C   C114  0.499998  0.832035  0.000001  -0.155675
    C   C115  0.499997  0.656243  0.000002  -0.034156
    C   C116  0.999997  0.156243  0.000002  -0.034140
    C   C117  0.499997  0.618696  0.000001  -0.296822
    C   C118  0.999997  0.118696  0.000001  -0.296861
    C   C119  0.999998  0.369626  0.000001  -0.131876
    C   C120  0.499998  0.869626  0.000001  -0.131874
    C   C121  0.931980  0.702335  0.996771  0.526419
    C   C122  0.904668  0.676649  0.927581  -0.429643
    C   C123  0.946109  0.677405  0.066097  -0.434102
    H   H33   0.911554  0.727276  0.995270  -0.046537
    H   H34   0.917347  0.644965  0.932721  0.103236
    H   H35   0.901856  0.692825  0.880010  0.076055
    H   H36   0.873176  0.673592  0.917872  0.095391
    H   H37   0.957732  0.646180  0.064347  0.119094
    H   H38   0.919182  0.673274  0.071565  0.091027
    H   H39   0.971017  0.694786  0.114533  0.076807
    C   C124  0.068008  0.702336  0.003216  0.526493
    C   C125  0.095320  0.676648  0.072404  -0.430149
    C   C126  0.053879  0.677408  0.933888  -0.433993
    H   H40   0.088434  0.727277  0.004718  -0.046506
    H   H41   0.082644  0.644962  0.067259  0.103350
    H   H42   0.098129  0.692819  0.119975  0.076298
    H   H43   0.126814  0.673595  0.082118  0.095473
    H   H44   0.042251  0.646185  0.935632  0.119106
    H   H45   0.080807  0.673273  0.928425  0.091010
    H   H46   0.028975  0.694792  0.885453  0.076780
    C   C127  0.431980  0.202335  0.996771  0.526783
    C   C128  0.404668  0.176649  0.927581  -0.430217
    C   C129  0.446109  0.177405  0.066097  -0.434172
    H   H47   0.411554  0.227276  0.995270  -0.046592
    H   H48   0.417347  0.144965  0.932721  0.103354
    H   H49   0.401856  0.192825  0.880010  0.076231
    H   H50   0.373176  0.173592  0.917872  0.095508
    H   H51   0.457732  0.146180  0.064347  0.119113
    H   H52   0.419182  0.173274  0.071565  0.091036
    H   H53   0.471017  0.194786  0.114533  0.076803
    C   C130  0.568008  0.202336  0.003216  0.526517
    C   C131  0.595320  0.176648  0.072404  -0.430191
    C   C132  0.553879  0.177408  0.933888  -0.434004
    H   H54   0.588434  0.227277  0.004718  -0.046505
    H   H55   0.582644  0.144962  0.067259  0.103362
    H   H56   0.598129  0.192819  0.119975  0.076310
    H   H57   0.626814  0.173595  0.082118  0.095484
    H   H58   0.542251  0.146185  0.935632  0.119110
    H   H59   0.580807  0.173273  0.928425  0.091015
    H   H60   0.528975  0.194792  0.885453  0.076778
    C   C133  0.941347  0.285903  0.863035  0.528940
    C   C134  0.908927  0.311460  0.866190  -0.424023
    C   C135  0.962397  0.310951  0.832738  -0.388720
    H   H61   0.923723  0.260956  0.822332  -0.054503
    H   H62   0.920438  0.343100  0.888133  0.108322
    H   H63   0.900274  0.295119  0.900918  0.071449
    H   H64   0.880759  0.314614  0.809764  0.088514
    H   H65   0.971911  0.342230  0.857956  0.096375
    H   H66   0.940092  0.314960  0.772695  0.081464
    H   H67   0.990139  0.293726  0.842657  0.063312
    C   C136  0.058648  0.285903  0.136969  0.528128
    C   C137  0.091068  0.311460  0.133814  -0.424360
    C   C138  0.037598  0.310951  0.167264  -0.389417
    H   H68   0.076272  0.260956  0.177672  -0.054151
    H   H69   0.079557  0.343099  0.111870  0.108458
    H   H70   0.099722  0.295119  0.099088  0.071562
    H   H71   0.119236  0.314614  0.190241  0.088710
    H   H72   0.028084  0.342230  0.142047  0.096606
    H   H73   0.059902  0.314960  0.227308  0.081706
    H   H74   0.009855  0.293726  0.157344  0.063545
    C   C139  0.441347  0.785903  0.863035  0.528914
    C   C140  0.408927  0.811460  0.866190  -0.424002
    C   C141  0.462397  0.810951  0.832738  -0.388692
    H   H75   0.423723  0.760956  0.822332  -0.054497
    H   H76   0.420438  0.843100  0.888133  0.108308
    H   H77   0.400274  0.795119  0.900918  0.071447
    H   H78   0.380759  0.814614  0.809764  0.088514
    H   H79   0.471911  0.842230  0.857956  0.096358
    H   H80   0.440092  0.814960  0.772695  0.081460
    H   H81   0.490139  0.793726  0.842657  0.063311
    C   C142  0.558648  0.785903  0.136969  0.528125
    C   C143  0.591068  0.811460  0.133814  -0.424370
    C   C144  0.537598  0.810951  0.167264  -0.389411
    H   H82   0.576272  0.760956  0.177672  -0.054145
    H   H83   0.579557  0.843099  0.111870  0.108456
    H   H84   0.599722  0.795119  0.099088  0.071572
    H   H85   0.619236  0.814614  0.190241  0.088711
    H   H86   0.528084  0.842230  0.142047  0.096598
    H   H87   0.559902  0.814960  0.227308  0.081707
    H   H88   0.509855  0.793726  0.157344  0.063546
    C   C145  0.296838  0.444710  0.222070  0.479898
    C   C146  0.287266  0.400115  0.231392  -0.403716
    C   C147  0.285805  0.451586  0.144291  -0.412565
    H   H89   0.330976  0.448737  0.258981  -0.030380
    H   H90   0.254635  0.391683  0.188489  0.086449
    H   H91   0.292316  0.396536  0.286423  0.073964
    H   H92   0.308594  0.378763  0.227079  0.097998
    H   H93   0.253219  0.442035  0.103210  0.094508
    H   H94   0.307091  0.432846  0.135647  0.093109
    H   H95   0.289763  0.485023  0.136674  0.073745
    C   C148  0.703155  0.444681  0.777881  0.479593
    C   C149  0.712729  0.400092  0.768526  -0.403210
    C   C150  0.714187  0.451532  0.855665  -0.413517
    H   H96   0.669018  0.448708  0.740972  -0.030237
    H   H97   0.745360  0.391657  0.811423  0.086360
    H   H98   0.707679  0.396531  0.713491  0.073826
    H   H99   0.691401  0.378731  0.772821  0.097915
    H   H100  0.746773  0.441978  0.896739  0.094768
    H   H101  0.692901  0.432781  0.864292  0.093352
    H   H102  0.710229  0.484965  0.863307  0.074083
    C   C151  0.796838  0.944710  0.222070  0.479901
    C   C152  0.787266  0.900115  0.231392  -0.403718
    C   C153  0.785805  0.951586  0.144291  -0.412562
    H   H103  0.830976  0.948737  0.258981  -0.030375
    H   H104  0.754635  0.891683  0.188489  0.086444
    H   H105  0.792316  0.896536  0.286423  0.073962
    H   H106  0.808594  0.878763  0.227079  0.098001
    H   H107  0.753219  0.942035  0.103210  0.094503
    H   H108  0.807091  0.932846  0.135647  0.093109
    H   H109  0.789763  0.985023  0.136674  0.073744
    C   C154  0.203155  0.944681  0.777881  0.479604
    C   C155  0.212729  0.900092  0.768526  -0.403203
    C   C156  0.214187  0.951532  0.855665  -0.413512
    H   H110  0.169018  0.948708  0.740972  -0.030235
    H   H111  0.245360  0.891657  0.811423  0.086353
    H   H112  0.207679  0.896531  0.713491  0.073823
    H   H113  0.191401  0.878731  0.772821  0.097913
    H   H114  0.246773  0.941978  0.896739  0.094761
    H   H115  0.192901  0.932781  0.864292  0.093352
    H   H116  0.210229  0.984965  0.863307  0.074081
    C   C157  0.204028  0.560088  0.285977  0.476093
    C   C158  0.215474  0.553927  0.364158  -0.391356
    C   C159  0.213051  0.604601  0.275125  -0.373802
    H   H117  0.169913  0.555668  0.249579  -0.033886
    H   H118  0.247888  0.564227  0.404635  0.081155
    H   H119  0.212243  0.520504  0.373050  0.075640
    H   H120  0.193928  0.572448  0.372441  0.090464
    H   H121  0.245802  0.613277  0.316942  0.076781
    H   H122  0.191957  0.626020  0.279975  0.092129
    H   H123  0.207240  0.607780  0.219478  0.065974
    C   C160  0.795967  0.560116  0.714071  0.475799
    C   C161  0.784522  0.553979  0.635886  -0.390309
    C   C162  0.786944  0.604622  0.724958  -0.373649
    H   H124  0.830082  0.555695  0.750467  -0.033911
    H   H125  0.752108  0.564283  0.595416  0.080840
    H   H126  0.787753  0.520561  0.626967  0.075341
    H   H127  0.806068  0.572512  0.627619  0.090199
    H   H128  0.754193  0.613301  0.683148  0.076745
    H   H129  0.808038  0.626050  0.720126  0.092170
    H   H130  0.792754  0.607782  0.780608  0.065873
    C   C163  0.704028  0.060088  0.285977  0.476189
    C   C164  0.715474  0.053927  0.364158  -0.391414
    C   C165  0.713051  0.104601  0.275125  -0.373795
    H   H131  0.669913  0.055668  0.249579  -0.033915
    H   H132  0.747888  0.064227  0.404635  0.081167
    H   H133  0.712243  0.020504  0.373050  0.075667
    H   H134  0.693928  0.072448  0.372441  0.090466
    H   H135  0.745802  0.113277  0.316942  0.076784
    H   H136  0.691957  0.126020  0.279975  0.092118
    H   H137  0.707240  0.107780  0.219478  0.065970
    C   C166  0.295967  0.060116  0.714071  0.475832
    C   C167  0.284522  0.053979  0.635886  -0.390317
    C   C168  0.286944  0.104622  0.724958  -0.373617
    H   H138  0.330082  0.055695  0.750467  -0.033922
    H   H139  0.252108  0.064283  0.595416  0.080849
    H   H140  0.287753  0.020561  0.626967  0.075343
    H   H141  0.306068  0.072512  0.627619  0.090192
    H   H142  0.254193  0.113301  0.683148  0.076739
    H   H143  0.308038  0.126050  0.720126  0.092153
    H   H144  0.292754  0.107782  0.780608  0.065866
