data_DB0-m3_o12_o23_f0_pcu.sym.49_repeat
_audit_creation_date              2024-02-23
_audit_creation_method            'Materials Studio'
_symmetry_space_group_name_H-M    'P1'
_symmetry_Int_Tables_number       1
_symmetry_cell_setting            triclinic
loop_
_symmetry_equiv_pos_as_xyz
  x,y,z
_cell_length_a                    10.1865
_cell_length_b                    11.3915
_cell_length_c                    15.9569
_cell_angle_alpha                 89.9922
_cell_angle_beta                  80.5486
_cell_angle_gamma                 92.4596
loop_
_atom_site_label
_atom_site_type_symbol
_atom_site_fract_x
_atom_site_fract_y
_atom_site_fract_z
_atom_site_U_iso_or_equiv
_atom_site_adp_type
_atom_site_occupancy
O1     O     0.41564   0.68887   0.50583   0.00000  Uiso   1.00
O2     O     0.64076   0.66311   0.48367   0.00000  Uiso   1.00
C1     C     0.53870   0.73128   0.49345   0.00000  Uiso   1.00
O3     O     0.37580   0.51387   0.63321   0.00000  Uiso   1.00
O4     O     0.60154   0.48717   0.61208   0.00000  Uiso   1.00
C2     C     0.48754   0.50000   0.66178   0.00000  Uiso   1.00
Zn1    Zn    0.34545   0.51966   0.51096   0.00000  Uiso   1.00
Zn2    Zn    0.64416   0.48522   0.48355   0.00000  Uiso   1.00
O5     O     0.34765   0.34210   0.50988   0.00000  Uiso   1.00
O6     O     0.57507   0.31525   0.48837   0.00000  Uiso   1.00
O7     O     0.38695   0.51692   0.38241   0.00000  Uiso   1.00
O8     O     0.61396   0.48956   0.36120   0.00000  Uiso   1.00
C3     C     0.45020   0.27464   0.49979   0.00000  Uiso   1.00
C4     C     0.50158   0.50370   0.33285   0.00000  Uiso   1.00
C5     C     0.39838   0.59271   0.96101   0.00000  Uiso   1.00
C6     C     0.63159   0.53098   0.93342   0.00000  Uiso   1.00
C7     C     0.63281   0.54559   0.02780   0.00000  Uiso   1.00
H1     H     0.41876   0.67607   0.07909   0.00000  Uiso   1.00
H2     H     0.43544   0.68140   0.93696   0.00000  Uiso   1.00
H3     H     0.69708   0.45919   0.90864   0.00000  Uiso   1.00
H4     H     0.66947   0.61386   0.89971   0.00000  Uiso   1.00
H5     H     0.65199   0.63952   0.04187   0.00000  Uiso   1.00
H6     H     0.71300   0.49376   0.04680   0.00000  Uiso   1.00
C8     C     0.50319   0.50370   0.24276   0.00000  Uiso   1.00
C9     C     0.49028   0.50129   0.91863   0.00000  Uiso   1.00
C10    C     0.39511   0.58699   0.05616   0.00000  Uiso   1.00
C11    C     0.49853   0.50318   0.07607   0.00000  Uiso   1.00
C12    C     0.47032   0.37839   0.04737   0.00000  Uiso   1.00
C13    C     0.44396   0.38160   0.95666   0.00000  Uiso   1.00
C14    C     0.50204   0.50356   0.16737   0.00000  Uiso   1.00
C15    C     0.48697   0.50036   0.82730   0.00000  Uiso   1.00
C16    C     0.48593   0.49997   0.75189   0.00000  Uiso   1.00
H7     H     0.33644   0.36605   0.95438   0.00000  Uiso   1.00
H8     H     0.50020   0.31223   0.91961   0.00000  Uiso   1.00
H9     H     0.29639   0.57569   0.94665   0.00000  Uiso   1.00
H10    H     0.29389   0.55950   0.08832   0.00000  Uiso   1.00
H11    H     0.56099   0.32823   0.04836   0.00000  Uiso   1.00
H12    H     0.61337   0.09293   0.49637   0.00000  Uiso   1.00
C17    C     0.56553   0.86005   0.49158   0.00000  Uiso   1.00
C18    C     0.47118   0.93976   0.49451   0.00000  Uiso   1.00
H13    H     0.31484   0.12406   0.49970   0.00000  Uiso   1.00
C19    C     0.41883   0.14812   0.49874   0.00000  Uiso   1.00
C20    C     0.50983   0.06641   0.49677   0.00000  Uiso   1.00
H14    H     0.66799   0.89133   0.48965   0.00000  Uiso   1.00
H15    H     0.09688   0.40382   0.45753   0.00000  Uiso   1.00
N1     N     0.84094   0.46382   0.46658   0.00000  Uiso   1.00
C21    C     0.92026   0.50110   0.51699   0.00000  Uiso   1.00
H16    H     0.11484   0.61596   0.56126   0.00000  Uiso   1.00
N2     N     0.14934   0.54278   0.52864   0.00000  Uiso   1.00
C22    C     0.06348   0.47660   0.49815   0.00000  Uiso   1.00
H17    H     0.88662   0.41893   0.41464   0.00000  Uiso   1.00
C23    C     0.33097   0.90425   0.49278   0.00000  Uiso   1.00
O9     O     0.24652   0.91815   0.55521   0.00000  Uiso   1.00
O10    O     0.29442   0.85512   0.41967   0.00000  Uiso   1.00
H18    H     0.19511   0.83612   0.42896   0.00000  Uiso   1.00
C24    C     0.87091   0.56512   0.59518   0.00000  Uiso   1.00
O11    O     0.80782   0.65299   0.59239   0.00000  Uiso   1.00
O12    O     0.90842   0.53222   0.67156   0.00000  Uiso   1.00
H19    H     0.87104   0.58749   0.71827   0.00000  Uiso   1.00
C25    C     0.35905   0.31563   0.10556   0.00000  Uiso   1.00
O13    O     0.24509   0.34764   0.11267   0.00000  Uiso   1.00
O14    O     0.38611   0.21791   0.15109   0.00000  Uiso   1.00
H20    H     0.30135   0.18496   0.18698   0.00000  Uiso   1.00
