# Generated by REPEAT Assigner based on pymatgen
data_DB0-m9_o2_o23_f0_sra.sym.100
_audit_creation_date              2022-05-24
_audit_creation_method            REPEAT_Assigner
_cell_length_a                    6.324245
_cell_length_b                    16.835382
_cell_length_c                    19.928485
_cell_angle_alpha                 67.512289
_cell_angle_beta                  90.858147
_cell_angle_gamma                 90.997609
_cell_volume                      1960.091926
_symmetry_space_group_name_H-M    P1
_symmetry_Int_Tables_number       1
loop_
    _symmetry_equiv_pos_site_id
    _symmetry_equiv_pos_as_xyz
    1  x,y,z
loop_
    _atom_site_type_symbol
    _atom_site_label
    _atom_site_fract_x
    _atom_site_fract_y
    _atom_site_fract_z
    _atom_type_partial_charge
    O  O1   0.564072  0.417261  0.976628  -0.554768
    O  O2   0.767736  0.391553  0.061541  -0.576221
    O  O3   0.990923  0.515965  0.091655  -0.642140
    C  C1   0.650293  0.393237  0.115780  0.997253
    O  O4   0.855101  0.480257  0.912405  -0.675014
    O  O5   0.070927  0.603715  0.942972  -0.496071
    C  C2   0.679297  0.437047  0.918383  0.924950
    O  O6   0.488324  0.445294  0.104426  -0.563388
    O  O7   0.675757  0.566367  0.991191  -0.569937
    V  V1   0.947063  0.491123  0.003642  1.433638
    O  O8   0.358017  0.564590  0.897114  -0.601636
    C  C3   0.187006  0.609501  0.887553  0.951634
    O  O9   0.275270  0.593141  0.024969  -0.547220
    C  C4   0.160716  0.565126  0.085159  0.819383
    V  V2   0.447920  0.511652  0.999858  1.294325
    O  O10  0.170669  0.435889  0.014867  -0.578791
    C  C5   0.971191  0.680158  0.261138  -0.058115
    C  C6   0.359778  0.695881  0.257832  -0.021518
    C  C7   0.326764  0.734584  0.313972  -0.189703
    H  H1   0.904872  0.706455  0.356354  0.034208
    H  H2   0.999743  0.614962  0.302675  0.013305
    H  H3   0.496152  0.729139  0.223862  0.015130
    H  H4   0.392851  0.626330  0.285473  0.038919
    H  H5   0.292188  0.682782  0.367326  0.036137
    H  H6   0.471557  0.770397  0.318487  0.035496
    C  C8   0.129078  0.886944  0.373757  -0.152924
    C  C9   0.160924  0.708609  0.211524  0.355905
    C  C10  0.940226  0.742590  0.298121  -0.171099
    C  C11  0.141178  0.794973  0.290645  0.741003
    C  C12  0.166020  0.854655  0.211865  -0.332913
    C  C13  0.139449  0.803298  0.164131  0.152361
    C  C14  0.131898  0.845292  0.336267  -0.373320
    C  C15  0.165710  0.657204  0.166692  -0.257150
    C  C16  0.166205  0.615062  0.129579  -0.175128
    H  H7   0.978325  0.813748  0.139844  -0.004461
    H  H8   0.041946  0.904250  0.197816  0.093799
    H  H9   0.827487  0.678739  0.229009  0.003637
    H  H10  0.807804  0.786166  0.271665  0.023275
    H  H11  0.325061  0.885491  0.203909  0.064644
    H  H12  0.350360  0.514847  0.698619  0.075610
    C  C17  0.064833  0.776940  0.878003  -0.452542
    C  C18  0.005794  0.856962  0.874154  0.051107
    C  C19  0.986028  0.923671  0.807779  -0.191381
    C  C20  0.026605  0.910459  0.745211  -0.177017
    C  C21  0.083278  0.830097  0.748587  0.245253
    C  C22  0.100992  0.762584  0.815194  0.359965
    C  C23  0.129368  0.818815  0.685244  -0.585679
    C  C24  0.191738  0.738941  0.688314  0.368478
    C  C25  0.209339  0.671412  0.754910  0.255737
    C  C26  0.163239  0.682680  0.818261  -0.567348
    C  C27  0.228134  0.724662  0.625493  -0.416466
    C  C28  0.287135  0.644647  0.629310  -0.061717
    C  C29  0.306691  0.577897  0.695675  -0.067801
    C  C30  0.266008  0.591062  0.758261  -0.233993
    H  H13  0.086592  0.727169  0.930911  0.263665
    H  H14  0.977952  0.867629  0.923425  0.077440
    H  H15  0.942371  0.986732  0.804815  0.112090
    H  H16  0.017595  0.964094  0.693685  0.120672
    H  H17  0.206654  0.774534  0.572609  0.266763
    H  H18  0.315149  0.634025  0.580029  0.085300
    H  H19  0.274998  0.537419  0.809784  0.125326
    H  H20  0.527411  0.497452  0.301230  0.082224
    C  C31  0.713723  0.219509  0.127231  -0.407203
    C  C32  0.744641  0.136620  0.132212  -0.067563
    C  C33  0.743648  0.069720  0.198922  -0.046933
    C  C34  0.710012  0.085667  0.260665  -0.248419
    C  C35  0.681142  0.168717  0.256166  0.242639
    C  C36  0.685158  0.236351  0.189291  0.392987
    C  C37  0.641044  0.182799  0.318686  -0.604536
    C  C38  0.607490  0.265703  0.314613  0.399729
    C  C39  0.611521  0.333348  0.247740  0.255271
    C  C40  0.651575  0.319261  0.185209  -0.611026
    C  C41  0.579009  0.282521  0.376687  -0.400958
    C  C42  0.548175  0.365406  0.371729  -0.076771
    C  C43  0.549187  0.432320  0.305027  -0.072296
    C  C44  0.582781  0.416397  0.243270  -0.250406
    H  H21  0.707500  0.269762  0.073985  0.259779
    H  H22  0.766848  0.124024  0.083525  0.079762
    H  H23  0.765464  0.004585  0.202736  0.080707
    H  H24  0.702557  0.032351  0.312463  0.120110
    H  H25  0.585180  0.232239  0.429923  0.253842
    H  H26  0.525992  0.377984  0.420425  0.095315
    H  H27  0.590328  0.469742  0.191494  0.119126
    O  O11  0.804883  0.056970  0.399439  -0.566534
    O  O12  0.437300  0.021470  0.591390  -0.676144
    O  O13  0.222429  0.898015  0.560618  -0.474144
    C  C45  0.612758  0.064818  0.585494  0.925406
    O  O14  0.525120  0.110433  0.442330  -0.556684
    O  O15  0.302813  0.986020  0.411940  -0.624087
    C  C46  0.642513  0.108812  0.388099  0.970825
    O  O16  0.728141  0.084735  0.527291  -0.565504
    O  O17  0.617492  0.935600  0.512538  -0.578834
    V  V3   0.345979  0.010721  0.500050  1.404263
    O  O18  0.019089  0.908486  0.478506  -0.603681
    C  C47  0.133368  0.936751  0.418279  0.833017
    O  O19  0.934859  0.936995  0.606322  -0.614674
    C  C48  0.105601  0.891959  0.615941  0.953370
    V  V4   0.845600  0.989836  0.503509  1.367070
    O  O20  0.122251  0.065867  0.488758  -0.582704
    C  C49  0.839194  0.265097  0.696769  -0.180433
    C  C50  0.449143  0.262687  0.696981  -0.270179
    C  C51  0.470051  0.324321  0.735692  0.011067
    H  H28  0.894608  0.375003  0.725254  -0.010964
    H  H29  0.824475  0.316112  0.641683  0.032540
    H  H30  0.307936  0.220709  0.717132  0.075200
    H  H31  0.432523  0.299664  0.637708  0.068605
    H  H32  0.508847  0.389718  0.695890  0.024756
    H  H33  0.319088  0.325585  0.762850  0.000074
    C  C52  0.658301  0.386585  0.874589  -0.230486
    C  C53  0.644635  0.207559  0.712414  0.614729
    C  C54  0.855766  0.305599  0.752699  0.030382
    C  C55  0.646463  0.294298  0.791495  0.479951
    C  C56  0.612206  0.200040  0.837841  -0.215138
    C  C57  0.646901  0.147869  0.791730  -0.038680
    C  C58  0.649490  0.344691  0.837256  -0.288662
    C  C59  0.641740  0.157136  0.666676  -0.297445
    C  C60  0.633217  0.115245  0.629335  -0.229267
    H  H34  0.802293  0.115789  0.805531  0.016379
    H  H35  0.519222  0.098739  0.802078  0.008116
    H  H36  0.725512  0.179690  0.884167  0.061609
    H  H37  0.982457  0.226761  0.699815  0.007479
    H  H38  0.981570  0.273570  0.792853  0.007826
    H  H39  0.448032  0.189854  0.858525  0.046704
    C  C61  0.298098  0.833166  0.104196  -0.192773
    C  C62  0.293247  0.917486  0.054971  0.285014
    C  C63  0.136667  0.978210  0.062606  -0.314104
    C  C64  0.432889  0.946074  0.997913  -0.372083
    C  C65  0.579497  0.890967  0.989836  0.032316
    C  C66  0.585693  0.807003  0.038680  -0.214764
    C  C67  0.445355  0.777912  0.095541  0.000470
    H  H40  0.975701  0.949358  0.067998  0.086365
    H  H41  0.142150  0.038848  0.013788  0.077825
    H  H42  0.177027  0.992827  0.110989  0.085003
    H  H43  0.427679  0.011997  0.959567  0.162365
    H  H44  0.689237  0.913524  0.945183  0.065852
    H  H45  0.700287  0.763608  0.032236  0.127725
    H  H46  0.453555  0.711596  0.132203  0.099336
