# generated using pymatgen
data_Cu3H25C39NO13
_symmetry_space_group_name_H-M   'P 1'
_cell_length_a   21.64453200
_cell_length_b   21.66050200
_cell_length_c   22.01778300
_cell_angle_alpha   119.45072900
_cell_angle_beta   119.43048600
_cell_angle_gamma   90.01199400
_symmetry_Int_Tables_number   1
_chemical_formula_structural   Cu3H25C39NO13
_chemical_formula_sum   'Cu6 H50 C78 N2 O26'
_cell_volume   7420.18819332
_cell_formula_units_Z   2
loop_
 _symmetry_equiv_pos_site_id
 _symmetry_equiv_pos_as_xyz
  1  'x, y, z'
loop_
 _atom_site_type_symbol
 _atom_site_label
 _atom_site_symmetry_multiplicity
 _atom_site_fract_x
 _atom_site_fract_y
 _atom_site_fract_z
 _atom_site_occupancy
  Cu  Cu1  1  0.43667300  0.99790100  0.49631400  1
  Cu  Cu2  1  0.56332700  0.00210000  0.50368600  1
  Cu  Cu3  1  0.00093100  0.56368700  0.50456400  1
  Cu  Cu4  1  0.99906900  0.43631400  0.49543600  1
  Cu  Cu5  1  0.53427200  0.53629400  0.58312300  1
  Cu  Cu6  1  0.46572800  0.46370700  0.41687700  1
  H  H1  1  0.84260500  0.73779600  0.78075400  1
  H  H2  1  0.15739500  0.26220400  0.21924700  1
  H  H3  1  0.72734300  0.64221800  0.66805100  1
  H  H4  1  0.27265700  0.35778200  0.33194900  1
  H  H5  1  0.72763400  0.38453200  0.06727500  1
  H  H6  1  0.27236600  0.61546800  0.93272500  1
  H  H7  1  0.64774600  0.30906100  0.92511900  1
  H  H8  1  0.35225400  0.69093900  0.07488100  1
  H  H9  1  0.80273200  0.23186400  0.92720400  1
  H  H10  1  0.19726800  0.76813600  0.07279600  1
  H  H11  1  0.76736500  0.30917700  0.93516200  1
  H  H12  1  0.23263500  0.69082300  0.06483800  1
  H  H13  1  0.84601400  0.37197300  0.07701300  1
  H  H14  1  0.15398600  0.62802800  0.92298700  1
  H  H15  1  0.87145200  0.29008600  0.06873300  1
  H  H16  1  0.12854800  0.70991400  0.93126700  1
  H  H17  1  0.65610500  0.13578800  0.92340600  1
  H  H18  1  0.34389500  0.86421200  0.07659400  1
  H  H19  1  0.74400100  0.13781600  0.93293100  1
  H  H20  1  0.25599900  0.86218500  0.06706900  1
  H  H21  1  0.71555500  0.21204700  0.06497100  1
  H  H22  1  0.28444500  0.78795300  0.93502900  1
  H  H23  1  0.60672700  0.24144000  0.93127300  1
  H  H24  1  0.39327300  0.75856100  0.06872700  1
  H  H25  1  0.67792600  0.32302100  0.07332200  1
  H  H26  1  0.32207400  0.67698000  0.92667800  1
  H  H27  1  0.80230900  0.20327500  0.07429100  1
  H  H28  1  0.19769100  0.79672600  0.92570900  1
  H  H29  1  0.60256600  0.23692200  0.58462000  1
  H  H30  1  0.39743400  0.76307800  0.41538000  1
  H  H31  1  0.36413000  0.05757900  0.34374900  1
  H  H32  1  0.63587000  0.94242100  0.65625100  1
  H  H33  1  0.25044200  0.06238100  0.24436700  1
  H  H34  1  0.74955800  0.93761900  0.75563300  1
  H  H35  1  0.24252200  0.18003100  0.25545000  1
  H  H36  1  0.75747800  0.81996900  0.74455000  1
  H  H37  1  0.34905000  0.29152500  0.36383500  1
  H  H38  1  0.65095100  0.70847600  0.63616500  1
  H  H39  1  0.60042500  0.34912500  0.58493500  1
  H  H40  1  0.39957500  0.65087500  0.41506500  1
  H  H41  1  0.64841400  0.40333000  0.41054600  1
  H  H42  1  0.35158600  0.59667000  0.58945400  1
  H  H43  1  0.75847300  0.40061400  0.40755800  1
  H  H44  1  0.24152700  0.59938600  0.59244200  1
  H  H45  1  0.94972500  0.62017800  0.66342000  1
  H  H46  1  0.05027500  0.37982300  0.33658000  1
  H  H47  1  0.03786800  0.84277300  0.91296600  1
  H  H48  1  0.95240300  0.84001000  0.84572900  1
  H  H49  1  0.96213200  0.15722800  0.08703400  1
  H  H50  1  0.04759700  0.15999000  0.15427100  1
  C  C1  1  0.49319200  0.11065200  0.48504000  1
  C  C2  1  0.50680800  0.88934800  0.51496000  1
  C  C3  1  0.57601100  0.08998400  0.66151300  1
  C  C4  1  0.42398900  0.91001600  0.33848700  1
  C  C5  1  0.77377500  0.63372900  0.66314700  1
  C  C6  1  0.22622500  0.36627100  0.33685300  1
  C  C7  1  0.69908300  0.45027100  0.46232300  1
  C  C8  1  0.30091700  0.54973000  0.53767700  1
  C  C9  1  0.70037000  0.51094900  0.52802100  1
  C  C10  1  0.29963000  0.48905200  0.47197900  1
  C  C11  1  0.83130700  0.56706700  0.59331800  1
  C  C12  1  0.16869300  0.43293400  0.40668200  1
  C  C13  1  0.66002200  0.27496800  0.95166600  1
  C  C14  1  0.33997800  0.72503300  0.04833400  1
  C  C15  1  0.77519000  0.26917500  0.95381200  1
  C  C16  1  0.22481000  0.73082500  0.04618800  1
  C  C17  1  0.82390400  0.31179800  0.04917700  1
  C  C18  1  0.17609600  0.68820200  0.95082300  1
  C  C19  1  0.86218500  0.38319700  0.24813700  1
  C  C20  1  0.13781500  0.61680300  0.75186300  1
  C  C21  1  0.69981200  0.22316200  0.92040600  1
  C  C22  1  0.30018800  0.77683900  0.07959400  1
  C  C23  1  0.70964200  0.32612200  0.04727300  1
  C  C24  1  0.29035800  0.67387900  0.95272700  1
  C  C25  1  0.77779800  0.30183300  0.07972100  1
  C  C26  1  0.22220200  0.69816800  0.92027900  1
  C  C27  1  0.75286100  0.22026400  0.04684100  1
  C  C28  1  0.24713900  0.77973700  0.95316000  1
  C  C29  1  0.71113500  0.17276600  0.95160700  1
  C  C30  1  0.28886500  0.82723500  0.04839300  1
  C  C31  1  0.82345400  0.34699900  0.17208000  1
  C  C32  1  0.17654600  0.65300200  0.82792000  1
  C  C33  1  0.65491300  0.17702600  0.82804700  1
  C  C34  1  0.34508700  0.82297400  0.17195300  1
  C  C35  1  0.61856600  0.13790800  0.75199000  1
  C  C36  1  0.38143400  0.86209200  0.24801100  1
  C  C37  1  0.36327800  0.11079700  0.35183600  1
  C  C38  1  0.63672200  0.88920400  0.64816400  1
  C  C39  1  0.29836400  0.11253800  0.29391100  1
  C  C40  1  0.70163600  0.88746300  0.70609000  1
  C  C41  1  0.29410700  0.17818800  0.29977100  1
  C  C42  1  0.70589300  0.82181300  0.70023000  1
  C  C43  1  0.35572800  0.24145400  0.36129600  1
  C  C44  1  0.64427200  0.75854700  0.63870500  1
  C  C45  1  0.42279600  0.24016700  0.41833200  1
  C  C46  1  0.57720400  0.75983300  0.58166800  1
  C  C47  1  0.42516200  0.17503000  0.41637600  1
  C  C48  1  0.57483800  0.82497000  0.58362400  1
  C  C49  1  0.48974100  0.17450000  0.47779100  1
  C  C50  1  0.51025900  0.82550000  0.52220900  1
  C  C51  1  0.55225800  0.23697600  0.53682200  1
  C  C52  1  0.44774200  0.76302500  0.46317900  1
  C  C53  1  0.55059400  0.30076500  0.53768400  1
  C  C54  1  0.44940600  0.69923500  0.46231600  1
  C  C55  1  0.48663000  0.30337300  0.47906400  1
  C  C56  1  0.51337000  0.69662800  0.52093600  1
  C  C57  1  0.76164800  0.44791200  0.46080200  1
  C  C58  1  0.23835200  0.55208900  0.53919800  1
  C  C59  1  0.82704800  0.50660800  0.52437100  1
  C  C60  1  0.17295200  0.49339300  0.47563000  1
  C  C61  1  0.88961400  0.50411600  0.51502200  1
  C  C62  1  0.11038600  0.49588500  0.48497800  1
  C  C63  1  0.90981700  0.42504000  0.33857900  1
  C  C64  1  0.09018300  0.57496000  0.66142100  1
  C  C65  1  0.62818800  0.50856200  0.51983900  1
  C  C66  1  0.37181200  0.49143900  0.48016200  1
  C  C67  1  0.48990500  0.37429000  0.48524600  1
  C  C68  1  0.51009500  0.62571000  0.51475400  1
  C  C69  1  0.76788500  0.57026500  0.59516000  1
  C  C70  1  0.23211500  0.42973500  0.40484100  1
  C  C71  1  0.89915700  0.62368900  0.66131200  1
  C  C72  1  0.10084300  0.37631200  0.33868800  1
  C  C73  1  0.90414400  0.68520600  0.72902600  1
  C  C74  1  0.09585600  0.31479500  0.27097500  1
  C  C75  1  0.84079500  0.69018700  0.72892800  1
  C  C76  1  0.15920500  0.30981300  0.27107200  1
  C  C77  1  0.97650700  0.74451700  0.80040200  1
  C  C78  1  0.02349300  0.25548400  0.19959800  1
  N  N1  1  0.98157100  0.81005300  0.86896600  1
  N  N2  1  0.01842900  0.18994800  0.13103400  1
  O  O1  1  0.43923700  0.08071200  0.48348700  1
  O  O2  1  0.56076300  0.91928800  0.51651300  1
  O  O3  1  0.55199100  0.08833800  0.49680500  1
  O  O4  1  0.44800900  0.91166300  0.50319600  1
  O  O5  1  0.50300200  0.06406100  0.61938800  1
  O  O6  1  0.49699800  0.93593900  0.38061200  1
  O  O7  1  0.61235800  0.07255800  0.62529600  1
  O  O8  1  0.38764200  0.92744300  0.37470400  1
  O  O9  1  0.91843700  0.55941400  0.51767500  1
  O  O10  1  0.08156300  0.44058600  0.48232500  1
  O  O11  1  0.91321700  0.44601300  0.50275100  1
  O  O12  1  0.08678300  0.55398800  0.49724900  1
  O  O13  1  0.92992300  0.49830900  0.38198700  1
  O  O14  1  0.07007700  0.50169100  0.61801300  1
  O  O15  1  0.93316900  0.38792400  0.37346000  1
  O  O16  1  0.06683100  0.61207600  0.62654000  1
  O  O17  1  0.62646100  0.53938900  0.58711500  1
  O  O18  1  0.37353900  0.46061100  0.41288500  1
  O  O19  1  0.56683400  0.47154800  0.44303100  1
  O  O20  1  0.43316600  0.52845200  0.55697000  1
  O  O21  1  0.52563100  0.43657300  0.56101800  1
  O  O22  1  0.47436900  0.56342700  0.43898200  1
  O  O23  1  0.46095500  0.37342400  0.41646400  1
  O  O24  1  0.53904500  0.62657700  0.58353600  1
  O  O25  1  0.03294800  0.73789200  0.80158000  1
  O  O26  1  0.96705200  0.26210800  0.19842000  1
