# generated using pymatgen
data_ZnH13C21O5
_symmetry_space_group_name_H-M   'P 1'
_cell_length_a   18.90644900
_cell_length_b   18.96221700
_cell_length_c   18.99147800
_cell_angle_alpha   109.49926800
_cell_angle_beta   109.38064700
_cell_angle_gamma   109.40705300
_symmetry_Int_Tables_number   1
_chemical_formula_structural   ZnH13C21O5
_chemical_formula_sum   'Zn6 H78 C126 O30'
_cell_volume   5249.43746231
_cell_formula_units_Z   6
loop_
 _symmetry_equiv_pos_site_id
 _symmetry_equiv_pos_as_xyz
  1  'x, y, z'
loop_
 _atom_site_type_symbol
 _atom_site_label
 _atom_site_symmetry_multiplicity
 _atom_site_fract_x
 _atom_site_fract_y
 _atom_site_fract_z
 _atom_site_occupancy
  Zn  Zn1  1  0.49900400  0.57096900  0.57186400  1
  Zn  Zn2  1  0.50066600  0.43447700  0.43371400  1
  Zn  Zn3  1  0.07130800  0.99649400  0.56782300  1
  Zn  Zn4  1  0.93314000  0.99417800  0.42763800  1
  Zn  Zn5  1  0.07210200  0.56843800  0.99792100  1
  Zn  Zn6  1  0.93245900  0.42727200  0.99365400  1
  H  H1  1  0.78573800  0.82504200  0.88722600  1
  H  H2  1  0.80737700  0.70091500  0.20682600  1
  H  H3  1  0.84081900  0.72963800  0.35323100  1
  H  H4  1  0.56729500  0.89410100  0.58328800  1
  H  H5  1  0.41469700  0.84992600  0.53919700  1
  H  H6  1  0.30031500  0.70570000  0.41822900  1
  H  H7  1  0.49100500  0.65152300  0.38110200  1
  H  H8  1  0.60479700  0.79415200  0.50468800  1
  H  H9  1  0.25751800  0.63506500  0.25526600  1
  H  H10  1  0.24693000  0.37020200  0.24642300  1
  H  H11  1  0.08777000  0.29709500  0.20299500  1
  H  H12  1  0.77905600  0.92747700  0.83642100  1
  H  H13  1  0.97303200  0.14961500  0.09015700  1
  H  H14  1  0.93052000  0.10340300  0.93817900  1
  H  H15  1  0.00390500  0.20534000  0.89947600  1
  H  H16  1  0.11877600  0.35305600  0.01230000  1
  H  H17  1  0.15678600  0.55283000  0.47680200  1
  H  H18  1  0.16703400  0.52236700  0.59477800  1
  H  H19  1  0.20488400  0.41248800  0.60323700  1
  H  H20  1  0.22172400  0.36257300  0.37488300  1
  H  H21  1  0.18287900  0.47218000  0.36656100  1
  H  H22  1  0.11986300  0.24853300  0.49299000  1
  H  H23  1  0.76682500  0.89816400  0.69563900  1
  H  H24  1  0.37898200  0.24317500  0.49809400  1
  H  H25  1  0.40010400  0.18989000  0.61340600  1
  H  H26  1  0.42930700  0.07208300  0.60879600  1
  H  H27  1  0.32495700  0.92369700  0.48879500  1
  H  H28  1  0.19180200  0.89343100  0.37299900  1
  H  H29  1  0.16183000  0.01078100  0.37712600  1
  H  H30  1  0.60283200  0.65534700  0.92724100  1
  H  H31  1  0.71141800  0.63005800  0.89811900  1
  H  H32  1  0.51101700  0.39483900  0.66705800  1
  H  H33  1  0.40288100  0.42124100  0.69291200  1
  H  H34  1  0.77395500  0.66649200  0.65876700  1
  H  H35  1  0.74822600  0.50149900  0.87631700  1
  H  H36  1  0.75400600  0.49388000  0.61767400  1
  H  H37  1  0.92316200  0.61377000  0.71437600  1
  H  H38  1  0.04035100  0.61367100  0.68543500  1
  H  H39  1  0.07328500  0.49650700  0.67310600  1
  H  H40  1  0.98777500  0.37857300  0.68808000  1
  H  H41  1  0.87042300  0.37818600  0.71738300  1
  H  H42  1  0.03015900  0.67500800  0.57662700  1
  H  H43  1  0.15610700  0.78946700  0.59413300  1
  H  H44  1  0.14501300  0.81712600  0.47451700  1
  H  H45  1  0.78148100  0.69406000  0.79739500  1
  H  H46  1  0.88245900  0.61429700  0.31877200  1
  H  H47  1  0.89376300  0.58666200  0.43841200  1
  H  H48  1  0.99785200  0.61489700  0.25053000  1
  H  H49  1  0.00043600  0.87179100  0.24328200  1
  H  H50  1  0.11321800  0.89548700  0.19272600  1
  H  H51  1  0.11281100  0.92546000  0.07669300  1
  H  H52  1  0.99907000  0.81838400  0.92635300  1
  H  H53  1  0.88523000  0.68192800  0.89288300  1
  H  H54  1  0.88279200  0.65264300  0.00855500  1
  H  H55  1  0.40152000  0.54620700  0.08030400  1
  H  H56  1  0.62464900  0.62447200  0.37131900  1
  H  H57  1  0.32052000  0.59112200  0.99123600  1
  H  H58  1  0.17475500  0.48513100  0.86765900  1
  H  H59  1  0.18993000  0.28883900  0.92305700  1
  H  H60  1  0.33653700  0.39451700  0.04491100  1
  H  H61  1  0.13696900  0.25003900  0.75555000  1
  H  H62  1  0.87123200  0.24639500  0.73843200  1
  H  H63  1  0.79866000  0.19755600  0.57427200  1
  H  H64  1  0.65373600  0.08294200  0.45918400  1
  H  H65  1  0.71207200  0.89759400  0.50350500  1
  H  H66  1  0.85685200  0.01321600  0.62074700  1
  H  H67  1  0.59907000  0.71840200  0.30287400  1
  H  H68  1  0.29158300  0.56712700  0.74658200  1
  H  H69  1  0.31268900  0.58906600  0.85374100  1
  H  H70  1  0.22643300  0.48475300  0.76123300  1
  H  H71  1  0.01658700  0.02047400  0.79606100  1
  H  H72  1  0.08841800  0.97657900  0.79716200  1
  H  H73  1  0.02181400  0.95423200  0.84555700  1
  H  H74  1  0.44946400  0.79913600  0.27801100  1
  H  H75  1  0.41081800  0.87368700  0.27203400  1
  H  H76  1  0.38885400  0.81947100  0.33104400  1
  H  H77  1  0.56589000  0.68964400  0.15662800  1
  H  H78  1  0.67008400  0.68139700  0.10844700  1
  C  C1  1  0.38305800  0.50758800  0.38537100  1
  C  C2  1  0.78146300  0.81269800  0.82570500  1
  C  C3  1  0.93493500  0.72888600  0.95878200  1
  C  C4  1  0.93422300  0.71216000  0.02387700  1
  C  C5  1  0.99891100  0.77134800  0.10819700  1
  C  C6  1  0.29130000  0.52483700  0.97676600  1
  C  C7  1  0.20889700  0.46541800  0.90802500  1
  C  C8  1  0.17059700  0.38105800  0.89040400  1
  C  C9  1  0.21806200  0.35538900  0.93813400  1
  C  C10  1  0.30047500  0.41471300  0.00671400  1
  C  C11  1  0.33686700  0.49966800  0.02654900  1
  C  C12  1  0.07824600  0.24923000  0.75132100  1
  C  C13  1  0.82473500  0.82175000  0.57880600  1
  C  C14  1  0.99952100  0.18339100  0.68024900  1
  C  C15  1  0.92430500  0.18301300  0.67512200  1
  C  C16  1  0.92986900  0.24805800  0.74137600  1
  C  C17  1  0.00866100  0.31495900  0.81156900  1
  C  C18  1  0.08415000  0.31609000  0.81600800  1
  C  C19  1  0.77949700  0.13169700  0.55965400  1
  C  C20  1  0.69691700  0.06659000  0.49507400  1
  C  C21  1  0.67168100  0.98189900  0.47548100  1
  C  C22  1  0.73066400  0.96349900  0.51947500  1
  C  C23  1  0.81262600  0.02860100  0.58478500  1
  C  C24  1  0.81421300  0.81147500  0.49956300  1
  C  C25  1  0.83789000  0.11295100  0.60436600  1
  C  C26  1  0.35402900  0.50567100  0.79582500  1
  C  C27  1  0.29218100  0.53867300  0.78900000  1
  C  C28  1  0.95456200  0.88585100  0.70829600  1
  C  C29  1  0.02488100  0.96430400  0.79213800  1
  C  C30  1  0.51871800  0.92089800  0.39306800  1
  C  C31  1  0.43672600  0.84870800  0.31343400  1
  C  C32  1  0.74042300  0.74103900  0.42442900  1
  C  C33  1  0.68095600  0.68025100  0.42979600  1
  C  C34  1  0.69035300  0.69066900  0.50823200  1
  C  C35  1  0.76149100  0.76311400  0.58358400  1
  C  C36  1  0.64521700  0.71473500  0.28221100  1
  C  C37  1  0.62649600  0.69874200  0.19999400  1
  C  C38  1  0.68485800  0.69410400  0.17297800  1
  C  C39  1  0.62244200  0.62451800  0.50802200  1
  C  C40  1  0.76187200  0.70524600  0.22819100  1
  C  C41  1  0.78074300  0.72154400  0.31051500  1
  C  C42  1  0.72290000  0.72717300  0.33822200  1
  C  C43  1  0.43137400  0.80605600  0.50471400  1
  C  C44  1  0.36716400  0.72508300  0.43643400  1
  C  C45  1  0.38817600  0.66841600  0.39271100  1
  C  C46  1  0.47381800  0.69435900  0.41622100  1
  C  C47  1  0.53791200  0.77491100  0.48518600  1
  C  C48  1  0.51683900  0.83078800  0.52948200  1
  C  C49  1  0.25482600  0.57656700  0.25333500  1
  C  C50  1  0.61724600  0.49826000  0.62024100  1
  C  C51  1  0.18623700  0.49759500  0.18477100  1
  C  C52  1  0.18207800  0.42239100  0.18349000  1
  C  C53  1  0.24893000  0.42849800  0.24844800  1
  C  C54  1  0.31696500  0.50735100  0.31728700  1
  C  C55  1  0.31913000  0.58237400  0.32057000  1
  C  C56  1  0.06967000  0.27750300  0.13641000  1
  C  C57  1  0.00493200  0.19449200  0.07300800  1
  C  C58  1  0.98108400  0.16856300  0.98785700  1
  C  C59  1  0.02211000  0.22573300  0.96618600  1
  C  C60  1  0.08663500  0.30880000  0.02956800  1
  C  C61  1  0.37719100  0.38080400  0.49746600  1
  C  C62  1  0.11037700  0.33546000  0.11494100  1
  C  C63  1  0.17984900  0.48778200  0.54694900  1
  C  C64  1  0.20129000  0.42615100  0.55170600  1
  C  C65  1  0.21865900  0.38237200  0.49136400  1
  C  C66  1  0.21157800  0.39874000  0.42439200  1
  C  C67  1  0.18930300  0.45989300  0.41928800  1
  C  C68  1  0.17410400  0.50486000  0.48086600  1
  C  C69  1  0.17723400  0.24763900  0.49464300  1
  C  C70  1  0.18936300  0.18029400  0.49647500  1
  C  C71  1  0.26283600  0.17895600  0.49818300  1
  C  C72  1  0.77765700  0.87002100  0.79720500  1
  C  C73  1  0.32216500  0.24472800  0.49747400  1
  C  C74  1  0.31038400  0.31247900  0.49631900  1
  C  C75  1  0.23712400  0.31409400  0.49517700  1
  C  C76  1  0.35383100  0.12474300  0.56066300  1
  C  C77  1  0.37029500  0.05862300  0.55821700  1
  C  C78  1  0.31182400  0.97546700  0.49104200  1
  C  C79  1  0.23695900  0.95847200  0.42622700  1
  C  C80  1  0.22006300  0.02440800  0.42888700  1
  C  C81  1  0.27815300  0.10773700  0.49661700  1
  C  C82  1  0.58246100  0.59732700  0.87063300  1
  C  C83  1  0.77111300  0.85362700  0.71825800  1
  C  C84  1  0.64360200  0.58287900  0.85441600  1
  C  C85  1  0.61834900  0.51115000  0.78040500  1
  C  C86  1  0.53146800  0.45162800  0.72493900  1
  C  C87  1  0.47009500  0.46627900  0.74078500  1
  C  C88  1  0.49547300  0.54003300  0.81377800  1
  C  C89  1  0.74918900  0.49916200  0.81901500  1
  C  C90  1  0.81691800  0.49712000  0.80725700  1
  C  C91  1  0.81936100  0.49687600  0.73497600  1
  C  C92  1  0.75243400  0.49529200  0.67448500  1
  C  C93  1  0.68479700  0.49761600  0.68628700  1
  C  C94  1  0.76905400  0.78014900  0.66778000  1
  C  C95  1  0.68422900  0.50144200  0.76043800  1
  C  C96  1  0.93727600  0.56203400  0.70897900  1
  C  C97  1  0.00322800  0.56216200  0.69284500  1
  C  C98  1  0.02171900  0.49654600  0.68596800  1
  C  C99  1  0.97393900  0.43057200  0.69479000  1
  C  C100  1  0.90834400  0.43066100  0.71158600  1
  C  C101  1  0.89037400  0.49695100  0.71960300  1
  C  C102  1  0.00419000  0.87328200  0.38254000  1
  C  C103  1  0.88067700  0.87734300  0.49766900  1
  C  C104  1  0.99926300  0.11614300  0.61309600  1
  C  C105  1  0.77445100  0.72362500  0.69727400  1
  C  C106  1  0.12358900  0.11286200  0.49725400  1
  C  C107  1  0.00798500  0.38024100  0.87972700  1
  C  C108  1  0.11916100  0.49699700  0.11717000  1
  C  C109  1  0.99747400  0.61575500  0.11216700  1
  C  C110  1  0.88513500  0.49777700  0.87370200  1
  C  C111  1  0.09558400  0.75182000  0.53402700  1
  C  C112  1  0.08910600  0.76774400  0.46706700  1
  C  C113  1  0.01152300  0.72067900  0.39062100  1
  C  C114  1  0.94225600  0.65387600  0.37970700  1
  C  C115  1  0.94863200  0.63809100  0.44672700  1
  C  C116  1  0.77955600  0.73945000  0.77557800  1
  C  C117  1  0.02510500  0.68749700  0.52414000  1
  C  C118  1  0.99764700  0.67107900  0.24837000  1
  C  C119  1  0.99594000  0.68111300  0.17924700  1
  C  C120  1  0.99905600  0.75512200  0.17850600  1
  C  C121  1  0.00087800  0.81566900  0.24536800  1
  C  C122  1  0.00488100  0.80685100  0.31554900  1
  C  C123  1  0.00545500  0.73448700  0.31794400  1
  C  C124  1  0.06249800  0.84843700  0.12693100  1
  C  C125  1  0.06260600  0.86530900  0.06175800  1
  C  C126  1  0.99896400  0.80536500  0.97757900  1
  O  O1  1  0.41179400  0.56073500  0.46636700  1
  O  O2  1  0.95131800  0.90168000  0.35766100  1
  O  O3  1  0.96223200  0.90564200  0.54951000  1
  O  O4  1  0.85624400  0.90581300  0.44509100  1
  O  O5  1  0.05442100  0.09013200  0.63785700  1
  O  O6  1  0.94509800  0.08514500  0.53179200  1
  O  O7  1  0.14817800  0.08396200  0.54938200  1
  O  O8  1  0.04216200  0.08611000  0.44699000  1
  O  O9  1  0.05773000  0.46188800  0.90785800  1
  O  O10  1  0.95316600  0.35401300  0.90580400  1
  O  O11  1  0.14352900  0.55268900  0.09167000  1
  O  O12  1  0.40944900  0.45255900  0.36165000  1
  O  O13  1  0.03789900  0.44167100  0.08542000  1
  O  O14  1  0.05012500  0.64176300  0.08410800  1
  O  O15  1  0.94814400  0.53394500  0.08509300  1
  O  O16  1  0.96659200  0.55298100  0.90499100  1
  O  O17  1  0.86092200  0.44464800  0.90164500  1
  O  O18  1  0.43825600  0.56128100  0.82848100  1
  O  O19  1  0.32921200  0.43051500  0.77741600  1
  O  O20  1  0.89484000  0.89197000  0.65124500  1
  O  O21  1  0.95235400  0.81686100  0.69062800  1
  O  O22  1  0.59186300  0.91602400  0.41229100  1
  O  O23  1  0.59139500  0.64816100  0.55844100  1
  O  O24  1  0.51739400  0.97988300  0.44345400  1
  O  O25  1  0.59408500  0.54357300  0.45499500  1
  O  O26  1  0.58917900  0.55181800  0.64402300  1
  O  O27  1  0.58945600  0.44632200  0.53927100  1
  O  O28  1  0.40411300  0.46184800  0.54911900  1
  O  O29  1  0.40957800  0.35743400  0.44850000  1
  O  O30  1  0.05849000  0.90469200  0.46371600  1
