# generated using pymatgen
data_Zn6H28C46O25
_symmetry_space_group_name_H-M   'P 1'
_cell_length_a   19.25834500
_cell_length_b   19.01171500
_cell_length_c   19.12985000
_cell_angle_alpha   108.99533500
_cell_angle_beta   110.03075200
_cell_angle_gamma   109.39426900
_symmetry_Int_Tables_number   1
_chemical_formula_structural   Zn6H28C46O25
_chemical_formula_sum   'Zn6 H28 C46 O25'
_cell_volume   5390.97058087
_cell_formula_units_Z   1
loop_
 _symmetry_equiv_pos_site_id
 _symmetry_equiv_pos_as_xyz
  1  'x, y, z'
loop_
 _atom_site_type_symbol
 _atom_site_label
 _atom_site_symmetry_multiplicity
 _atom_site_fract_x
 _atom_site_fract_y
 _atom_site_fract_z
 _atom_site_occupancy
  Zn  Zn1  1  0.49767900  0.43912400  0.43440400  1
  Zn  Zn2  1  0.49405800  0.56527500  0.57685300  1
  Zn  Zn3  1  0.93860400  0.43894800  0.00368900  1
  Zn  Zn4  1  0.06602500  0.56565100  0.98538900  1
  Zn  Zn5  1  0.06485200  0.99341300  0.56261800  1
  Zn  Zn6  1  0.92502900  0.99499100  0.42940500  1
  H  H1  1  0.53900400  0.21005400  0.56041300  1
  H  H2  1  0.73415000  0.66025800  0.70326100  1
  H  H3  1  0.84956200  0.79289800  0.82882000  1
  H  H4  1  0.94306700  0.79350600  0.95431000  1
  H  H5  1  0.92383100  0.66131500  0.95185400  1
  H  H6  1  0.78615800  0.34112800  0.77373400  1
  H  H7  1  0.65981000  0.20933000  0.65913500  1
  H  H8  1  0.54718200  0.34244900  0.57332000  1
  H  H9  1  0.26365700  0.23380500  0.61994400  1
  H  H10  1  0.15301800  0.19093200  0.43679000  1
  H  H11  1  0.35366800  0.36998900  0.62455300  1
  H  H12  1  0.28467600  0.23901600  0.43930400  1
  H  H13  1  0.11907500  0.38116900  0.14976200  1
  H  H14  1  0.25758000  0.37930100  0.22942900  1
  H  H15  1  0.29238700  0.55521800  0.34889300  1
  H  H16  1  0.71889500  0.76498000  0.38242400  1
  H  H17  1  0.83886900  0.80040300  0.55898700  1
  H  H18  1  0.62835000  0.63204600  0.38179200  1
  H  H19  1  0.71103700  0.76403500  0.57041300  1
  H  H20  1  0.96772400  0.23587700  0.61240600  1
  H  H21  1  0.03499200  0.19105500  0.75170600  1
  H  H22  1  0.01413900  0.37200200  0.74305000  1
  H  H23  1  0.95384900  0.24149000  0.79943300  1
  H  H24  1  0.03988200  0.76289000  0.37960500  1
  H  H25  1  0.95595400  0.80033100  0.23952600  1
  H  H26  1  0.99739800  0.63005400  0.24826000  1
  H  H27  1  0.04539200  0.76177600  0.18984100  1
  H  H28  1  0.28109300  0.61802800  0.24909800  1
  C  C1  1  0.38365000  0.37334600  0.50009800  1
  C  C2  1  0.61869700  0.50292900  0.62132900  1
  C  C3  1  0.60802100  0.63093400  0.51080100  1
  C  C4  1  0.37270600  0.50096900  0.39041800  1
  C  C5  1  0.77271700  0.65649500  0.75663600  1
  C  C6  1  0.83946900  0.73298400  0.82760200  1
  C  C7  1  0.89207100  0.73331000  0.89747900  1
  C  C8  1  0.88113800  0.65702300  0.89459000  1
  C  C9  1  0.81652200  0.57885300  0.82141900  1
  C  C10  1  0.75801000  0.57873800  0.75445200  1
  C  C11  1  0.80987000  0.50152900  0.81511800  1
  C  C12  1  0.74079300  0.42400300  0.74396700  1
  C  C13  1  0.67636700  0.42416700  0.68251600  1
  C  C14  1  0.68619000  0.50154800  0.68604500  1
  C  C15  1  0.73531100  0.34578100  0.73267100  1
  C  C16  1  0.66365000  0.26956400  0.66649200  1
  C  C17  1  0.59634400  0.26995500  0.61102600  1
  C  C18  1  0.60244600  0.34643600  0.61853500  1
  C  C19  1  0.24890600  0.23732600  0.56161200  1
  C  C20  1  0.17191100  0.18177400  0.49193700  1
  C  C21  1  0.31113900  0.31007700  0.56437000  1
  C  C22  1  0.32050200  0.30128000  0.49664300  1
  C  C23  1  0.18195300  0.43762000  0.18681400  1
  C  C24  1  0.19583600  0.50259300  0.17060800  1
  C  C25  1  0.25258600  0.43689400  0.24790600  1
  C  C26  1  0.30396300  0.50216800  0.32800200  1
  C  C27  1  0.73734600  0.76073500  0.44050800  1
  C  C28  1  0.81800400  0.81077200  0.50481600  1
  C  C29  1  0.67508000  0.69141200  0.44172200  1
  C  C30  1  0.67077700  0.70200700  0.51239600  1
  C  C31  1  0.98882200  0.37605100  0.87170800  1
  C  C32  1  0.87921300  0.50277900  0.88051600  1
  C  C33  1  0.01570800  0.62841900  0.11757400  1
  C  C34  1  0.12532300  0.50130400  0.10760100  1
  C  C35  1  0.00177100  0.11374500  0.61929400  1
  C  C36  1  0.10809600  0.11330400  0.49186100  1
  C  C37  1  0.98875400  0.87525600  0.37252700  1
  C  C38  1  0.88174000  0.87568300  0.50094900  1
  C  C39  1  0.98607900  0.23897900  0.67405200  1
  C  C40  1  0.00698500  0.18251300  0.68776000  1
  C  C41  1  0.99715900  0.31208200  0.74396400  1
  C  C42  1  0.97983300  0.30368200  0.80353700  1
  C  C43  1  0.01718600  0.75910500  0.31752900  1
  C  C44  1  0.98708200  0.81006600  0.30368700  1
  C  C45  1  0.00970500  0.68946900  0.24712000  1
  C  C46  1  0.02399800  0.69976900  0.18655300  1
  O  O1  1  0.41001100  0.35540800  0.44533000  1
  O  O2  1  0.41023800  0.45204200  0.55651000  1
  O  O3  1  0.59009700  0.45478200  0.53958600  1
  O  O4  1  0.58897300  0.55210500  0.64857000  1
  O  O5  1  0.58014900  0.55229900  0.45361900  1
  O  O6  1  0.58293000  0.64890000  0.56685000  1
  O  O7  1  0.40134100  0.45073800  0.36257000  1
  O  O8  1  0.40285400  0.55099100  0.47187600  1
  O  O9  1  0.94540100  0.35847800  0.90951300  1
  O  O10  1  0.03986000  0.45460100  0.89252000  1
  O  O11  1  0.86110400  0.45740700  0.91744900  1
  O  O12  1  0.95709500  0.54910400  0.89848800  1
  O  O13  1  0.96601700  0.54993800  0.09758500  1
  O  O14  1  0.05800200  0.64603200  0.07862500  1
  O  O15  1  0.04743100  0.45391300  0.08923500  1
  O  O16  1  0.14379400  0.54854500  0.07272200  1
  O  O17  1  0.05172300  0.08262000  0.64160700  1
  O  O18  1  0.94892200  0.08732000  0.53923600  1
  O  O19  1  0.13384500  0.08581300  0.54499600  1
  O  O20  1  0.02751800  0.08351200  0.43912500  1
  O  O21  1  0.04135500  0.90156800  0.45266200  1
  O  O22  1  0.93808300  0.90569400  0.35042400  1
  O  O23  1  0.96234600  0.90479800  0.55279400  1
  O  O24  1  0.85612600  0.90306900  0.44763100  1
  O  O25  1  0.27730900  0.56761600  0.20716900  1
