# Generated by REPEAT Assigner based on pymatgen
data_DB0-m3_o24_o101_f0_fsc.sym.4
_audit_creation_date              2022-05-24
_audit_creation_method            REPEAT_Assigner
_cell_length_a                    15.661202
_cell_length_b                    6.571252
_cell_length_c                    9.201123
_cell_angle_alpha                 90.000000
_cell_angle_beta                  101.034386
_cell_angle_gamma                 90.000000
_cell_volume                      929.415408
_symmetry_space_group_name_H-M    P1
_symmetry_Int_Tables_number       1
loop_
    _symmetry_equiv_pos_site_id
    _symmetry_equiv_pos_as_xyz
    1  x,y,z
loop_
    _atom_site_type_symbol
    _atom_site_label
    _atom_site_fract_x
    _atom_site_fract_y
    _atom_site_fract_z
    _atom_type_partial_charge
    C   C1   0.228103  0.796682  0.992350  -0.189174
    C   C2   0.772459  0.205563  0.010868  -0.286583
    C   C3   0.781195  0.795546  0.067351  -0.208014
    C   C4   0.219368  0.206700  0.935869  -0.231268
    C   C5   0.301401  0.898870  0.970189  0.082165
    C   C6   0.699160  0.103374  0.033028  0.129755
    C   C7   0.702698  0.895642  0.057778  -0.169902
    C   C8   0.297864  0.106602  0.945439  -0.148445
    C   C9   0.146211  0.103333  0.957799  0.196663
    C   C10  0.854351  0.898912  0.045418  0.160877
    C   C11  0.849582  0.103953  0.015370  0.207099
    C   C12  0.150980  0.898292  0.987846  0.119905
    Zn  Zn1  0.506408  0.490609  0.165229  0.985162
    Zn  Zn2  0.494154  0.511634  0.837986  1.000147
    C   C13  0.069357  0.206428  0.956437  -0.395034
    C   C14  0.931204  0.795816  0.046777  -0.376149
    C   C15  0.921229  0.207017  0.986704  -0.384843
    C   C16  0.079332  0.795227  0.016509  -0.343481
    C   C17  0.997798  0.103943  0.986524  0.232580
    C   C18  0.002763  0.898301  0.016689  0.207048
    C   C19  0.471503  0.335233  0.446267  0.308403
    C   C20  0.529036  0.666942  0.556924  0.249300
    C   C21  0.538883  0.366176  0.582301  0.060275
    C   C22  0.461630  0.635983  0.420896  0.041778
    C   C23  0.422042  0.490998  0.513319  0.094361
    C   C24  0.578493  0.511223  0.489930  0.294853
    N   N1   0.489478  0.522122  0.645908  0.151821
    N   N2   0.511083  0.480120  0.357308  0.136643
    H   H1   0.231949  0.636169  0.017489  0.089540
    H   H2   0.768613  0.366076  0.985730  0.125595
    H   H3   0.784181  0.632915  0.083654  0.152625
    H   H4   0.216382  0.369331  0.919567  0.155468
    H   H5   0.065527  0.367922  0.933882  0.169317
    H   H6   0.935034  0.634322  0.069332  0.156126
    H   H7   0.916977  0.368021  0.962399  0.176906
    H   H8   0.083584  0.634224  0.040812  0.154626
    O   O1   0.587665  0.301922  0.892625  -0.618308
    O   O2   0.412896  0.700321  0.110591  -0.619190
    O   O3   0.410038  0.291454  0.097735  -0.650093
    O   O4   0.590523  0.710789  0.905480  -0.688373
    O   O5   0.594331  0.275320  0.144706  -0.768635
    O   O6   0.406230  0.726923  0.858509  -0.768651
    O   O7   0.402828  0.299167  0.844978  -0.625809
    O   O8   0.597733  0.703077  0.158238  -0.622162
    C   C25  0.619476  0.221495  0.021858  0.735075
    C   C26  0.381085  0.780747  0.981357  0.741404
    C   C27  0.376796  0.230086  0.963168  0.747683
    C   C28  0.623766  0.772157  0.040049  0.793147
    O   O9   0.334042  0.482454  0.520740  -0.490395
    H   H9   0.312973  0.623621  0.500703  0.339620
    O   O10  0.666500  0.519734  0.482558  -0.561678
    H   H10  0.687661  0.378782  0.503369  0.379269
    O   O11  0.440197  0.146849  0.390058  -0.517580
    H   H11  0.380192  0.174963  0.336980  0.318159
    O   O12  0.560397  0.855275  0.613113  -0.473129
    H   H12  0.620487  0.827188  0.665802  0.344244
    O   O13  0.583283  0.211988  0.669724  -0.448976
    H   H13  0.536819  0.127174  0.697966  0.363230
    O   O14  0.417458  0.790728  0.333748  -0.258650
    H   H14  0.358936  0.733652  0.295794  0.243654
