# Generated by REPEAT Assigner based on pymatgen
data_DB0-m9_o13_o27_f0_sra.sym.26_sqe
_audit_creation_date              2022-05-24
_audit_creation_method            REPEAT_Assigner
_cell_length_a                    6.322232
_cell_length_b                    21.662099
_cell_length_c                    22.958488
_cell_angle_alpha                 113.188116
_cell_angle_beta                  89.320779
_cell_angle_gamma                 90.730075
_cell_volume                      2889.914567
_symmetry_space_group_name_H-M    P1
_symmetry_Int_Tables_number       1
loop_
    _symmetry_equiv_pos_site_id
    _symmetry_equiv_pos_as_xyz
    1  x,y,z
loop_
    _atom_site_type_symbol
    _atom_site_label
    _atom_site_fract_x
    _atom_site_fract_y
    _atom_site_fract_z
    _atom_type_partial_charge
    O   O1   0.468328  0.462615  0.408915  -0.517444
    O   O2   0.836164  0.478905  0.573063  -0.554621
    O   O3   0.049787  0.579268  0.554020  -0.361039
    C   C1   0.661691  0.444441  0.565380  0.522113
    O   O4   0.748422  0.416536  0.442016  -0.432542
    O   O5   0.969135  0.517600  0.423507  -0.533959
    C   C2   0.626412  0.420442  0.396633  0.576391
    O   O6   0.544782  0.432157  0.515151  -0.360071
    O   O7   0.654632  0.552252  0.511522  -0.579899
    V   V1   0.926822  0.492794  0.496539  1.322576
    O   O8   0.253848  0.575718  0.484233  -0.423837
    C   C3   0.136803  0.557023  0.432033  0.514165
    O   O9   0.337302  0.544905  0.590639  -0.561272
    C   C4   0.168526  0.581062  0.601030  0.603091
    V   V2   0.427439  0.509063  0.500950  1.315819
    O   O10  0.151187  0.449352  0.483815  -0.576386
    C   C5   0.058146  0.861479  0.836007  -0.021974
    C   C6   0.163154  0.639177  0.660853  -0.065736
    C   C7   0.316918  0.699768  0.762278  -0.194308
    C   C8   0.307418  0.643304  0.706853  -0.036857
    C   C9   0.027508  0.691438  0.670138  -0.251307
    C   C10  0.038253  0.748215  0.725423  0.237330
    C   C11  0.183180  0.752452  0.771422  0.192683
    C   C12  0.193850  0.809232  0.826708  -0.141320
    C   C13  0.913937  0.857354  0.789995  -0.091612
    C   C14  0.904516  0.800899  0.734563  -0.260721
    H   H1   0.806089  0.898239  0.797841  0.111704
    H   H2   0.430546  0.703020  0.798210  0.073272
    H   H3   0.790900  0.797645  0.698627  0.151279
    H   H4   0.415208  0.602404  0.699002  0.102857
    H   H5   0.916272  0.688560  0.633739  0.134719
    C   C15  0.225222  0.917137  0.150562  -0.152794
    H   H6   0.337382  0.957861  0.159424  0.102549
    C   C16  0.230319  0.879315  0.186649  0.151469
    H   H7   0.346046  0.890462  0.223782  0.002576
    C   C17  0.089153  0.827001  0.175192  -0.514545
    C   C18  0.941496  0.812842  0.127620  0.268373
    H   H8   0.830611  0.771748  0.118510  -0.004195
    C   C19  0.936332  0.850890  0.091353  -0.374079
    H   H9   0.821856  0.839499  0.053861  0.180130
    C   C20  0.079087  0.903043  0.102828  0.173997
    N   N1   0.964070  0.735260  0.202999  -0.347887
    N   N2   0.975123  0.699056  0.237699  -0.299815
    C   C21  0.121496  0.713700  0.283421  0.870886
    N   N3   0.256695  0.765330  0.293874  -0.351893
    N   N4   0.245642  0.801534  0.259174  -0.298971
    C   C22  0.099282  0.786886  0.213448  0.868738
    C   C23  0.279377  0.687725  0.369227  0.202568
    H   H10  0.390261  0.728819  0.378333  0.010545
    C   C24  0.284569  0.649672  0.405491  -0.250042
    H   H11  0.399068  0.661066  0.442977  0.128647
    C   C25  0.141805  0.597523  0.394024  0.097647
    C   C26  0.995645  0.583434  0.346297  -0.112119
    H   H12  0.883468  0.542715  0.337439  0.095216
    C   C27  0.990520  0.621259  0.310213  0.116578
    H   H13  0.874765  0.610118  0.273088  0.008551
    C   C28  0.131677  0.673575  0.321667  -0.487218
    C   C29  0.480710  0.356467  0.592615  -0.246005
    H   H14  0.365968  0.348676  0.555790  0.126178
    C   C30  0.470641  0.318258  0.628800  0.217191
    H   H15  0.347530  0.280686  0.620277  0.004917
    C   C31  0.618687  0.327704  0.675494  -0.487779
    C   C32  0.775365  0.375531  0.686153  0.122440
    H   H16  0.891460  0.383010  0.722562  0.004761
    C   C33  0.785440  0.413468  0.650163  -0.110294
    H   H17  0.909877  0.450576  0.658392  0.097661
    C   C34  0.639111  0.404062  0.603294  0.075677
    N   N5   0.760710  0.297409  0.758426  -0.284024
    N   N6   0.758014  0.260912  0.793020  -0.357769
    C   C35  0.607754  0.213483  0.783415  0.865179
    N   N7   0.460394  0.203363  0.738636  -0.289190
    N   N8   0.463089  0.239859  0.704042  -0.353783
    C   C36  0.613348  0.287288  0.713647  0.859557
    C   C37  0.445718  0.125228  0.810882  0.126028
    H   H18  0.329662  0.117757  0.774464  0.004453
    C   C38  0.435591  0.087279  0.846859  -0.130399
    H   H19  0.311144  0.050171  0.838608  0.107003
    C   C39  0.581856  0.096678  0.893743  0.094292
    C   C40  0.740268  0.144274  0.904441  -0.247542
    H   H20  0.854978  0.152060  0.941273  0.125346
    C   C41  0.750398  0.182495  0.868266  0.212590
    H   H21  0.873514  0.220069  0.876805  0.008669
    C   C42  0.602397  0.173058  0.821561  -0.489741
    C   C43  0.612963  0.138069  0.160104  -0.005626
    C   C44  0.607597  0.362594  0.336889  -0.023271
    C   C45  0.428283  0.309741  0.238246  -0.290125
    C   C46  0.462755  0.365057  0.293419  -0.036557
    C   C47  0.719036  0.304743  0.325268  -0.261005
    C   C48  0.683100  0.249120  0.270219  0.233150
    C   C49  0.537451  0.251540  0.226781  0.235428
    C   C50  0.501499  0.195918  0.171733  -0.256292
    C   C51  0.757825  0.135607  0.203570  -0.060018
    C   C52  0.792289  0.190921  0.258746  -0.281889
    H   H22  0.389978  0.198220  0.137329  0.132410
    H   H23  0.846715  0.090272  0.193854  0.097782
    H   H24  0.314142  0.311774  0.204372  0.153617
    H   H25  0.906442  0.188890  0.292617  0.150524
    H   H26  0.373879  0.410393  0.303127  0.085392
    H   H27  0.830550  0.302438  0.359672  0.141108
    O   O11  0.675997  0.068542  0.981888  -0.373423
    O   O12  0.472179  0.084120  0.054961  -0.399492
    O   O13  0.251541  0.983048  0.073418  -0.531300
    C   C53  0.594176  0.080223  0.100349  0.554323
    O   O14  0.384768  0.021766  0.923890  -0.573083
    O   O15  0.171105  0.921357  0.942888  -0.238656
    C   C54  0.559192  0.056280  0.931637  0.541521
    O   O16  0.752257  0.038059  0.088079  -0.496271
    O   O17  0.566188  0.948416  0.985447  -0.456613
    V   V3   0.293940  0.007846  0.000386  1.185175
    O   O18  0.883727  0.955694  0.906195  -0.562187
    C   C55  0.052571  0.919570  0.895840  0.579779
    O   O19  0.966898  0.924890  0.012656  -0.447818
    C   C56  0.084055  0.943558  0.064832  0.486726
    V   V4   0.793346  0.991506  0.995863  1.205130
    O   O20  0.069527  0.051259  0.013072  -0.513056
    Br  Br1  0.389964  0.814320  0.890899  -0.008798
