# Generated by REPEAT Assigner based on pymatgen
data_DB0-m29_o99_o150_f0_pts.sym.136
_audit_creation_date              2022-05-24
_audit_creation_method            REPEAT_Assigner
_cell_length_a                    16.061448
_cell_length_b                    9.404713
_cell_length_c                    19.812606
_cell_angle_alpha                 93.644263
_cell_angle_beta                  101.264037
_cell_angle_gamma                 97.140208
_cell_volume                      2900.460631
_symmetry_space_group_name_H-M    P1
_symmetry_Int_Tables_number       1
loop_
    _symmetry_equiv_pos_site_id
    _symmetry_equiv_pos_as_xyz
    1  x,y,z
loop_
    _atom_site_type_symbol
    _atom_site_label
    _atom_site_fract_x
    _atom_site_fract_y
    _atom_site_fract_z
    _atom_type_partial_charge
    C   C1   0.203366  0.053904  0.894228  -0.081254
    C   C2   0.121956  0.033036  0.908341  -0.195704
    C   C3   0.111751  0.011349  0.974546  0.273186
    C   C4   0.182186  0.007274  0.027155  -0.149153
    C   C5   0.265126  0.029371  0.013869  -0.016215
    C   C6   0.274738  0.052520  0.946486  0.039063
    C   C7   0.026472  0.991470  0.988207  -0.163580
    C   C8   0.955107  0.975418  0.999918  -0.005722
    C   C9   0.804137  0.017433  0.976976  -0.031389
    C   C10  0.722444  0.994734  0.992007  -0.045385
    C   C11  0.712237  0.930920  0.052073  0.004037
    C   C12  0.778981  0.869788  0.089840  -0.035242
    C   C13  0.857178  0.877786  0.069455  -0.153127
    C   C14  0.870247  0.954678  0.014465  0.133361
    O   O1   0.521007  0.186825  0.821945  -0.649707
    C   C15  0.466716  0.211985  0.766726  0.707745
    O   O2   0.415163  0.179023  0.947052  -0.468992
    O   O3   0.400966  0.114793  0.738946  -0.531465
    O   O4   0.375274  0.958970  0.886708  -0.692057
    C   C16  0.358692  0.063374  0.927085  0.762549
    Fe  Fe1  0.487282  0.003411  0.859612  1.487086
    O   O5   0.568655  0.000802  0.950227  -0.518627
    O   O6   0.655330  0.024684  0.874420  -0.417328
    C   C17  0.647024  0.017057  0.938740  0.507573
    O   O7   0.487817  0.860069  0.780205  -0.521053
    O   O8   0.547277  0.744923  0.869995  -0.493306
    C   C18  0.517431  0.744124  0.803527  0.545608
    O   O9   0.518572  0.160919  0.221298  -0.537709
    O   O10  0.459775  0.281560  0.133553  -0.386544
    C   C19  0.491455  0.279499  0.199627  0.458878
    O   O11  0.416673  0.014491  0.055709  -0.532104
    O   O12  0.336401  0.046563  0.135288  -0.412448
    C   C20  0.341499  0.027906  0.070095  0.509018
    O   O13  0.600687  0.906755  0.260828  -0.473358
    O   O14  0.612638  0.047072  0.104185  -0.661854
    C   C21  0.631858  0.927719  0.076646  0.793364
    O   O15  0.475644  0.833401  0.183588  -0.578446
    C   C22  0.533936  0.809279  0.236236  0.639664
    O   O16  0.583543  0.804931  0.077179  -0.551195
    Fe  Fe2  0.506828  0.012315  0.141355  1.452328
    C   C23  0.510601  0.610762  0.757154  0.022277
    C   C24  0.514047  0.616483  0.687579  -0.119423
    C   C25  0.495684  0.490943  0.643209  0.016248
    C   C26  0.478645  0.357875  0.668096  0.009675
    C   C27  0.479465  0.351248  0.737736  -0.062971
    C   C28  0.493376  0.476437  0.781587  -0.082487
    C   C29  0.430648  0.513160  0.522267  -0.032480
    C   C30  0.436262  0.522504  0.453564  -0.146896
    C   C31  0.514934  0.523310  0.434748  0.091977
    C   C32  0.587931  0.510560  0.483634  -0.052395
    C   C33  0.581871  0.497185  0.552032  -0.208338
    C   C34  0.502978  0.497920  0.570896  0.279042
    C   C35  0.529868  0.664394  0.335991  0.025467
    C   C36  0.524368  0.670745  0.265799  -0.071234
    C   C37  0.512203  0.545642  0.222260  -0.152640
    C   C38  0.501237  0.411361  0.247504  0.112149
    C   C39  0.502172  0.405057  0.317824  -0.226303
    C   C40  0.519179  0.530977  0.361864  0.155602
    C   C41  0.214020  0.072380  0.823039  0.436867
    H   H1   0.169941  0.009961  0.779810  0.033119
    O   O17  0.268944  0.163888  0.811493  -0.324180
    C   C42  0.350213  0.527718  0.545720  0.372571
    H   H2   0.334151  0.471361  0.588499  0.028028
    O   O18  0.303196  0.611162  0.520383  -0.359435
    C   C43  0.359110  0.521841  0.399117  0.414606
    H   H3   0.361919  0.579683  0.353861  -0.000788
    O   O19  0.292026  0.448114  0.401928  -0.331775
    C   C44  0.670722  0.502926  0.462650  0.369095
    H   H4   0.716564  0.440184  0.489851  0.031153
    O   O20  0.690062  0.568932  0.415671  -0.370793
    C   C45  0.660131  0.491776  0.604728  0.429522
    H   H5   0.721490  0.545731  0.598573  0.040967
    O   O21  0.657951  0.424618  0.655141  -0.413799
    C   C46  0.540695  0.799055  0.381378  0.318521
    H   H6   0.518134  0.894717  0.360994  0.052014
    O   O22  0.577268  0.807043  0.441796  -0.357846
    C   C47  0.520156  0.557610  0.150361  0.546347
    H   H7   0.577665  0.531941  0.134169  0.005193
    O   O23  0.459012  0.580437  0.107273  -0.318628
    C   C48  0.479488  0.268195  0.346440  0.569593
    H   H8   0.509867  0.249282  0.398303  -0.039356
    O   O24  0.421246  0.179046  0.314342  -0.409160
    C   C49  0.045337  0.033358  0.853781  0.550629
    H   H9   0.988251  0.957536  0.852246  -0.036964
    O   O25  0.043972  0.121456  0.811123  -0.398570
    C   C50  0.166529  0.967952  0.094821  0.452720
    H   H10  0.200380  0.887818  0.121069  0.018654
    O   O26  0.116370  0.025670  0.122498  -0.339695
    C   C51  0.821838  0.117631  0.925460  0.349213
    H   H11  0.785298  0.206692  0.916963  0.022691
    O   O27  0.875516  0.101414  0.890948  -0.326346
    C   C52  0.765437  0.789369  0.149070  0.385162
    H   H12  0.791971  0.689755  0.156906  0.022664
    O   O28  0.728636  0.836943  0.191943  -0.345178
    C   C53  0.930030  0.816934  0.108994  0.491337
    H   H13  0.976196  0.774285  0.082893  -0.035453
    O   O29  0.942527  0.821173  0.171861  -0.369900
    C   C54  0.480583  0.463712  0.852381  0.488504
    H   H14  0.533124  0.495984  0.896194  0.049542
    O   O30  0.411033  0.411611  0.862142  -0.338329
    C   C55  0.541605  0.752734  0.660301  0.466487
    H   H15  0.516573  0.772074  0.607317  -0.029554
    O   O31  0.597732  0.841472  0.695415  -0.394022
    C   C56  0.467246  0.223340  0.622545  0.353347
    H   H16  0.487884  0.126527  0.643078  0.079071
    O   O32  0.432414  0.216909  0.561753  -0.405615
