# generated using pymatgen
data_ZnH17C24NO5
_symmetry_space_group_name_H-M   'P 1'
_cell_length_a   9.87758000
_cell_length_b   11.04873500
_cell_length_c   17.50483000
_cell_angle_alpha   90.00338900
_cell_angle_beta   86.21308400
_cell_angle_gamma   89.99890200
_symmetry_Int_Tables_number   1
_chemical_formula_structural   ZnH17C24NO5
_chemical_formula_sum   'Zn2 H34 C48 N2 O10'
_cell_volume   1906.21430409
_cell_formula_units_Z   2
loop_
 _symmetry_equiv_pos_site_id
 _symmetry_equiv_pos_as_xyz
  1  'x, y, z'
loop_
 _atom_site_type_symbol
 _atom_site_label
 _atom_site_symmetry_multiplicity
 _atom_site_fract_x
 _atom_site_fract_y
 _atom_site_fract_z
 _atom_site_occupancy
  Zn  Zn1  1  0.34107700  0.51271300  0.50408600  1
  Zn  Zn2  1  0.64850300  0.50431800  0.50516700  1
  H  H1  1  0.68006900  0.53475100  0.74620600  1
  H  H2  1  0.30951000  0.48227600  0.26304800  1
  H  H3  1  0.64329400  0.46759500  0.99930700  1
  H  H4  1  0.34628300  0.54942600  0.00994600  1
  H  H5  1  0.24090900  0.50656300  0.89347100  1
  H  H6  1  0.74866900  0.51046000  0.11578200  1
  H  H7  1  0.31727600  0.47606100  0.12599400  1
  H  H8  1  0.67230200  0.54096300  0.88326000  1
  H  H9  1  0.94525100  0.92823300  0.55921900  1
  H  H10  1  0.04433100  0.08879700  0.45003200  1
  H  H11  1  0.32108200  0.80718400  0.39604600  1
  H  H12  1  0.66850000  0.20984700  0.61320600  1
  H  H13  1  0.10201300  0.89834600  0.38385800  1
  H  H14  1  0.88757000  0.11868600  0.62539200  1
  H  H15  1  0.20986100  0.19359300  0.51815200  1
  H  H16  1  0.77972000  0.82343600  0.49110100  1
  H  H17  1  0.89606400  0.22561600  0.31704400  1
  H  H18  1  0.09351600  0.79141500  0.69220900  1
  H  H19  1  0.73766100  0.66319800  0.60682400  1
  H  H20  1  0.25191800  0.35383200  0.40243000  1
  H  H21  1  0.84566000  0.78292300  0.69575700  1
  H  H22  1  0.14391900  0.23410900  0.31349600  1
  H  H23  1  0.22470100  0.67757800  0.60061000  1
  H  H24  1  0.76487800  0.33945200  0.40864300  1
  H  H25  1  0.70623600  0.70177900  0.26147700  1
  H  H26  1  0.85354600  0.66407600  0.19861500  1
  H  H27  1  0.98500200  0.62490000  0.31244300  1
  H  H28  1  0.92097300  0.77833800  0.31017300  1
  H  H29  1  0.83868100  0.66843900  0.37415400  1
  H  H30  1  0.13603500  0.35294700  0.81063600  1
  H  H31  1  0.28334600  0.31524800  0.74777300  1
  H  H32  1  0.15089900  0.34859200  0.63509600  1
  H  H33  1  0.06861200  0.23868700  0.69907500  1
  H  H34  1  0.00457800  0.39212400  0.69680900  1
  C  C1  1  0.50165600  0.74723200  0.49701800  1
  C  C2  1  0.48792400  0.26979800  0.51223500  1
  C  C3  1  0.47380300  0.51368500  0.65488300  1
  C  C4  1  0.51577600  0.50334400  0.35437000  1
  C  C5  1  0.46475700  0.51549900  0.73928700  1
  C  C6  1  0.52482100  0.50152900  0.26996700  1
  C  C7  1  0.58248800  0.52652400  0.77744500  1
  C  C8  1  0.40709000  0.49050200  0.23180800  1
  C  C9  1  0.57812500  0.52880400  0.85633000  1
  C  C10  1  0.41145400  0.48822000  0.15292400  1
  C  C11  1  0.45520800  0.52026000  0.89873500  1
  C  C12  1  0.53437000  0.49676300  0.11051800  1
  C  C13  1  0.33756500  0.51165700  0.86085400  1
  C  C14  1  0.65201300  0.50536700  0.14839900  1
  C  C15  1  0.34129600  0.50647600  0.78191600  1
  C  C16  1  0.64828300  0.51055000  0.22733700  1
  C  C17  1  0.44361600  0.52329600  0.98313300  1
  C  C18  1  0.54596200  0.49372400  0.02612100  1
  C  C19  1  0.29934400  0.89108600  0.42595100  1
  C  C20  1  0.69023800  0.12594500  0.58330100  1
  C  C21  1  0.17613700  0.94396700  0.41630300  1
  C  C22  1  0.81344500  0.07306300  0.59294700  1
  C  C23  1  0.14515500  0.05159400  0.45168300  1
  C  C24  1  0.84442600  0.96543600  0.55756800  1
  C  C25  1  0.24323900  0.11346100  0.48787900  1
  C  C26  1  0.74634100  0.90356900  0.52137300  1
  C  C27  1  0.37362800  0.06651800  0.49152100  1
  C  C28  1  0.61595300  0.95051200  0.51773100  1
  C  C29  1  0.39346400  0.94604600  0.47051000  1
  C  C30  1  0.59611700  0.07098400  0.53874300  1
  C  C31  1  0.48125700  0.13391800  0.51865700  1
  C  C32  1  0.50832400  0.88311200  0.49059600  1
  C  C33  1  0.84434200  0.65456900  0.60508300  1
  C  C34  1  0.14523800  0.36246200  0.40417000  1
  C  C35  1  0.90601500  0.72668300  0.65610300  1
  C  C36  1  0.08356500  0.29034800  0.35315000  1
  C  C37  1  0.04369200  0.73163100  0.65403100  1
  C  C38  1  0.94588800  0.28540000  0.35522200  1
  C  C39  1  0.11863600  0.66385200  0.60121200  1
  C  C40  1  0.87094400  0.35317900  0.40804100  1
  C  C41  1  0.05912100  0.58416200  0.55177000  1
  C  C42  1  0.93045900  0.43286900  0.45748300  1
  C  C43  1  0.91731000  0.57876600  0.55389500  1
  C  C44  1  0.07226900  0.43826400  0.45535800  1
  C  C45  1  0.79998800  0.64644800  0.25520800  1
  C  C46  1  0.89230400  0.68176100  0.31717700  1
  C  C47  1  0.18959300  0.37057800  0.75404300  1
  C  C48  1  0.09727700  0.33526500  0.69207300  1
  N  N1  1  0.13743500  0.51422800  0.50238100  1
  N  N2  1  0.85214400  0.50280200  0.50687200  1
  O  O1  1  0.38243500  0.69264500  0.50079700  1
  O  O2  1  0.60714500  0.32438500  0.50845600  1
  O  O3  1  0.61372400  0.68483700  0.50063000  1
  O  O4  1  0.37585600  0.33219300  0.50862300  1
  O  O5  1  0.36238300  0.51737500  0.61841600  1
  O  O6  1  0.62719700  0.49965500  0.39083700  1
  O  O7  1  0.59428100  0.50849100  0.61889300  1
  O  O8  1  0.39529800  0.50853900  0.39036000  1
  O  O9  1  0.76767800  0.52359600  0.26200500  1
  O  O10  1  0.22190100  0.49343000  0.74724800  1
