data_DB0-m29_o96_o470_f0_pts.sym.59_repeat
_audit_creation_date              2024-02-24
_audit_creation_method            'Materials Studio'
_symmetry_space_group_name_H-M    'P1'
_symmetry_Int_Tables_number       1
_symmetry_cell_setting            triclinic
loop_
_symmetry_equiv_pos_as_xyz
  x,y,z
_cell_length_a                    17.3179
_cell_length_b                    12.3142
_cell_length_c                    18.9844
_cell_angle_alpha                 77.9372
_cell_angle_beta                  90.6132
_cell_angle_gamma                 114.4494
loop_
_atom_site_label
_atom_site_type_symbol
_atom_site_fract_x
_atom_site_fract_y
_atom_site_fract_z
_atom_site_U_iso_or_equiv
_atom_site_adp_type
_atom_site_occupancy
C1     C     0.21765   0.02267   0.09627   0.00000  Uiso   1.00
C2     C     0.15972   0.98703   0.15366   0.00000  Uiso   1.00
C3     C     0.08459   0.98241   0.12692   0.00000  Uiso   1.00
N1     N     0.09379   0.01069   0.05395   0.00000  Uiso   1.00
C4     C     0.17537   0.03465   0.03492   0.00000  Uiso   1.00
C5     C     0.01502   0.96022   0.16772   0.00000  Uiso   1.00
C6     C     0.93896   0.97256   0.13976   0.00000  Uiso   1.00
C7     C     0.88464   0.99947   0.17802   0.00000  Uiso   1.00
C8     C     0.82076   0.99999   0.13607   0.00000  Uiso   1.00
C9     C     0.83756   0.97429   0.07174   0.00000  Uiso   1.00
N2     N     0.90948   0.95567   0.07505   0.00000  Uiso   1.00
C10    C     0.78611   0.97086   0.00914   0.00000  Uiso   1.00
C11    C     0.81787   0.99255   0.94116   0.00000  Uiso   1.00
C12    C     0.77541   0.00465   0.87995   0.00000  Uiso   1.00
C13    C     0.83241   0.03662   0.82236   0.00000  Uiso   1.00
C14    C     0.90720   0.03871   0.84907   0.00000  Uiso   1.00
N3     N     0.89861   0.01294   0.92198   0.00000  Uiso   1.00
C15    C     0.97564   0.05492   0.80888   0.00000  Uiso   1.00
C16    C     0.05117   0.04178   0.83818   0.00000  Uiso   1.00
C17    C     0.10316   0.00700   0.80276   0.00000  Uiso   1.00
C18    C     0.16888   0.01264   0.84357   0.00000  Uiso   1.00
C19    C     0.15516   0.04877   0.90495   0.00000  Uiso   1.00
N4     N     0.08355   0.06824   0.90060   0.00000  Uiso   1.00
C20    C     0.20762   0.05742   0.96698   0.00000  Uiso   1.00
H1     H     0.01696   0.94328   0.22570   0.00000  Uiso   1.00
H2     H     0.72201   0.96192   0.01833   0.00000  Uiso   1.00
H3     H     0.97320   0.06804   0.75094   0.00000  Uiso   1.00
H4     H     0.27216   0.06800   0.95783   0.00000  Uiso   1.00
H5     H     0.93487   0.92585   0.03764   0.00000  Uiso   1.00
H6     H     0.06018   0.10385   0.93601   0.00000  Uiso   1.00
C21    C     0.09381   0.96590   0.74017   0.00000  Uiso   1.00
C22    C     0.15503   0.93308   0.71739   0.00000  Uiso   1.00
C23    C     0.22866   0.95174   0.75469   0.00000  Uiso   1.00
C24    C     0.23369   0.98694   0.82051   0.00000  Uiso   1.00
C25    C     0.30080   0.03988   0.10573   0.00000  Uiso   1.00
C26    C     0.32210   0.01528   0.17613   0.00000  Uiso   1.00
C27    C     0.26118   0.97492   0.23420   0.00000  Uiso   1.00
C28    C     0.17956   0.96222   0.22351   0.00000  Uiso   1.00
C29    C     0.88864   0.02447   0.24541   0.00000  Uiso   1.00
C30    C     0.82383   0.04729   0.27096   0.00000  Uiso   1.00
C31    C     0.75642   0.04482   0.22953   0.00000  Uiso   1.00
C32    C     0.75508   0.02254   0.16038   0.00000  Uiso   1.00
C33    C     0.69231   0.98818   0.87098   0.00000  Uiso   1.00
C34    C     0.66981   0.01037   0.80078   0.00000  Uiso   1.00
C35    C     0.73008   0.04886   0.74233   0.00000  Uiso   1.00
C36    C     0.81172   0.06021   0.75262   0.00000  Uiso   1.00
H7     H     0.03826   0.95420   0.71068   0.00000  Uiso   1.00
H8     H     0.28868   0.99956   0.85090   0.00000  Uiso   1.00
H9     H     0.34779   0.07033   0.06052   0.00000  Uiso   1.00
H10    H     0.27754   0.95679   0.28916   0.00000  Uiso   1.00
H11    H     0.13382   0.93267   0.26949   0.00000  Uiso   1.00
H12    H     0.94015   0.02587   0.27833   0.00000  Uiso   1.00
H13    H     0.70344   0.02039   0.12745   0.00000  Uiso   1.00
H14    H     0.64588   0.95862   0.91650   0.00000  Uiso   1.00
H15    H     0.71282   0.06521   0.68755   0.00000  Uiso   1.00
H16    H     0.85689   0.08722   0.70652   0.00000  Uiso   1.00
H17    H     0.82587   0.06482   0.32454   0.00000  Uiso   1.00
O1     O     0.61564   0.04216   0.22899   0.00000  Uiso   1.00
C37    C     0.68516   0.05800   0.26217   0.00000  Uiso   1.00
O2     O     0.54436   0.80715   0.33994   0.00000  Uiso   1.00
O3     O     0.68644   0.07073   0.32915   0.00000  Uiso   1.00
O4     O     0.49618   0.91628   0.39447   0.00000  Uiso   1.00
C38    C     0.50803   0.81703   0.39702   0.00000  Uiso   1.00
Fe1    Fe    0.52626   0.02998   0.29824   0.00000  Uiso   1.00
O5     O     0.41522   0.96530   0.25380   0.00000  Uiso   1.00
O6     O     0.47469   0.12807   0.15788   0.00000  Uiso   1.00
C39    C     0.40819   0.03242   0.19290   0.00000  Uiso   1.00
O7     O     0.57435   0.19998   0.31578   0.00000  Uiso   1.00
O8     O     0.43507   0.16353   0.31808   0.00000  Uiso   1.00
C40    C     0.51306   0.23065   0.33073   0.00000  Uiso   1.00
C41    C     0.49289   0.73079   0.46798   0.00000  Uiso   1.00
C42    C     0.48091   0.77262   0.52739   0.00000  Uiso   1.00
C43    C     0.47825   0.70975   0.59665   0.00000  Uiso   1.00
C44    C     0.48719   0.60166   0.60794   0.00000  Uiso   1.00
C45    C     0.49424   0.55380   0.54960   0.00000  Uiso   1.00
C46    C     0.49580   0.61629   0.47943   0.00000  Uiso   1.00
C47    C     0.50095   0.44336   0.56248   0.00000  Uiso   1.00
C48    C     0.51110   0.39310   0.50595   0.00000  Uiso   1.00
C49    C     0.50834   0.45291   0.43605   0.00000  Uiso   1.00
C50    C     0.49868   0.56095   0.42346   0.00000  Uiso   1.00
C51    C     0.51932   0.28211   0.51642   0.00000  Uiso   1.00
C52    C     0.52822   0.23926   0.45659   0.00000  Uiso   1.00
C53    C     0.52317   0.29741   0.38795   0.00000  Uiso   1.00
C54    C     0.51150   0.40312   0.37770   0.00000  Uiso   1.00
H18    H     0.47970   0.86104   0.52119   0.00000  Uiso   1.00
H19    H     0.48907   0.55516   0.66250   0.00000  Uiso   1.00
H20    H     0.53363   0.15350   0.46305   0.00000  Uiso   1.00
H21    H     0.50450   0.44641   0.32381   0.00000  Uiso   1.00
H22    H     0.49095   0.59783   0.36877   0.00000  Uiso   1.00
H23    H     0.49830   0.39937   0.61801   0.00000  Uiso   1.00
O9     O     0.57101   0.04784   0.72342   0.00000  Uiso   1.00
O10    O     0.51812   0.89201   0.82350   0.00000  Uiso   1.00
C55    C     0.58221   0.98762   0.78536   0.00000  Uiso   1.00
O11    O     0.41827   0.79867   0.66788   0.00000  Uiso   1.00
O12    O     0.55934   0.84718   0.66732   0.00000  Uiso   1.00
C56    C     0.48310   0.77412   0.65434   0.00000  Uiso   1.00
O13    O     0.53020   0.23310   0.64689   0.00000  Uiso   1.00
O14    O     0.36873   0.94676   0.75675   0.00000  Uiso   1.00
C57    C     0.30375   0.94811   0.72060   0.00000  Uiso   1.00
O15    O     0.47793   0.07920   0.58710   0.00000  Uiso   1.00
C58    C     0.50827   0.19644   0.58669   0.00000  Uiso   1.00
O16    O     0.31165   0.96288   0.65021   0.00000  Uiso   1.00
Fe2    Fe    0.45813   0.96908   0.68385   0.00000  Uiso   1.00
C59    C     0.13865   0.87873   0.65365   0.00000  Uiso   1.00
O17    O     0.11935   0.93150   0.59940   0.00000  Uiso   1.00
C60    C     0.13843   0.75822   0.65535   0.00000  Uiso   1.00
C61    C     0.14218   0.72376   0.59106   0.00000  Uiso   1.00
C62    C     0.14132   0.61114   0.59154   0.00000  Uiso   1.00
C63    C     0.13601   0.53167   0.65613   0.00000  Uiso   1.00
C64    C     0.13114   0.56463   0.72037   0.00000  Uiso   1.00
C65    C     0.13210   0.67724   0.72018   0.00000  Uiso   1.00
H24    H     0.14678   0.78495   0.53976   0.00000  Uiso   1.00
H25    H     0.14484   0.58517   0.54109   0.00000  Uiso   1.00
H26    H     0.13522   0.44333   0.65643   0.00000  Uiso   1.00
H27    H     0.12617   0.50183   0.77111   0.00000  Uiso   1.00
H28    H     0.12654   0.69956   0.77139   0.00000  Uiso   1.00
