# Generated by REPEAT Assigner based on pymatgen
data_DB0-m3_o21_o22_f0_pcu.sym.79_sqe
_audit_creation_date              2022-05-24
_audit_creation_method            REPEAT_Assigner
_cell_length_a                    10.812639
_cell_length_b                    12.947011
_cell_length_c                    14.098049
_cell_angle_alpha                 88.911187
_cell_angle_beta                  90.014511
_cell_angle_gamma                 93.634419
_cell_volume                      1969.279111
_symmetry_space_group_name_H-M    P1
_symmetry_Int_Tables_number       1
loop_
    _symmetry_equiv_pos_site_id
    _symmetry_equiv_pos_as_xyz
    1  x,y,z
loop_
    _atom_site_type_symbol
    _atom_site_label
    _atom_site_fract_x
    _atom_site_fract_y
    _atom_site_fract_z
    _atom_type_partial_charge
    O   O1   0.463600  0.389375  0.599466  -0.654537
    O   O2   0.480716  0.567604  0.607921  -0.668485
    C   C1   0.468394  0.475262  0.647651  0.905301
    O   O3   0.658969  0.395492  0.465947  -0.536330
    O   O4   0.675945  0.572775  0.475480  -0.651927
    C   C2   0.726074  0.482592  0.474317  0.370623
    Zn  Zn1  0.472585  0.370373  0.457349  1.032351
    Zn  Zn2  0.494971  0.605056  0.468042  1.125580
    O   O5   0.486110  0.408027  0.317430  -0.674075
    O   O6   0.503470  0.586034  0.325945  -0.632410
    O   O7   0.291954  0.402262  0.450207  -0.526223
    O   O8   0.308200  0.580262  0.459230  -0.619983
    C   C3   0.498355  0.500416  0.277675  0.888725
    C   C4   0.241890  0.491836  0.452188  0.379969
    C   C5   0.920890  0.411814  0.554271  0.200532
    C   C6   0.062096  0.426255  0.544411  0.029399
    H   H1   0.104266  0.463580  0.607709  0.011187
    H   H2   0.102270  0.350488  0.540586  -0.047321
    H   H3   0.864753  0.366434  0.355651  0.029545
    C   C7   0.903400  0.444336  0.374006  -0.095722
    C   C8   0.920050  0.592899  0.475466  -0.027805
    C   C9   0.865777  0.480116  0.472025  0.417819
    H   H4   0.888486  0.636555  0.412442  -0.004486
    H   H5   0.888528  0.634669  0.537808  0.037211
    C   C10  0.102909  0.490339  0.457125  0.329517
    C   C11  0.043170  0.450181  0.364683  -0.022873
    C   C12  0.060729  0.598190  0.472069  -0.240478
    H   H6   0.097978  0.629575  0.539705  0.043001
    H   H7   0.092859  0.650981  0.412972  0.062039
    H   H8   0.866382  0.496852  0.319412  0.008239
    H   H9   0.069155  0.509604  0.309585  -0.024775
    C   C13  0.504239  0.508525  0.176056  -0.329722
    C   C14  0.512180  0.525356  0.988922  -0.001563
    C   C15  0.454681  0.452879  0.936459  -0.159800
    C   C16  0.458179  0.461510  0.834623  0.106119
    C   C17  0.508276  0.516008  0.090743  0.035087
    C   C18  0.462011  0.467927  0.749267  -0.345307
    H   H10  0.406277  0.386428  0.970528  0.175591
    H   H11  0.561398  0.591680  0.955062  0.116500
    N   N1   0.457490  0.215887  0.451156  -0.138661
    C   C19  0.441220  0.016107  0.435507  -0.011751
    C   C20  0.528216  0.960519  0.474909  -0.036994
    C   C21  0.518338  0.849097  0.474727  0.189411
    C   C22  0.450124  0.126749  0.444756  0.169638
    N   N2   0.510451  0.759560  0.473949  -0.193869
    H   H12  0.605788  0.999957  0.510752  0.155970
    C   C23  0.890896  0.294320  0.548607  0.226384
    O   O9   0.820780  0.261168  0.487292  -0.448017
    C   C24  0.941477  0.214768  0.614070  0.154490
    C   C25  0.908915  0.111114  0.597492  -0.170943
    C   C26  0.952081  0.034056  0.655103  -0.124413
    C   C27  0.028479  0.058688  0.730344  -0.049651
    C   C28  0.061759  0.160735  0.747965  -0.191124
    C   C29  0.018933  0.238280  0.690701  -0.085309
    H   H13  0.849347  0.087871  0.539131  0.128093
    H   H14  0.925759  0.953878  0.640983  0.115894
    H   H15  0.062251  0.998140  0.775398  0.089755
    H   H16  0.121902  0.180325  0.807060  0.123968
    H   H17  0.048129  0.316663  0.707968  0.067757
    C   C30  0.331690  0.967166  0.388425  0.521593
    O   O10  0.229415  0.990945  0.413130  -0.418507
    C   C31  0.341903  0.898566  0.306877  -0.081622
    C   C32  0.239747  0.836518  0.279469  -0.071499
    C   C33  0.246561  0.773649  0.202039  -0.124526
    C   C34  0.354972  0.772983  0.150878  0.036463
    C   C35  0.456635  0.835459  0.177021  -0.146351
    C   C36  0.450313  0.898354  0.254504  -0.033085
    H   H18  0.153822  0.835886  0.318687  0.115941
    H   H19  0.166563  0.724963  0.181326  0.111400
    H   H20  0.359999  0.724009  0.089938  0.069314
    H   H21  0.541377  0.835689  0.136327  0.114479
    H   H22  0.530580  0.948191  0.272137  0.065831
    C   C37  0.881587  0.451057  0.650997  0.251238
    O   O11  0.925320  0.535107  0.676512  -0.463089
    C   C38  0.807208  0.388904  0.722913  0.106360
    C   C39  0.837755  0.401707  0.817642  -0.121547
    C   C40  0.773613  0.345338  0.887816  -0.118099
    C   C41  0.677171  0.276078  0.864527  -0.054602
    C   C42  0.643611  0.264634  0.771004  -0.121053
    C   C43  0.707010  0.321516  0.700722  -0.128538
    H   H23  0.914538  0.454177  0.837915  0.111294
    H   H24  0.799664  0.355135  0.961282  0.092529
    H   H25  0.627109  0.231687  0.919535  0.084352
    H   H26  0.566515  0.211551  0.752602  0.093575
    H   H27  0.676177  0.312244  0.628799  0.127597
    C   C44  0.083697  0.347348  0.331727  0.351185
    O   O12  0.081713  0.273430  0.386638  -0.411421
    C   C45  0.117397  0.330733  0.232057  0.069550
    C   C46  0.193510  0.252064  0.211737  -0.149090
    C   C47  0.221923  0.230941  0.119074  -0.026381
    C   C48  0.173450  0.287401  0.045830  -0.130160
    C   C49  0.096764  0.365256  0.065271  -0.108614
    C   C50  0.068206  0.386758  0.157853  -0.147705
    H   H28  0.232175  0.206618  0.268222  0.127183
    H   H29  0.281857  0.169591  0.103882  0.063788
    H   H30  0.195090  0.270322  0.973174  0.108942
    H   H31  0.057607  0.408837  0.007730  0.106901
    H   H32  0.003971  0.445519  0.170391  0.115233
