# Generated by REPEAT Assigner based on pymatgen
data_DB0-m2_o16_o153_f0_pcu
_audit_creation_date              2022-05-24
_audit_creation_method            REPEAT_Assigner
_cell_length_a                    12.151113
_cell_length_b                    23.503528
_cell_length_c                    23.519492
_cell_angle_alpha                 90.038330
_cell_angle_beta                  77.670392
_cell_angle_gamma                 102.324306
_cell_volume                      6403.776710
_symmetry_space_group_name_H-M    P1
_symmetry_Int_Tables_number       1
loop_
    _symmetry_equiv_pos_site_id
    _symmetry_equiv_pos_as_xyz
    1  x,y,z
loop_
    _atom_site_type_symbol
    _atom_site_label
    _atom_site_fract_x
    _atom_site_fract_y
    _atom_site_fract_z
    _atom_type_partial_charge
    O   O1    0.090753  0.006134  0.907080  -0.637769
    O   O2    0.895360  0.993446  0.928033  -0.628552
    C   C1    0.993203  0.998836  0.889773  0.709007
    O   O3    0.092856  0.095894  0.983841  -0.600690
    O   O4    0.898367  0.076755  0.017350  -0.617957
    C   C2    0.997043  0.114363  0.000517  0.692593
    Cu  Cu1   0.103178  0.014209  0.988544  0.944955
    Cu  Cu2   0.875865  0.991550  0.013117  0.917416
    O   O5    0.085847  0.019462  0.072849  -0.635407
    O   O6    0.889886  0.988079  0.094717  -0.635842
    O   O7    0.082984  0.929606  0.997116  -0.602347
    O   O8    0.887044  0.909395  0.009604  -0.595951
    C   C3    0.988035  0.004172  0.111440  0.755008
    C   C4    0.984123  0.891611  0.004242  0.701998
    H   H1    0.186099  0.704339  0.918965  0.167078
    C   C5    0.079078  0.411583  0.847531  -0.316114
    C   C6    0.048873  0.365507  0.887846  -0.309635
    C   C7    0.035287  0.389222  0.942001  0.555451
    N   N1    0.056237  0.447905  0.936417  -0.669906
    C   C8    0.083482  0.461616  0.878716  0.556557
    C   C9    0.007367  0.358897  0.993151  -0.435352
    C   C10   0.985966  0.387736  0.048874  0.407586
    C   C11   0.005771  0.368010  0.100236  -0.276383
    C   C12   0.968875  0.404514  0.142517  -0.281369
    C   C13   0.927952  0.445153  0.115353  0.420597
    N   N2    0.937427  0.434419  0.058406  -0.444485
    C   C14   0.873452  0.490198  0.146020  -0.446143
    C   C15   0.881957  0.542479  0.120604  0.560721
    C   C16   0.832501  0.586639  0.146249  -0.323731
    C   C17   0.866752  0.633163  0.106328  -0.311188
    C   C18   0.934099  0.615225  0.057567  0.504641
    N   N3    0.943824  0.559958  0.066412  -0.655183
    C   C19   0.987775  0.648623  0.009353  -0.293014
    C   C20   0.056984  0.625380  0.958778  0.324237
    C   C21   0.148568  0.658376  0.918745  -0.254102
    C   C22   0.183109  0.621432  0.876423  -0.295632
    C   C23   0.111180  0.567341  0.891895  0.449661
    N   N4    0.033670  0.570054  0.941679  -0.430622
    C   C24   0.112923  0.516275  0.855554  -0.452627
    H   H2    0.094368  0.407848  0.800841  0.144959
    H   H3    0.036601  0.320006  0.877813  0.139987
    H   H4    0.042161  0.330975  0.106634  0.166650
    H   H5    0.971036  0.401238  0.188096  0.163968
    H   H6    0.777619  0.586198  0.189026  0.149597
    H   H7    0.843959  0.675029  0.113164  0.156774
    H   H8    0.252038  0.633294  0.838132  0.166499
    H   H9    0.904337  0.455044  0.028816  0.332003
    H   H10   0.962750  0.537153  0.959999  0.325089
    C   C25   0.079935  0.752017  0.016648  -0.111843
    H   H11   0.155138  0.738205  0.024237  0.099135
    C   C26   0.079521  0.810629  0.014834  -0.140590
    C   C27   0.983258  0.829006  0.006245  -0.082802
    C   C28   0.887508  0.787926  0.999273  -0.061441
    C   C29   0.889188  0.729267  0.999708  -0.177283
    H   H12   0.814559  0.697516  0.993465  0.107556
    C   C30   0.985589  0.711061  0.008268  0.182022
    C   C31   0.253730  0.510823  0.763482  -0.160853
    H   H13   0.300749  0.488773  0.787190  0.111486
    C   C32   0.293838  0.522917  0.704399  -0.116726
    H   H14   0.371212  0.509818  0.681970  0.109761
    C   C33   0.235720  0.551979  0.673975  -0.122330
    C   C34   0.137863  0.569302  0.702722  -0.087270
    H   H15   0.092681  0.592425  0.678941  0.106790
    C   C35   0.097708  0.557290  0.761816  -0.210236
    H   H16   0.021013  0.571066  0.784142  0.113454
    C   C36   0.154509  0.527286  0.792294  0.302114
    C   C37   0.721324  0.430453  0.222059  -0.228178
    H   H17   0.690178  0.404711  0.188324  0.120316
    C   C38   0.667031  0.416804  0.279651  -0.087372
    H   H18   0.593665  0.380470  0.290895  0.111180
    C   C39   0.706409  0.449362  0.322899  -0.120119
    C   C40   0.800573  0.495373  0.308571  -0.118427
    H   H19   0.832176  0.520557  0.342517  0.111257
    C   C41   0.854889  0.509110  0.250992  -0.163742
    H   H20   0.929702  0.544730  0.240153  0.113322
    C   C42   0.814367  0.477179  0.207428  0.312343
    C   C43   0.903987  0.256617  0.019874  -0.257752
    H   H21   0.826361  0.271961  0.037399  0.128594
    C   C44   0.901241  0.197550  0.021633  -0.047182
    C   C45   0.999952  0.177241  0.999430  -0.083704
    C   C46   0.101394  0.216808  0.975704  -0.112864
    C   C47   0.103581  0.275741  0.973389  -0.163253
    H   H22   0.183561  0.306163  0.954844  0.113629
    C   C48   0.004609  0.295926  0.994852  0.313332
    H   H23   0.154934  0.841781  0.021050  0.118567
    H   H24   0.821046  0.167595  0.040742  0.107013
    H   H25   0.267268  0.561497  0.627669  0.106691
    H   H26   0.663936  0.438584  0.368047  0.106209
    H   H27   0.811437  0.801294  0.992350  0.103351
    H   H28   0.179830  0.202178  0.958255  0.114808
    H   H29   0.151247  0.089750  0.664640  0.165013
    C   C49   0.311350  0.063864  0.364577  -0.340775
    C   C50   0.235607  0.046479  0.328898  -0.233457
    C   C51   0.129277  0.024048  0.365104  0.407482
    N   N5    0.137443  0.026933  0.421478  -0.632340
    C   C52   0.248138  0.052183  0.421199  0.580394
    C   C53   0.031370  0.998751  0.349241  -0.148081
    C   C54   0.948114  0.957456  0.392432  0.298242
    C   C55   0.961315  0.901977  0.403616  -0.228835
    C   C56   0.879588  0.880247  0.453025  -0.242139
    C   C57   0.819968  0.923379  0.469986  0.214227
    N   N6    0.862802  0.970790  0.433428  -0.468393
    C   C58   0.733632  0.920106  0.524473  -0.059361
    C   C59   0.771651  0.931611  0.573357  0.384898
    C   C60   0.711597  0.913458  0.629315  -0.255495
    C   C61   0.787549  0.930870  0.664971  -0.315747
    C   C62   0.889830  0.960788  0.629483  0.584044
    N   N7    0.880308  0.960154  0.573425  -0.640029
    C   C63   0.984628  0.988313  0.647312  -0.440094
    C   C64   0.086467  0.023173  0.606156  0.399108
    C   C65   0.158577  0.071249  0.622261  -0.275248
    C   C66   0.241958  0.092583  0.573330  -0.263735
    C   C67   0.217840  0.057084  0.528791  0.363849
    N   N8    0.123343  0.014411  0.548971  -0.397275
    C   C68   0.289996  0.065785  0.469014  -0.436914
    H   H30   0.402528  0.082302  0.349630  0.143546
    H   H31   0.259715  0.047186  0.281931  0.130248
    H   H32   0.026796  0.880864  0.379928  0.122640
    H   H33   0.867702  0.838541  0.475494  0.137800
    H   H34   0.624881  0.887518  0.643190  0.122935
    H   H35   0.768054  0.921478  0.711429  0.148839
    H   H36   0.311471  0.130493  0.570855  0.159354
    H   H37   0.839079  0.010944  0.437896  0.353715
    H   H38   0.090122  0.979732  0.525544  0.340536
    C   C69   0.074875  0.975258  0.730100  -0.203101
    H   H39   0.141907  0.959957  0.700147  0.122449
    C   C70   0.079085  0.979017  0.788300  -0.093868
    C   C71   0.992473  0.996953  0.827462  -0.031066
    C   C72   0.904215  0.013186  0.807452  -0.178715
    C   C73   0.902531  0.011599  0.748994  -0.125355
    H   H40   0.835115  0.026663  0.733989  0.099243
    C   C74   0.985559  0.990619  0.710102  0.263741
    C   C75   0.446413  0.153859  0.439414  -0.186763
    H   H41   0.386322  0.175145  0.424639  0.106846
    C   C76   0.558961  0.183518  0.435241  -0.093615
    H   H42   0.586984  0.227695  0.416813  0.104298
    C   C77   0.635615  0.156969  0.454809  -0.140668
    C   C78   0.599510  0.100873  0.478920  -0.069226
    H   H43   0.659385  0.080178  0.494633  0.101118
    C   C79   0.486960  0.071194  0.483160  -0.267204
    H   H44   0.458806  0.027302  0.502278  0.127606
    C   C80   0.410478  0.097241  0.462677  0.365797
    C   C81   0.525442  0.919645  0.556798  -0.002879
    H   H45   0.547271  0.957782  0.581283  0.056364
    C   C82   0.411214  0.896947  0.556369  -0.119588
    H   H46   0.344632  0.916732  0.581112  0.096443
    C   C83   0.381911  0.849427  0.524060  -0.132308
    C   C84   0.467028  0.824894  0.491792  -0.097323
    H   H47   0.444148  0.787805  0.466144  0.112501
    C   C85   0.581379  0.847546  0.492067  -0.124161
    H   H48   0.646386  0.827323  0.466672  0.083575
    C   C86   0.611329  0.894519  0.525416  0.033578
    C   C87   0.948347  0.954298  0.266821  -0.069116
    H   H49   0.907601  0.914879  0.293314  0.061699
    C   C88   0.934627  0.956291  0.210020  -0.146678
    C   C89   0.990305  0.004361  0.173446  -0.055241
    C   C90   0.053317  0.051941  0.195097  -0.127515
    C   C91   0.061878  0.051284  0.252627  -0.080155
    H   H50   0.106545  0.090481  0.268970  0.087687
    C   C92   0.015685  0.001160  0.288292  0.048966
    H   H51   0.149008  0.966277  0.803118  0.113729
    H   H52   0.884810  0.918739  0.193487  0.126884
    H   H53   0.723802  0.180257  0.451577  0.108357
    H   H54   0.292357  0.831684  0.523684  0.113134
    H   H55   0.837222  0.028718  0.837143  0.139208
    H   H56   0.094649  0.090483  0.167222  0.115560
    C   C93   0.450046  0.086845  0.916053  -0.282132
    H   H57   0.285238  0.094771  0.904835  0.112987
    H   H58   0.672273  0.108187  0.900285  0.127521
    H   H59   0.495472  0.120196  0.882609  0.137885
    N   N9    0.275101  0.031692  0.970436  -0.082978
    C   C94   0.648498  0.932529  0.071890  0.048060
    C   C95   0.530557  0.916071  0.087311  -0.161550
    C   C96   0.463923  0.942862  0.060644  -0.102989
    C   C97   0.515995  0.987121  0.018046  0.021320
    C   C98   0.636402  0.002895  0.003916  0.231856
    C   C99   0.451877  0.015787  0.988817  -0.041194
    C   C100  0.509712  0.058698  0.946181  0.274485
    C   C101  0.627524  0.074244  0.933240  -0.232883
    C   C102  0.689891  0.047070  0.961926  -0.164518
    C   C103  0.331499  0.003332  0.000474  -0.050578
    C   C104  0.332038  0.072622  0.928538  0.033053
    N   N10   0.700448  0.975226  0.030809  -0.170394
    H   H60   0.279259  0.971572  0.033508  0.124254
    H   H61   0.699477  0.910503  0.092983  0.117842
    H   H62   0.372212  0.927218  0.074585  0.131653
    H   H63   0.489925  0.881597  0.120294  0.117790
    H   H64   0.781337  0.061808  0.949843  0.165324
