# Generated by REPEAT Assigner based on pymatgen
data_DB0-m3_o4_o1470_f0_fsc.sym.12_sqe
_audit_creation_date              2022-05-24
_audit_creation_method            REPEAT_Assigner
_cell_length_a                    10.780219
_cell_length_b                    8.590530
_cell_length_c                    9.283760
_cell_angle_alpha                 90.000000
_cell_angle_beta                  97.644176
_cell_angle_gamma                 90.000000
_cell_volume                      852.108180
_symmetry_space_group_name_H-M    P1
_symmetry_Int_Tables_number       1
loop_
    _symmetry_equiv_pos_site_id
    _symmetry_equiv_pos_as_xyz
    1  x,y,z
loop_
    _atom_site_type_symbol
    _atom_site_label
    _atom_site_fract_x
    _atom_site_fract_y
    _atom_site_fract_z
    _atom_type_partial_charge
    C   C1   0.311579  0.997853  0.938364  -0.136852
    C   C2   0.252588  0.858810  0.956635  -0.076452
    C   C3   0.253631  0.136987  0.959033  -0.074601
    C   C4   0.129191  0.858944  0.983151  -0.128430
    C   C5   0.131557  0.138049  0.989205  -0.192009
    C   C6   0.059199  0.709309  0.973779  0.161782
    C   C7   0.072539  0.292614  0.002437  0.402067
    C   C8   0.946702  0.713643  0.054547  0.325755
    C   C9   0.935048  0.292973  0.023256  0.071677
    C   C10  0.068073  0.999108  0.998205  0.197537
    C   C11  0.936212  0.999786  0.018008  -0.184993
    C   C12  0.873872  0.859878  0.027816  0.088901
    C   C13  0.872301  0.139009  0.022439  0.120427
    C   C14  0.746450  0.859365  0.035997  -0.113195
    C   C15  0.746157  0.137731  0.035817  -0.090889
    C   C16  0.685059  0.998459  0.044022  -0.182658
    H   H1   0.887225  0.612892  0.018571  -0.008340
    H   H2   0.884966  0.362953  0.933885  0.141922
    H   H3   0.406959  0.997655  0.916057  0.114355
    H   H4   0.586818  0.998369  0.053775  0.135887
    H   H5   0.120768  0.615554  0.023305  0.058573
    H   H6   0.125059  0.353197  0.096904  0.014298
    O   O1   0.371377  0.666493  0.098668  -0.761686
    O   O2   0.371676  0.330568  0.099397  -0.775165
    O   O3   0.368246  0.661286  0.849986  -0.722967
    O   O4   0.368669  0.334571  0.850721  -0.734417
    C   C17  0.329253  0.716899  0.967727  0.928244
    C   C18  0.329692  0.279375  0.968904  0.951786
    O   O5   0.628139  0.666265  0.893042  -0.694544
    O   O6   0.628460  0.330675  0.893481  -0.685043
    O   O7   0.631248  0.661770  0.142141  -0.703745
    O   O8   0.631449  0.335789  0.142541  -0.680216
    C   C19  0.670225  0.716996  0.024168  0.868862
    C   C20  0.670642  0.280443  0.024522  0.830271
    Zn  Zn1  0.500493  0.498167  0.835342  1.004757
    Zn  Zn2  0.498919  0.498749  0.156464  1.040514
    C   C21  0.602955  0.497922  0.439582  0.079210
    N   N1   0.497814  0.499109  0.345445  0.109246
    C   C22  0.389813  0.500461  0.404742  -0.119089
    H   H7   0.301197  0.501665  0.334883  0.208674
    C   C23  0.391479  0.500214  0.555979  -0.115583
    H   H8   0.303981  0.501711  0.600899  0.199547
    N   N2   0.501017  0.497842  0.646203  0.138172
    C   C24  0.604538  0.496246  0.581355  -0.079298
    C   C25  0.742507  0.491921  0.613340  0.709003
    C   C26  0.740982  0.494597  0.444057  -0.240094
    H   H9   0.778379  0.604275  0.403803  0.146407
    H   H10  0.774779  0.384413  0.400734  0.136210
    F   F1   0.021057  0.674922  0.829320  -0.211237
    F   F2   0.085007  0.376060  0.877950  -0.289997
    F   F3   0.986516  0.700216  0.201777  -0.309600
    F   F4   0.923394  0.365363  0.153743  -0.271654
    F   F5   0.792584  0.624652  0.682205  -0.294133
    F   F6   0.787209  0.353805  0.676329  -0.307196
