data_DB0-m3_o11_o28_f0_pcu.sym.49_repeat
_audit_creation_date              2024-02-23
_audit_creation_method            'Materials Studio'
_symmetry_space_group_name_H-M    'P1'
_symmetry_Int_Tables_number       1
_symmetry_cell_setting            triclinic
loop_
_symmetry_equiv_pos_as_xyz
  x,y,z
_cell_length_a                    23.4452
_cell_length_b                    11.1329
_cell_length_c                    9.9174
_cell_angle_alpha                 89.9974
_cell_angle_beta                  89.9814
_cell_angle_gamma                 90.0113
loop_
_atom_site_label
_atom_site_type_symbol
_atom_site_fract_x
_atom_site_fract_y
_atom_site_fract_z
_atom_site_U_iso_or_equiv
_atom_site_adp_type
_atom_site_occupancy
O1     O     0.49109   0.31837   0.60774   0.00000  Uiso   1.00
O2     O     0.49025   0.31582   0.37558   0.00000  Uiso   1.00
C1     C     0.49088   0.26096   0.49279   0.00000  Uiso   1.00
O3     O     0.40566   0.49699   0.61313   0.00000  Uiso   1.00
O4     O     0.40477   0.49461   0.38123   0.00000  Uiso   1.00
C2     C     0.37844   0.49519   0.49772   0.00000  Uiso   1.00
Zn1    Zn    0.49088   0.49682   0.64693   0.00000  Uiso   1.00
Zn2    Zn    0.48942   0.49517   0.34028   0.00000  Uiso   1.00
O5     O     0.49031   0.67626   0.61203   0.00000  Uiso   1.00
O6     O     0.48943   0.67377   0.37904   0.00000  Uiso   1.00
O7     O     0.57560   0.49875   0.60667   0.00000  Uiso   1.00
O8     O     0.57470   0.49646   0.37351   0.00000  Uiso   1.00
C3     C     0.49063   0.73126   0.49450   0.00000  Uiso   1.00
C4     C     0.60182   0.49755   0.48955   0.00000  Uiso   1.00
C5     C     0.87245   0.58716   0.42909   0.00000  Uiso   1.00
N1     N     0.84361   0.49675   0.48888   0.00000  Uiso   1.00
C6     C     0.87180   0.40627   0.55024   0.00000  Uiso   1.00
C7     C     0.93079   0.40517   0.55314   0.00000  Uiso   1.00
C8     C     0.96071   0.49685   0.49258   0.00000  Uiso   1.00
C9     C     0.93147   0.58838   0.42993   0.00000  Uiso   1.00
C10    C     0.96006   0.31294   0.61579   0.00000  Uiso   1.00
C11    C     0.01884   0.31310   0.61789   0.00000  Uiso   1.00
C12    C     0.04881   0.40550   0.55736   0.00000  Uiso   1.00
C13    C     0.01958   0.49703   0.49471   0.00000  Uiso   1.00
C14    C     0.04950   0.58871   0.43415   0.00000  Uiso   1.00
C15    C     0.02022   0.68095   0.37150   0.00000  Uiso   1.00
C16    C     0.96144   0.68078   0.36941   0.00000  Uiso   1.00
C17    C     0.10783   0.40671   0.55820   0.00000  Uiso   1.00
N2     N     0.13667   0.49712   0.49841   0.00000  Uiso   1.00
C18    C     0.10849   0.58760   0.43704   0.00000  Uiso   1.00
O9     O     0.84360   0.67790   0.37138   0.00000  Uiso   1.00
O10    O     0.84231   0.31560   0.60639   0.00000  Uiso   1.00
H1     H     0.93769   0.23975   0.66403   0.00000  Uiso   1.00
H2     H     0.04066   0.24001   0.66765   0.00000  Uiso   1.00
O11    O     0.13668   0.31596   0.61588   0.00000  Uiso   1.00
O12    O     0.13798   0.67825   0.38087   0.00000  Uiso   1.00
H3     H     0.04259   0.75413   0.32326   0.00000  Uiso   1.00
H4     H     0.93962   0.75386   0.31964   0.00000  Uiso   1.00
C19    C     0.22727   0.49735   0.61891   0.00000  Uiso   1.00
H5     H     0.20454   0.49985   0.71374   0.00000  Uiso   1.00
C20    C     0.28612   0.49693   0.61895   0.00000  Uiso   1.00
H6     H     0.30833   0.49819   0.71439   0.00000  Uiso   1.00
C21    C     0.31585   0.49531   0.49846   0.00000  Uiso   1.00
C22    C     0.28601   0.49405   0.37816   0.00000  Uiso   1.00
H7     H     0.30806   0.49242   0.28250   0.00000  Uiso   1.00
C23    C     0.22722   0.49469   0.37842   0.00000  Uiso   1.00
H8     H     0.20447   0.49254   0.28365   0.00000  Uiso   1.00
C24    C     0.19758   0.49642   0.49866   0.00000  Uiso   1.00
C25    C     0.75301   0.49638   0.36836   0.00000  Uiso   1.00
H9     H     0.77575   0.49394   0.27353   0.00000  Uiso   1.00
C26    C     0.69416   0.49653   0.36831   0.00000  Uiso   1.00
H10    H     0.67197   0.49511   0.27285   0.00000  Uiso   1.00
C27    C     0.66442   0.49798   0.48880   0.00000  Uiso   1.00
C28    C     0.69427   0.49939   0.60910   0.00000  Uiso   1.00
H11    H     0.67225   0.50085   0.70480   0.00000  Uiso   1.00
C29    C     0.75306   0.49903   0.60884   0.00000  Uiso   1.00
H12    H     0.77581   0.50123   0.70361   0.00000  Uiso   1.00
C30    C     0.78271   0.49740   0.48861   0.00000  Uiso   1.00
C31    C     0.51086   0.93190   0.39325   0.00000  Uiso   1.00
C32    C     0.48886   0.86346   0.49294   0.00000  Uiso   1.00
H13    H     0.46449   0.90462   0.57321   0.00000  Uiso   1.00
C33    C     0.50038   0.06289   0.38812   0.00000  Uiso   1.00
C34    C     0.49416   0.12958   0.49900   0.00000  Uiso   1.00
H14    H     0.50301   0.10755   0.29133   0.00000  Uiso   1.00
H15    H     0.49596   0.08933   0.59820   0.00000  Uiso   1.00
C35    C     0.52201   0.56807   0.92123   0.00000  Uiso   1.00
N3     N     0.49267   0.49528   0.84856   0.00000  Uiso   1.00
H16    H     0.54633   0.63867   0.87263   0.00000  Uiso   1.00
H17    H     0.47686   0.42021   0.89559   0.00000  Uiso   1.00
C36    C     0.52626   0.55383   0.06955   0.00000  Uiso   1.00
N4     N     0.48807   0.49814   0.13864   0.00000  Uiso   1.00
H18    H     0.56173   0.59565   0.12144   0.00000  Uiso   1.00
H19    H     0.45115   0.47464   0.08972   0.00000  Uiso   1.00
C37    C     0.54872   0.88280   0.28774   0.00000  Uiso   1.00
O13    O     0.58069   0.79929   0.31268   0.00000  Uiso   1.00
O14    O     0.55327   0.94065   0.16875   0.00000  Uiso   1.00
C38    C     0.59210   0.90501   0.07334   0.00000  Uiso   1.00
H20    H     0.58863   0.96443   0.98396   0.00000  Uiso   1.00
H21    H     0.58319   0.81125   0.04223   0.00000  Uiso   1.00
H22    H     0.63592   0.91166   0.11488   0.00000  Uiso   1.00
