# generated using pymatgen
data_ZnH15C23NO5
_symmetry_space_group_name_H-M   'P 1'
_cell_length_a   14.98330600
_cell_length_b   16.03500600
_cell_length_c   16.13589100
_cell_angle_alpha   89.99238300
_cell_angle_beta   90.00822900
_cell_angle_gamma   72.68721800
_symmetry_Int_Tables_number   1
_chemical_formula_structural   ZnH15C23NO5
_chemical_formula_sum   'Zn2 H30 C46 N2 O10'
_cell_volume   3701.12801304
_cell_formula_units_Z   2
loop_
 _symmetry_equiv_pos_site_id
 _symmetry_equiv_pos_as_xyz
  1  'x, y, z'
loop_
 _atom_site_type_symbol
 _atom_site_label
 _atom_site_symmetry_multiplicity
 _atom_site_fract_x
 _atom_site_fract_y
 _atom_site_fract_z
 _atom_site_occupancy
  Zn  Zn1  1  0.60045900  0.50335400  0.50023100  1
  Zn  Zn2  1  0.39711300  0.50421200  0.50017500  1
  H  H1  1  0.74691000  0.93421200  0.50006700  1
  H  H2  1  0.25066300  0.07335500  0.49971000  1
  H  H3  1  0.55157100  0.77844900  0.50031600  1
  H  H4  1  0.44600100  0.22911800  0.50024600  1
  H  H5  1  0.26820000  0.78169800  0.49993300  1
  H  H6  1  0.72937200  0.22586900  0.50019000  1
  H  H7  1  0.77925500  0.06786500  0.50013300  1
  H  H8  1  0.21831700  0.93970200  0.49978800  1
  H  H9  1  0.64422300  0.84914400  0.50001900  1
  H  H10  1  0.35335000  0.15842200  0.49975400  1
  H  H11  1  0.64006000  0.50538400  0.92343800  1
  H  H12  1  0.35653200  0.50526700  0.07696800  1
  H  H13  1  0.11390500  0.40118400  0.41133500  1
  H  H14  1  0.88367200  0.60637000  0.58908100  1
  H  H15  1  0.94991300  0.40056100  0.41140000  1
  H  H16  1  0.04766400  0.60699300  0.58901800  1
  H  H17  1  0.64840200  0.60954000  0.16245500  1
  H  H18  1  0.59162600  0.63700000  0.06325100  1
  H  H19  1  0.80346000  0.56498700  0.09250000  1
  H  H20  1  0.74646700  0.59255600  0.99308200  1
  H  H21  1  0.67753100  0.74617300  0.03960100  1
  H  H22  1  0.80371800  0.71244500  0.04623200  1
  H  H23  1  0.73462300  0.71863100  0.13917300  1
  H  H24  1  0.28178700  0.60936800  0.83789800  1
  H  H25  1  0.32101400  0.63688200  0.93709600  1
  H  H26  1  0.15517500  0.56469600  0.90786300  1
  H  H27  1  0.19454400  0.59234300  0.00726900  1
  H  H28  1  0.16549500  0.74596300  0.96064500  1
  H  H29  1  0.06085800  0.71212800  0.95403400  1
  H  H30  1  0.12599900  0.71834000  0.86109100  1
  C  C1  1  0.49881200  0.50380200  0.33823200  1
  C  C2  1  0.49874800  0.50380200  0.66217400  1
  C  C3  1  0.55260700  0.33261800  0.50022500  1
  C  C4  1  0.44496600  0.67494900  0.50017500  1
  C  C5  1  0.58305900  0.23660600  0.50019600  1
  C  C6  1  0.41451300  0.77096000  0.50011100  1
  C  C7  1  0.70532400  0.10233800  0.50013700  1
  C  C8  1  0.29224800  0.90522900  0.49989000  1
  C  C9  1  0.67700300  0.19188400  0.50017300  1
  C  C10  1  0.32056900  0.81568200  0.49997600  1
  C  C11  1  0.51793800  0.19072800  0.50017100  1
  C  C12  1  0.47963400  0.81683800  0.50016000  1
  C  C13  1  0.54572200  0.09932100  0.50009300  1
  C  C14  1  0.45185100  0.90824500  0.50004500  1
  C  C15  1  0.64064600  0.05656800  0.50010200  1
  C  C16  1  0.35692600  0.95099900  0.49992500  1
  C  C17  1  0.48214100  0.04956000  0.50002000  1
  C  C18  1  0.51543100  0.95800600  0.50005300  1
  C  C19  1  0.61170700  0.91844200  0.50006100  1
  C  C20  1  0.38586600  0.08912500  0.49987700  1
  C  C21  1  0.67263800  0.96724700  0.50007200  1
  C  C22  1  0.32493400  0.04032000  0.49982600  1
  C  C23  1  0.57746400  0.50640500  0.95722800  1
  C  C24  1  0.41846000  0.50634000  0.04317800  1
  C  C25  1  0.49763400  0.50651200  0.91469100  1
  C  C26  1  0.49820100  0.50651400  0.08571400  1
  C  C27  1  0.41752500  0.50776700  0.95763500  1
  C  C28  1  0.57748800  0.50783600  0.04277000  1
  C  C29  1  0.49822500  0.50515300  0.82575000  1
  C  C30  1  0.49847700  0.50515500  0.17465600  1
  C  C31  1  0.49865500  0.50436700  0.24932100  1
  C  C32  1  0.49854900  0.50436600  0.75108500  1
  C  C33  1  0.97140000  0.44590900  0.45042600  1
  C  C34  1  0.02617700  0.56164500  0.54999100  1
  C  C35  1  0.90688900  0.50341300  0.50026000  1
  C  C36  1  0.09068700  0.50414200  0.50015500  1
  C  C37  1  0.93426900  0.56128500  0.55003700  1
  C  C38  1  0.06330800  0.44626900  0.45038000  1
  C  C39  1  0.81122700  0.50311700  0.50025700  1
  C  C40  1  0.18634800  0.50444200  0.50015300  1
  C  C41  1  0.65360500  0.59369400  0.09539700  1
  C  C42  1  0.74156800  0.60821200  0.06017300  1
  C  C43  1  0.73904400  0.70261700  0.07215300  1
  C  C44  1  0.28667700  0.59353100  0.90496400  1
  C  C45  1  0.18947200  0.60797700  0.94016700  1
  C  C46  1  0.13178400  0.70235200  0.92812200  1
  N  N1  1  0.26351200  0.50459700  0.50015400  1
  N  N2  1  0.73406200  0.50296600  0.50025300  1
  O  O1  1  0.57597300  0.50348700  0.37674300  1
  O  O2  1  0.42158600  0.50412600  0.62366300  1
  O  O3  1  0.42163800  0.50412300  0.37670200  1
  O  O4  1  0.57592100  0.50348400  0.62370400  1
  O  O5  1  0.61679400  0.37330200  0.50023700  1
  O  O6  1  0.38077400  0.63426600  0.50016300  1
  O  O7  1  0.46266600  0.37398400  0.50020400  1
  O  O8  1  0.53491100  0.63358400  0.50020100  1
  O  O9  1  0.65730100  0.50623800  0.08480200  1
  O  O10  1  0.33875500  0.50609700  0.91560400  1
