# generated using pymatgen
data_ZnH15C36N2O7
_symmetry_space_group_name_H-M   'P 1'
_cell_length_a   17.57724600
_cell_length_b   8.55857800
_cell_length_c   23.30002800
_cell_angle_alpha   90.00000000
_cell_angle_beta   93.89457800
_cell_angle_gamma   90.00000000
_symmetry_Int_Tables_number   1
_chemical_formula_structural   ZnH15C36N2O7
_chemical_formula_sum   'Zn2 H30 C72 N4 O14'
_cell_volume   3497.07394496
_cell_formula_units_Z   2
loop_
 _symmetry_equiv_pos_site_id
 _symmetry_equiv_pos_as_xyz
  1  'x, y, z'
loop_
 _atom_site_type_symbol
 _atom_site_label
 _atom_site_symmetry_multiplicity
 _atom_site_fract_x
 _atom_site_fract_y
 _atom_site_fract_z
 _atom_site_occupancy
  Zn  Zn1  1  0.91497300  0.48909500  0.49793000  1
  Zn  Zn2  1  0.08502800  0.48909500  0.50207000  1
  H  H1  1  0.96222300  0.23434800  0.68680900  1
  H  H2  1  0.99629400  0.73713000  0.30695700  1
  H  H3  1  0.03777800  0.23434800  0.31319100  1
  H  H4  1  0.00370600  0.73713000  0.69304300  1
  H  H5  1  0.03802400  0.36665500  0.85952500  1
  H  H6  1  0.06068200  0.61827200  0.14163200  1
  H  H7  1  0.96197600  0.36665500  0.14047500  1
  H  H8  1  0.93931900  0.61827200  0.85836700  1
  H  H9  1  0.96821600  0.37460600  0.03777800  1
  H  H10  1  0.96219400  0.60966100  0.96153500  1
  H  H11  1  0.03178400  0.37460600  0.96222200  1
  H  H12  1  0.03780600  0.60966100  0.03846500  1
  H  H13  1  0.03004600  0.98947500  0.54177600  1
  H  H14  1  0.96995500  0.98947500  0.45822400  1
  H  H15  1  0.70745200  0.44894000  0.63750500  1
  H  H16  1  0.29254900  0.44894000  0.36249500  1
  H  H17  1  0.33098700  0.53233100  0.64625200  1
  H  H18  1  0.66901400  0.53233100  0.35374800  1
  H  H19  1  0.46342000  0.53028600  0.64468900  1
  H  H20  1  0.53658000  0.53028600  0.35531100  1
  H  H21  1  0.57312700  0.45091800  0.64262500  1
  H  H22  1  0.42687300  0.45091800  0.35737500  1
  H  H23  1  0.81715000  0.46420700  0.58419400  1
  H  H24  1  0.18285000  0.46420700  0.41580600  1
  H  H25  1  0.76794900  0.79058900  0.37863000  1
  H  H26  1  0.84247400  0.76302000  0.28327100  1
  H  H27  1  0.89571200  0.47518700  0.28304100  1
  H  H28  1  0.23205100  0.79058900  0.62137000  1
  H  H29  1  0.15752700  0.76302000  0.71672900  1
  H  H30  1  0.10428800  0.47518700  0.71695900  1
  C  C1  1  0.01091600  0.11778700  0.79303600  1
  C  C2  1  0.04137200  0.86669100  0.20805900  1
  C  C3  1  0.98908400  0.11778700  0.20696400  1
  C  C4  1  0.95862800  0.86669100  0.79194100  1
  C  C5  1  0.99742200  0.84835300  0.67167800  1
  C  C6  1  0.01901900  0.12600800  0.33125800  1
  C  C7  1  0.00257800  0.84835300  0.32832200  1
  C  C8  1  0.98098100  0.12600800  0.66874200  1
  C  C9  1  0.00513500  0.84988700  0.61321000  1
  C  C10  1  0.99780000  0.12753000  0.38722300  1
  C  C11  1  0.99486600  0.84988700  0.38679000  1
  C  C12  1  0.00220100  0.12753000  0.61277700  1
  C  C13  1  0.98642200  0.98821400  0.70083600  1
  C  C14  1  0.01357800  0.98821400  0.29916400  1
  C  C15  1  0.98995300  0.99250300  0.88153300  1
  C  C16  1  0.01004700  0.99250300  0.11846700  1
  C  C17  1  0.00675000  0.12468000  0.85194200  1
  C  C18  1  0.03104300  0.86041900  0.14863800  1
  C  C19  1  0.99325000  0.12468000  0.14805800  1
  C  C20  1  0.96895800  0.86041900  0.85136200  1
  C  C21  1  0.02341800  0.26111900  0.88174000  1
  C  C22  1  0.04311700  0.72388100  0.11901800  1
  C  C23  1  0.97658200  0.26111900  0.11826000  1
  C  C24  1  0.95688300  0.72388100  0.88098200  1
  C  C25  1  0.01585400  0.98909600  0.58589100  1
  C  C26  1  0.98414600  0.98909600  0.41410900  1
  C  C27  1  0.99698000  0.13133000  0.02954200  1
  C  C28  1  0.99180200  0.85306100  0.97036200  1
  C  C29  1  0.00302000  0.13133000  0.97045700  1
  C  C30  1  0.00819800  0.85306100  0.02963800  1
  C  C31  1  0.00523200  0.99228800  0.05915500  1
  C  C32  1  0.99476800  0.99228800  0.94084500  1
  C  C33  1  0.98195500  0.26626600  0.05957000  1
  C  C34  1  0.97180300  0.71837100  0.93991900  1
  C  C35  1  0.01804600  0.26626600  0.94043000  1
  C  C36  1  0.02819700  0.71837100  0.06008100  1
  C  C37  1  0.00274900  0.70725900  0.57856900  1
  C  C38  1  0.99807300  0.27032800  0.42173000  1
  C  C39  1  0.99725200  0.70725800  0.42143100  1
  C  C40  1  0.00192700  0.27032800  0.57827000  1
  C  C41  1  0.78194400  0.47484700  0.54457100  1
  C  C42  1  0.21805600  0.47484700  0.45542900  1
  C  C43  1  0.77046300  0.50988400  0.44488100  1
  C  C44  1  0.22953800  0.50988400  0.55511900  1
  C  C45  1  0.65766200  0.49131900  0.49673000  1
  C  C46  1  0.34233900  0.49131900  0.50327000  1
  C  C47  1  0.70369400  0.47720300  0.54645600  1
  C  C48  1  0.29630700  0.47720300  0.45354400  1
  C  C49  1  0.67167000  0.46332900  0.59826500  1
  C  C50  1  0.32833000  0.46332900  0.40173500  1
  C  C51  1  0.69144600  0.50731800  0.44551200  1
  C  C52  1  0.30855400  0.50731800  0.55448800  1
  C  C53  1  0.46699500  0.49650800  0.55247000  1
  C  C54  1  0.53300500  0.49650800  0.44753000  1
  C  C55  1  0.45383600  0.48541000  0.44908600  1
  C  C56  1  0.54616500  0.48541000  0.55091400  1
  C  C57  1  0.42125400  0.49100600  0.50162200  1
  C  C58  1  0.57874700  0.49100600  0.49837800  1
  C  C59  1  0.43219600  0.51448600  0.60386300  1
  C  C60  1  0.56780500  0.51448600  0.39613600  1
  C  C61  1  0.35423300  0.52044400  0.60479900  1
  C  C62  1  0.64576700  0.52044400  0.39520000  1
  C  C63  1  0.59382900  0.46781600  0.60074200  1
  C  C64  1  0.40617100  0.46781600  0.39925700  1
  C  C65  1  0.80480300  0.54616600  0.39101700  1
  C  C66  1  0.79761800  0.68876700  0.36418200  1
  C  C67  1  0.83549000  0.67464800  0.31564100  1
  C  C68  1  0.86279900  0.52425700  0.31612600  1
  C  C69  1  0.19519700  0.54616600  0.60898300  1
  C  C70  1  0.20238300  0.68876700  0.63581800  1
  C  C71  1  0.16451000  0.67464800  0.68435900  1
  C  C72  1  0.13720100  0.52425700  0.68387400  1
  N  N1  1  0.98381700  0.99167500  0.76269400  1
  N  N2  1  0.01618300  0.99167500  0.23730600  1
  N  N3  1  0.81475300  0.48911000  0.49424100  1
  N  N4  1  0.18524700  0.48911000  0.50575900  1
  O  O1  1  0.04571000  0.23510000  0.76698100  1
  O  O2  1  0.07828300  0.74890900  0.23597000  1
  O  O3  1  0.95429000  0.23510000  0.23301900  1
  O  O4  1  0.92171700  0.74890800  0.76403000  1
  O  O5  1  0.06696800  0.65776900  0.55988400  1
  O  O6  1  0.93321000  0.31931400  0.44042600  1
  O  O7  1  0.93303200  0.65776900  0.44011600  1
  O  O8  1  0.06679000  0.31931400  0.55957400  1
  O  O9  1  0.93573400  0.65229600  0.55946500  1
  O  O10  1  0.06449000  0.32661600  0.44040100  1
  O  O11  1  0.06426600  0.65229600  0.44053500  1
  O  O12  1  0.93551000  0.32661600  0.55959900  1
  O  O13  1  0.84401500  0.44489900  0.36190400  1
  O  O14  1  0.15598500  0.44489900  0.63809600  1
