# generated using pymatgen
data_Zn2H11C20N2O8F
_symmetry_space_group_name_H-M   'P 1'
_cell_length_a   11.91801400
_cell_length_b   11.13354400
_cell_length_c   9.95015500
_cell_angle_alpha   89.99737700
_cell_angle_beta   89.98893000
_cell_angle_gamma   89.99561400
_symmetry_Int_Tables_number   1
_chemical_formula_structural   Zn2H11C20N2O8F
_chemical_formula_sum   'Zn2 H11 C20 N2 O8 F1'
_cell_volume   1320.28338297
_cell_formula_units_Z   1
loop_
 _symmetry_equiv_pos_site_id
 _symmetry_equiv_pos_as_xyz
  1  'x, y, z'
loop_
 _atom_site_type_symbol
 _atom_site_label
 _atom_site_symmetry_multiplicity
 _atom_site_fract_x
 _atom_site_fract_y
 _atom_site_fract_z
 _atom_site_occupancy
  Zn  Zn1  1  0.49626800  0.51429200  0.66994700  1
  Zn  Zn2  1  0.49724900  0.51984700  0.36392200  1
  H  H1  1  0.49856600  0.90029900  0.31817100  1
  H  H2  1  0.49881100  0.92546800  0.62605000  1
  H  H3  1  0.50238100  0.12115500  0.30725600  1
  H  H4  1  0.49081500  0.11407400  0.61440900  1
  H  H5  1  0.65401000  0.57482500  0.89519800  1
  H  H6  1  0.66471400  0.48897500  0.13623400  1
  H  H7  1  0.43174000  0.57017700  0.11572300  1
  H  H8  1  0.27622900  0.51749200  0.90437300  1
  H  H9  1  0.15350700  0.35502600  0.98357700  1
  H  H10  1  0.43665600  0.12416600  0.02141900  1
  H  H11  1  0.55956300  0.28502200  0.94094200  1
  C  C1  1  0.49589700  0.28235900  0.50776800  1
  C  C2  1  0.27747100  0.51765900  0.51583800  1
  C  C3  1  0.49757800  0.75186400  0.52655900  1
  C  C4  1  0.71598000  0.51600900  0.51797000  1
  C  C5  1  0.15706700  0.51739900  0.51575400  1
  C  C6  1  0.05596200  0.51700100  0.51639000  1
  C  C7  1  0.93749000  0.51648000  0.51743300  1
  C  C8  1  0.83638500  0.51613800  0.51806500  1
  C  C9  1  0.49837400  0.94736300  0.41343700  1
  C  C10  1  0.49817600  0.88361700  0.52826500  1
  C  C11  1  0.49892200  0.08039500  0.40606900  1
  C  C12  1  0.49494700  0.15098700  0.51436900  1
  C  C13  1  0.58182800  0.53365700  0.94273500  1
  C  C14  1  0.58553300  0.51239900  0.08967200  1
  C  C15  1  0.42622200  0.41347800  0.92141900  1
  C  C16  1  0.31182700  0.43133600  0.93063100  1
  C  C17  1  0.24287900  0.34022000  0.97522500  1
  C  C18  1  0.28780400  0.23017500  0.00876900  1
  C  C19  1  0.40161800  0.21097600  0.99677900  1
  C  C20  1  0.47075500  0.30206700  0.95243300  1
  N  N1  1  0.49558900  0.50626300  0.87083600  1
  N  N2  1  0.49845700  0.52992400  0.16318900  1
  O  O1  1  0.49470700  0.33738700  0.62370100  1
  O  O2  1  0.49761400  0.33928500  0.39170200  1
  O  O3  1  0.32934100  0.51657200  0.63178100  1
  O  O4  1  0.32997600  0.51861000  0.40020200  1
  O  O5  1  0.49618200  0.69465600  0.64226000  1
  O  O6  1  0.49849100  0.69702900  0.40997100  1
  O  O7  1  0.66366800  0.51488700  0.63423600  1
  O  O8  1  0.66432300  0.51763800  0.40139600  1
  F  F1  1  0.21998400  0.14053400  0.05219700  1
