# generated using pymatgen
data_Zn3H13C26NO13
_symmetry_space_group_name_H-M   'P 1'
_cell_length_a   23.83396500
_cell_length_b   21.54678100
_cell_length_c   23.83581000
_cell_angle_alpha   90.00000000
_cell_angle_beta   90.00000000
_cell_angle_gamma   90.00000000
_symmetry_Int_Tables_number   1
_chemical_formula_structural   Zn3H13C26NO13
_chemical_formula_sum   'Zn12 H52 C104 N4 O52'
_cell_volume   12240.76639084
_cell_formula_units_Z   4
loop_
 _symmetry_equiv_pos_site_id
 _symmetry_equiv_pos_as_xyz
  1  'x, y, z'
loop_
 _atom_site_type_symbol
 _atom_site_label
 _atom_site_symmetry_multiplicity
 _atom_site_fract_x
 _atom_site_fract_y
 _atom_site_fract_z
 _atom_site_occupancy
  Zn  Zn1  1  0.56146800  0.49979600  0.00083000  1
  Zn  Zn2  1  0.06149200  0.99973700  0.50118300  1
  Zn  Zn3  1  0.43426100  0.49975300  0.99996600  1
  Zn  Zn4  1  0.93431500  0.99974600  0.50189400  1
  Zn  Zn5  1  0.49568800  0.99962900  0.06439600  1
  Zn  Zn6  1  0.49491700  0.99991700  0.93717900  1
  Zn  Zn7  1  0.99429900  0.49952300  0.56457500  1
  Zn  Zn8  1  0.99634000  0.49991400  0.43740100  1
  Zn  Zn9  1  0.49550000  0.42934100  0.50049200  1
  Zn  Zn10  1  0.49556000  0.57008900  0.50033300  1
  Zn  Zn11  1  0.99540500  0.92946700  0.00152400  1
  Zn  Zn12  1  0.99562500  0.07021600  0.00149800  1
  H  H1  1  0.40119900  0.21156700  0.98686800  1
  H  H2  1  0.40145800  0.78692800  0.01077800  1
  H  H3  1  0.90001600  0.71171600  0.50220400  1
  H  H4  1  0.90334900  0.28712600  0.52133800  1
  H  H5  1  0.46017400  0.28856000  0.91142300  1
  H  H6  1  0.45809300  0.71016000  0.08817700  1
  H  H7  1  0.43701900  0.28856000  0.07564000  1
  H  H8  1  0.44142500  0.71075600  0.92317900  1
  H  H9  1  0.94679200  0.78924800  0.41908000  1
  H  H10  1  0.96796600  0.21079000  0.59260300  1
  H  H11  1  0.94925800  0.78798000  0.58489400  1
  H  H12  1  0.93349200  0.21028700  0.43038300  1
  H  H13  1  0.55377900  0.20911900  0.92398500  1
  H  H14  1  0.55144000  0.79053100  0.07966600  1
  H  H15  1  0.53048400  0.20945800  0.08960500  1
  H  H16  1  0.53463500  0.79099700  0.91325900  1
  H  H17  1  0.04114600  0.70988300  0.41644600  1
  H  H18  1  0.05987500  0.29107700  0.57348900  1
  H  H19  1  0.04350100  0.70840700  0.58367800  1
  H  H20  1  0.02519800  0.29009800  0.40986700  1
  H  H21  1  0.62288000  0.29616500  0.92992900  1
  H  H22  1  0.64727800  0.22841500  0.96840000  1
  H  H23  1  0.69009700  0.36246800  0.98042800  1
  H  H24  1  0.72492700  0.29916600  0.94613200  1
  H  H25  1  0.67719300  0.36260600  0.07247700  1
  H  H26  1  0.70123700  0.29942700  0.11517800  1
  H  H27  1  0.59864900  0.29642900  0.10272300  1
  H  H28  1  0.63265700  0.22857200  0.07261000  1
  H  H29  1  0.62172300  0.70469800  0.07596400  1
  H  H30  1  0.64680100  0.77284600  0.03852100  1
  H  H31  1  0.69143700  0.63937000  0.02789200  1
  H  H32  1  0.72432700  0.70304800  0.06350100  1
  H  H33  1  0.68188200  0.63923700  0.93543600  1
  H  H34  1  0.70683700  0.70277700  0.89370300  1
  H  H35  1  0.60385000  0.70453800  0.90239700  1
  H  H36  1  0.63607300  0.77272300  0.93384400  1
  H  H37  1  0.11121700  0.79572600  0.41259700  1
  H  H38  1  0.14068800  0.72785600  0.44712900  1
  H  H39  1  0.18531400  0.86173100  0.45264900  1
  H  H40  1  0.21457600  0.79822100  0.41378400  1
  H  H41  1  0.18586000  0.86206100  0.54559400  1
  H  H42  1  0.21571200  0.79888700  0.58447600  1
  H  H43  1  0.11243000  0.79609600  0.58707800  1
  H  H44  1  0.14158200  0.72815800  0.55235200  1
  H  H45  1  0.12904100  0.20467500  0.56292000  1
  H  H46  1  0.15021600  0.27251900  0.52271600  1
  H  H47  1  0.19310300  0.13881600  0.50804600  1
  H  H48  1  0.22974200  0.20254100  0.53971500  1
  H  H49  1  0.17386300  0.13826100  0.41711100  1
  H  H50  1  0.19443500  0.20150600  0.37271000  1
  H  H51  1  0.09293100  0.20364800  0.39221500  1
  H  H52  1  0.12843800  0.27189700  0.41976300  1
  C  C1  1  0.49964800  0.49982600  0.89075400  1
  C  C2  1  0.49605300  0.49971100  0.11003800  1
  C  C3  1  0.99846200  0.99961100  0.39187600  1
  C  C4  1  0.99731700  0.99986900  0.61118800  1
  C  C5  1  0.49664600  0.37843500  0.00030100  1
  C  C6  1  0.49876500  0.62111100  0.00053700  1
  C  C7  1  0.99661400  0.87839800  0.50158800  1
  C  C8  1  0.99887100  0.12107300  0.50148100  1
  C  C9  1  0.47663200  0.27004000  0.95158000  1
  C  C10  1  0.47595900  0.72905400  0.04877100  1
  C  C11  1  0.46397100  0.27006700  0.04161100  1
  C  C12  1  0.46683700  0.72936200  0.95832400  1
  C  C13  1  0.96923100  0.77039900  0.45609400  1
  C  C14  1  0.98146500  0.22938000  0.55138200  1
  C  C15  1  0.97057400  0.76971800  0.54698800  1
  C  C16  1  0.96260500  0.22907300  0.46244500  1
  C  C17  1  0.44428700  0.22978200  0.99291100  1
  C  C18  1  0.44490500  0.76919800  0.00635000  1
  C  C19  1  0.94355400  0.72983500  0.50168600  1
  C  C20  1  0.94604800  0.26928100  0.51235200  1
  C  C21  1  0.49578500  0.18993400  0.00021400  1
  C  C22  1  0.49631000  0.80960800  0.00126200  1
  C  C23  1  0.99549200  0.68988500  0.50063600  1
  C  C24  1  0.99662800  0.30955900  0.50145100  1
  C  C25  1  0.52829900  0.22887600  0.95857300  1
  C  C26  1  0.52749700  0.77078400  0.04399300  1
  C  C27  1  0.51550400  0.22890000  0.04921700  1
  C  C28  1  0.51828300  0.77110200  0.95292900  1
  C  C29  1  0.02126800  0.72914600  0.45473700  1
  C  C30  1  0.03222600  0.27097800  0.54077800  1
  C  C31  1  0.02260500  0.72842500  0.54625600  1
  C  C32  1  0.01318900  0.27066900  0.45124000  1
  C  C33  1  0.54664100  0.26866200  0.00734600  1
  C  C34  1  0.54809400  0.73144900  0.99581400  1
  C  C35  1  0.04699300  0.76850400  0.50039200  1
  C  C36  1  0.04743500  0.23126000  0.49090000  1
  C  C37  1  0.49634400  0.30942100  0.00024700  1
  C  C38  1  0.49791200  0.69012500  0.00076500  1
  C  C39  1  0.99627500  0.80937800  0.50138900  1
  C  C40  1  0.99804600  0.19008000  0.50150800  1
  C  C41  1  0.49963400  0.49972100  0.83058000  1
  C  C42  1  0.49577000  0.49983600  0.17021500  1
  C  C43  1  0.99778600  0.99946400  0.33170100  1
  C  C44  1  0.99769000  0.00005500  0.67135400  1
  C  C45  1  0.49918300  0.49956600  0.78003700  1
  C  C46  1  0.49534600  0.49999700  0.22076100  1
  C  C47  1  0.99707800  0.99930600  0.28115900  1
  C  C48  1  0.99750600  0.00023300  0.72189400  1
  C  C49  1  0.49833100  0.49931800  0.72081700  1
  C  C50  1  0.49479800  0.50024300  0.27998800  1
  C  C51  1  0.99621900  0.99908600  0.22193500  1
  C  C52  1  0.99693500  0.00046700  0.78111000  1
  C  C53  1  0.49750900  0.49906200  0.67027700  1
  C  C54  1  0.49444900  0.50049200  0.33053600  1
  C  C55  1  0.99559900  0.99887500  0.17139000  1
  C  C56  1  0.99635700  0.00068600  0.83164900  1
  C  C57  1  0.38565000  0.99962500  0.00030000  1
  C  C58  1  0.88566300  0.49940600  0.50049000  1
  C  C59  1  0.49524000  0.12106700  0.99990000  1
  C  C60  1  0.49534400  0.87847000  0.00167200  1
  C  C61  1  0.99492800  0.62101900  0.50018300  1
  C  C62  1  0.99569100  0.37842100  0.50179300  1
  C  C63  1  0.60496900  0.99992400  0.00128500  1
  C  C64  1  0.10499300  0.50003200  0.50147300  1
  C  C65  1  0.38573500  0.50091900  0.50167700  1
  C  C66  1  0.88571400  0.99891900  0.00108400  1
  C  C67  1  0.49660400  0.49871700  0.61010600  1
  C  C68  1  0.49435400  0.50082500  0.39071900  1
  C  C69  1  0.99515200  0.99860500  0.11120800  1
  C  C70  1  0.99578100  0.00096800  0.89181800  1
  C  C71  1  0.60504600  0.49851400  0.49918300  1
  C  C72  1  0.10503700  0.00076200  0.00189000  1
  C  C73  1  0.32549000  0.99970500  0.00089700  1
  C  C74  1  0.82550800  0.49925600  0.49939500  1
  C  C75  1  0.27495300  0.99985800  0.00130300  1
  C  C76  1  0.77497000  0.49911000  0.49888200  1
  C  C77  1  0.71575400  0.49891900  0.49868100  1
  C  C78  1  0.21574100  0.00011900  0.00165500  1
  C  C79  1  0.66521300  0.49874000  0.49878600  1
  C  C80  1  0.16520200  0.00039300  0.00183600  1
  C  C81  1  0.66515900  0.99987500  0.00077000  1
  C  C82  1  0.16517800  0.50018000  0.50249800  1
  C  C83  1  0.71571600  0.99975000  0.00060600  1
  C  C84  1  0.21573500  0.50032800  0.50281300  1
  C  C85  1  0.27498000  0.50052100  0.50269800  1
  C  C86  1  0.77495900  0.99952300  0.00064800  1
  C  C87  1  0.32553800  0.50069800  0.50232300  1
  C  C88  1  0.82551700  0.99927300  0.00081100  1
  C  C89  1  0.64027600  0.27927200  0.97029400  1
  C  C90  1  0.69578100  0.31138300  0.98066600  1
  C  C91  1  0.68270600  0.31152300  0.07393900  1
  C  C92  1  0.62646900  0.27942000  0.06874300  1
  C  C93  1  0.64040800  0.72190800  0.03629200  1
  C  C94  1  0.69659100  0.69052400  0.02791500  1
  C  C95  1  0.68693500  0.69038600  0.93422800  1
  C  C96  1  0.63023500  0.72179700  0.93740300  1
  C  C97  1  0.13424600  0.77874700  0.44999900  1
  C  C98  1  0.19079400  0.81062100  0.45215600  1
  C  C99  1  0.19141600  0.81096500  0.54633800  1
  C  C100  1  0.13496600  0.77901600  0.54940700  1
  C  C101  1  0.14347800  0.22159600  0.52141400  1
  C  C102  1  0.19837300  0.18994900  0.50730300  1
  C  C103  1  0.17888500  0.18938500  0.41515800  1
  C  C104  1  0.12290700  0.22100900  0.42415400  1
  N  N1  1  0.60228800  0.29384100  0.01514600  1
  N  N2  1  0.60424300  0.70696500  0.99005600  1
  N  N3  1  0.10325500  0.79348500  0.49989500  1
  N  N4  1  0.10259200  0.20654600  0.47932300  1
  O  O1  1  0.54805200  0.50120100  0.91691400  1
  O  O2  1  0.54462000  0.50132000  0.08414200  1
  O  O3  1  0.04717800  0.00106300  0.41742200  1
  O  O4  1  0.04555900  0.00139200  0.58467900  1
  O  O5  1  0.45111100  0.49849200  0.91666500  1
  O  O6  1  0.44768900  0.49807300  0.08386100  1
  O  O7  1  0.95025300  0.99828800  0.41840800  1
  O  O8  1  0.94864100  0.99822100  0.58563300  1
  O  O9  1  0.54514200  0.40717300  0.99948500  1
  O  O10  1  0.54745400  0.59285300  0.99939600  1
  O  O11  1  0.04510100  0.90712500  0.50000600  1
  O  O12  1  0.04754000  0.09280500  0.49970900  1
  O  O13  1  0.44823300  0.40738900  0.00109500  1
  O  O14  1  0.45056500  0.59166600  0.00155500  1
  O  O15  1  0.94822600  0.90737300  0.50315300  1
  O  O16  1  0.95067700  0.09165200  0.50326300  1
  O  O17  1  0.41218000  0.99827600  0.04852000  1
  O  O18  1  0.41116800  0.00109200  0.95157700  1
  O  O19  1  0.91069100  0.49790600  0.54945300  1
  O  O20  1  0.91268500  0.50098500  0.45254100  1
  O  O21  1  0.49710700  0.09197500  0.04821300  1
  O  O22  1  0.49387100  0.90756300  0.95334900  1
  O  O23  1  0.49337500  0.09264700  0.95129800  1
  O  O24  1  0.49689600  0.90689000  0.05028900  1
  O  O25  1  0.99288600  0.59188700  0.54847000  1
  O  O26  1  0.99794900  0.40755800  0.45351700  1
  O  O27  1  0.99727000  0.59264200  0.45157400  1
  O  O28  1  0.99320700  0.40679500  0.55039400  1
  O  O29  1  0.57943100  0.99810100  0.04999000  1
  O  O30  1  0.57842600  0.00161000  0.95306400  1
  O  O31  1  0.07795800  0.49828200  0.54942600  1
  O  O32  1  0.07994400  0.50171000  0.45252500  1
  O  O33  1  0.41196300  0.44737600  0.50270400  1
  O  O34  1  0.41159800  0.55462300  0.49994700  1
  O  O35  1  0.91148200  0.94515000  0.00255400  1
  O  O36  1  0.91203600  0.05240100  0.99989500  1
  O  O37  1  0.49738200  0.44495600  0.58431600  1
  O  O38  1  0.49313500  0.55457400  0.41650700  1
  O  O39  1  0.49562000  0.44734200  0.41701400  1
  O  O40  1  0.49491800  0.55219500  0.58382600  1
  O  O41  1  0.99364300  0.94488900  0.08537900  1
  O  O42  1  0.99684300  0.05469700  0.91764700  1
  O  O43  1  0.99417800  0.94746200  0.91805500  1
  O  O44  1  0.99633000  0.05211400  0.08495400  1
  O  O45  1  0.57919900  0.44481900  0.50089900  1
  O  O46  1  0.57883400  0.55204600  0.49813100  1
  O  O47  1  0.07873000  0.94729200  0.00311100  1
  O  O48  1  0.07928600  0.05452200  0.00044100  1
  O  O49  1  0.71894800  0.29140100  0.03148900  1
  O  O50  1  0.72139400  0.71088200  0.97799300  1
  O  O51  1  0.22104600  0.79063700  0.49911200  1
  O  O52  1  0.21782400  0.20996800  0.45495700  1
