# generated using pymatgen
data_Cu3H40C44(NO3)4
_symmetry_space_group_name_H-M   'P 1'
_cell_length_a   21.53965600
_cell_length_b   21.53965600
_cell_length_c   38.37328000
_cell_angle_alpha   90.00000000
_cell_angle_beta   90.00000000
_cell_angle_gamma   90.00000000
_symmetry_Int_Tables_number   1
_chemical_formula_structural   Cu3H40C44(NO3)4
_chemical_formula_sum   'Cu12 H160 C176 N16 O48'
_cell_volume   17803.54344980
_cell_formula_units_Z   4
loop_
 _symmetry_equiv_pos_site_id
 _symmetry_equiv_pos_as_xyz
  1  'x, y, z'
loop_
 _atom_site_type_symbol
 _atom_site_label
 _atom_site_symmetry_multiplicity
 _atom_site_fract_x
 _atom_site_fract_y
 _atom_site_fract_z
 _atom_site_occupancy
  Cu  Cu1  1  0.43930000  0.00000000  0.00000000  1
  Cu  Cu2  1  0.00000000  0.43930000  0.00000000  1
  Cu  Cu3  1  0.56070000  0.00000000  0.00000000  1
  Cu  Cu4  1  0.00000000  0.56070000  0.00000000  1
  Cu  Cu5  1  0.93930000  0.50000000  0.50000000  1
  Cu  Cu6  1  0.50000000  0.93930000  0.50000000  1
  Cu  Cu7  1  0.06070000  0.50000000  0.50000000  1
  Cu  Cu8  1  0.50000000  0.06070000  0.50000000  1
  Cu  Cu9  1  0.50000000  0.50000000  0.03409200  1
  Cu  Cu10  1  0.50000000  0.50000000  0.96590800  1
  Cu  Cu11  1  0.00000000  0.00000000  0.53409200  1
  Cu  Cu12  1  0.00000000  0.00000000  0.46590800  1
  H  H1  1  0.56947300  0.92928400  0.82768700  1
  H  H2  1  0.07071600  0.56947300  0.82768700  1
  H  H3  1  0.43052700  0.07071600  0.82768700  1
  H  H4  1  0.92928400  0.43052700  0.82768700  1
  H  H5  1  0.56947300  0.07071600  0.17231300  1
  H  H6  1  0.07071600  0.43052700  0.17231300  1
  H  H7  1  0.43052700  0.92928400  0.17231300  1
  H  H8  1  0.92928400  0.56947300  0.17231300  1
  H  H9  1  0.06947300  0.42928400  0.32768700  1
  H  H10  1  0.57071600  0.06947300  0.32768700  1
  H  H11  1  0.93052700  0.57071600  0.32768700  1
  H  H12  1  0.42928400  0.93052700  0.32768700  1
  H  H13  1  0.06947300  0.57071600  0.67231300  1
  H  H14  1  0.57071600  0.93052700  0.67231300  1
  H  H15  1  0.93052700  0.42928400  0.67231300  1
  H  H16  1  0.42928400  0.06947300  0.67231300  1
  H  H17  1  0.57294000  0.90957500  0.92291300  1
  H  H18  1  0.57108600  0.86713500  0.88306700  1
  H  H19  1  0.62932300  0.92610800  0.88950500  1
  H  H20  1  0.09042500  0.57294000  0.92291300  1
  H  H21  1  0.13286500  0.57108600  0.88306700  1
  H  H22  1  0.07389200  0.62932300  0.88950500  1
  H  H23  1  0.42706000  0.09042500  0.92291300  1
  H  H24  1  0.42891400  0.13286500  0.88306700  1
  H  H25  1  0.37067700  0.07389200  0.88950500  1
  H  H26  1  0.90957500  0.42706000  0.92291300  1
  H  H27  1  0.86713500  0.42891400  0.88306700  1
  H  H28  1  0.92610800  0.37067700  0.88950500  1
  H  H29  1  0.57294000  0.09042500  0.07708700  1
  H  H30  1  0.57108600  0.13286500  0.11693300  1
  H  H31  1  0.62932300  0.07389200  0.11049500  1
  H  H32  1  0.09042500  0.42706000  0.07708700  1
  H  H33  1  0.13286500  0.42891400  0.11693300  1
  H  H34  1  0.07389200  0.37067700  0.11049500  1
  H  H35  1  0.42706000  0.90957500  0.07708700  1
  H  H36  1  0.42891400  0.86713500  0.11693300  1
  H  H37  1  0.37067700  0.92610800  0.11049500  1
  H  H38  1  0.90957500  0.57294000  0.07708700  1
  H  H39  1  0.86713500  0.57108600  0.11693300  1
  H  H40  1  0.92610800  0.62932300  0.11049500  1
  H  H41  1  0.07294000  0.40957500  0.42291300  1
  H  H42  1  0.07108600  0.36713500  0.38306700  1
  H  H43  1  0.12932300  0.42610800  0.38950500  1
  H  H44  1  0.59042500  0.07294000  0.42291300  1
  H  H45  1  0.63286500  0.07108600  0.38306700  1
  H  H46  1  0.57389200  0.12932300  0.38950500  1
  H  H47  1  0.92706000  0.59042500  0.42291300  1
  H  H48  1  0.92891400  0.63286500  0.38306700  1
  H  H49  1  0.87067700  0.57389200  0.38950500  1
  H  H50  1  0.40957500  0.92706000  0.42291300  1
  H  H51  1  0.36713500  0.92891400  0.38306700  1
  H  H52  1  0.42610800  0.87067700  0.38950500  1
  H  H53  1  0.07294000  0.59042500  0.57708700  1
  H  H54  1  0.07108600  0.63286500  0.61693300  1
  H  H55  1  0.12932300  0.57389200  0.61049500  1
  H  H56  1  0.59042500  0.92706000  0.57708700  1
  H  H57  1  0.63286500  0.92891400  0.61693300  1
  H  H58  1  0.57389200  0.87067700  0.61049500  1
  H  H59  1  0.92706000  0.40957500  0.57708700  1
  H  H60  1  0.92891400  0.36713500  0.61693300  1
  H  H61  1  0.87067700  0.42610800  0.61049500  1
  H  H62  1  0.40957500  0.07294000  0.57708700  1
  H  H63  1  0.36713500  0.07108600  0.61693300  1
  H  H64  1  0.42610800  0.12932300  0.61049500  1
  H  H65  1  0.58581600  0.79108100  0.07374800  1
  H  H66  1  0.60731700  0.84538500  0.04027800  1
  H  H67  1  0.53519200  0.85302200  0.06421300  1
  H  H68  1  0.20891900  0.58581600  0.07374700  1
  H  H69  1  0.15461500  0.60731700  0.04027800  1
  H  H70  1  0.14697800  0.53519200  0.06421300  1
  H  H71  1  0.41418400  0.20891900  0.07374800  1
  H  H72  1  0.39268300  0.15461500  0.04027800  1
  H  H73  1  0.46480800  0.14697800  0.06421300  1
  H  H74  1  0.79108100  0.41418400  0.07374800  1
  H  H75  1  0.84538500  0.39268300  0.04027800  1
  H  H76  1  0.85302200  0.46480800  0.06421300  1
  H  H77  1  0.58581600  0.20891900  0.92625300  1
  H  H78  1  0.60731700  0.15461500  0.95972200  1
  H  H79  1  0.53519200  0.14697800  0.93578700  1
  H  H80  1  0.20891900  0.41418400  0.92625300  1
  H  H81  1  0.15461500  0.39268300  0.95972200  1
  H  H82  1  0.14697800  0.46480800  0.93578700  1
  H  H83  1  0.41418400  0.79108100  0.92625300  1
  H  H84  1  0.39268300  0.84538500  0.95972200  1
  H  H85  1  0.46480800  0.85302200  0.93578700  1
  H  H86  1  0.79108100  0.58581600  0.92625300  1
  H  H87  1  0.84538500  0.60731700  0.95972200  1
  H  H88  1  0.85302200  0.53519200  0.93578700  1
  H  H89  1  0.08581600  0.29108100  0.57374700  1
  H  H90  1  0.10731700  0.34538500  0.54027800  1
  H  H91  1  0.03519200  0.35302200  0.56421300  1
  H  H92  1  0.70891900  0.08581600  0.57374700  1
  H  H93  1  0.65461500  0.10731700  0.54027800  1
  H  H94  1  0.64697800  0.03519200  0.56421300  1
  H  H95  1  0.91418400  0.70891900  0.57374800  1
  H  H96  1  0.89268300  0.65461500  0.54027800  1
  H  H97  1  0.96480800  0.64697800  0.56421300  1
  H  H98  1  0.29108100  0.91418400  0.57374800  1
  H  H99  1  0.34538500  0.89268300  0.54027800  1
  H  H100  1  0.35302200  0.96480800  0.56421300  1
  H  H101  1  0.08581600  0.70891900  0.42625300  1
  H  H102  1  0.10731700  0.65461500  0.45972200  1
  H  H103  1  0.03519200  0.64697800  0.43578700  1
  H  H104  1  0.70891900  0.91418400  0.42625300  1
  H  H105  1  0.65461500  0.89268300  0.45972200  1
  H  H106  1  0.64697800  0.96480800  0.43578700  1
  H  H107  1  0.91418400  0.29108100  0.42625300  1
  H  H108  1  0.89268300  0.34538500  0.45972200  1
  H  H109  1  0.96480800  0.35302200  0.43578700  1
  H  H110  1  0.29108100  0.08581600  0.42625300  1
  H  H111  1  0.34538500  0.10731700  0.45972200  1
  H  H112  1  0.35302200  0.03519200  0.43578700  1
  H  H113  1  0.62968100  0.70917900  0.04439700  1
  H  H114  1  0.56767500  0.68176800  0.07255600  1
  H  H115  1  0.59494600  0.63717900  0.03582700  1
  H  H116  1  0.29082100  0.62968000  0.04439700  1
  H  H117  1  0.31823200  0.56767500  0.07255600  1
  H  H118  1  0.36282100  0.59494600  0.03582700  1
  H  H119  1  0.37032000  0.29082100  0.04439700  1
  H  H120  1  0.43232500  0.31823200  0.07255600  1
  H  H121  1  0.40505400  0.36282100  0.03582700  1
  H  H122  1  0.70917900  0.37031900  0.04439700  1
  H  H123  1  0.68176800  0.43232500  0.07255600  1
  H  H124  1  0.63717900  0.40505400  0.03582700  1
  H  H125  1  0.62968100  0.29082100  0.95560300  1
  H  H126  1  0.56767500  0.31823200  0.92744400  1
  H  H127  1  0.59494600  0.36282100  0.96417300  1
  H  H128  1  0.29082100  0.37031900  0.95560300  1
  H  H129  1  0.31823200  0.43232500  0.92744400  1
  H  H130  1  0.36282100  0.40505400  0.96417300  1
  H  H131  1  0.37032000  0.70917900  0.95560300  1
  H  H132  1  0.43232500  0.68176800  0.92744400  1
  H  H133  1  0.40505400  0.63717900  0.96417300  1
  H  H134  1  0.70917900  0.62968000  0.95560300  1
  H  H135  1  0.68176800  0.56767500  0.92744400  1
  H  H136  1  0.63717900  0.59494600  0.96417300  1
  H  H137  1  0.12968100  0.20917900  0.54439700  1
  H  H138  1  0.06767500  0.18176800  0.57255600  1
  H  H139  1  0.09494600  0.13717900  0.53582700  1
  H  H140  1  0.79082100  0.12968100  0.54439700  1
  H  H141  1  0.81823200  0.06767500  0.57255600  1
  H  H142  1  0.86282100  0.09494600  0.53582700  1
  H  H143  1  0.87032000  0.79082100  0.54439700  1
  H  H144  1  0.93232500  0.81823200  0.57255600  1
  H  H145  1  0.90505400  0.86282100  0.53582700  1
  H  H146  1  0.20917900  0.87031900  0.54439700  1
  H  H147  1  0.18176800  0.93232500  0.57255600  1
  H  H148  1  0.13717900  0.90505400  0.53582700  1
  H  H149  1  0.12968100  0.79082100  0.45560300  1
  H  H150  1  0.06767500  0.81823200  0.42744400  1
  H  H151  1  0.09494600  0.86282100  0.46417300  1
  H  H152  1  0.79082100  0.87031900  0.45560300  1
  H  H153  1  0.81823200  0.93232500  0.42744400  1
  H  H154  1  0.86282100  0.90505400  0.46417300  1
  H  H155  1  0.87032000  0.20917900  0.45560300  1
  H  H156  1  0.93232500  0.18176800  0.42744400  1
  H  H157  1  0.90505400  0.13717900  0.46417300  1
  H  H158  1  0.20917900  0.12968100  0.45560300  1
  H  H159  1  0.18176800  0.06767500  0.42744400  1
  H  H160  1  0.13717900  0.09494600  0.46417300  1
  C  C1  1  0.50000000  0.88239700  0.00000000  1
  C  C2  1  0.11760300  0.50000000  0.00000000  1
  C  C3  1  0.50000000  0.11760300  0.00000000  1
  C  C4  1  0.88239700  0.50000000  0.00000000  1
  C  C5  1  0.00000000  0.38239700  0.50000000  1
  C  C6  1  0.61760300  0.00000000  0.50000000  1
  C  C7  1  0.00000000  0.61760300  0.50000000  1
  C  C8  1  0.38239700  0.00000000  0.50000000  1
  C  C9  1  0.50000000  0.00000000  0.93380500  1
  C  C10  1  0.00000000  0.50000000  0.93380500  1
  C  C11  1  0.50000000  0.00000000  0.06619500  1
  C  C12  1  0.00000000  0.50000000  0.06619500  1
  C  C13  1  0.00000000  0.50000000  0.43380500  1
  C  C14  1  0.50000000  0.00000000  0.43380500  1
  C  C15  1  0.00000000  0.50000000  0.56619500  1
  C  C16  1  0.50000000  0.00000000  0.56619500  1
  C  C17  1  0.53883000  0.95997500  0.87723000  1
  C  C18  1  0.04002500  0.53883000  0.87723000  1
  C  C19  1  0.46117000  0.04002500  0.87723000  1
  C  C20  1  0.95997500  0.46117000  0.87723000  1
  C  C21  1  0.53883000  0.04002500  0.12277000  1
  C  C22  1  0.04002500  0.46117000  0.12277000  1
  C  C23  1  0.46117000  0.95997500  0.12277000  1
  C  C24  1  0.95997500  0.53883000  0.12277000  1
  C  C25  1  0.03883000  0.45997500  0.37723000  1
  C  C26  1  0.54002500  0.03883000  0.37723000  1
  C  C27  1  0.96117000  0.54002500  0.37723000  1
  C  C28  1  0.45997500  0.96117000  0.37723000  1
  C  C29  1  0.03883000  0.54002500  0.62277000  1
  C  C30  1  0.54002500  0.96117000  0.62277000  1
  C  C31  1  0.96117000  0.45997500  0.62277000  1
  C  C32  1  0.45997500  0.03883000  0.62277000  1
  C  C33  1  0.53887900  0.96075700  0.84130200  1
  C  C34  1  0.03924300  0.53887900  0.84130200  1
  C  C35  1  0.46112100  0.03924300  0.84130200  1
  C  C36  1  0.96075700  0.46112100  0.84130200  1
  C  C37  1  0.53887900  0.03924300  0.15869800  1
  C  C38  1  0.03924300  0.46112100  0.15869800  1
  C  C39  1  0.46112100  0.96075700  0.15869800  1
  C  C40  1  0.96075700  0.53887900  0.15869800  1
  C  C41  1  0.03887900  0.46075700  0.34130200  1
  C  C42  1  0.53924300  0.03887900  0.34130200  1
  C  C43  1  0.96112100  0.53924300  0.34130200  1
  C  C44  1  0.46075700  0.96112100  0.34130200  1
  C  C45  1  0.03887900  0.53924300  0.65869800  1
  C  C46  1  0.53924300  0.96112100  0.65869800  1
  C  C47  1  0.96112100  0.46075700  0.65869800  1
  C  C48  1  0.46075700  0.03887900  0.65869800  1
  C  C49  1  0.50000000  0.00000000  0.82312800  1
  C  C50  1  0.00000000  0.50000000  0.82312800  1
  C  C51  1  0.50000000  0.00000000  0.17687200  1
  C  C52  1  0.00000000  0.50000000  0.17687200  1
  C  C53  1  0.00000000  0.50000000  0.32312800  1
  C  C54  1  0.50000000  0.00000000  0.32312800  1
  C  C55  1  0.00000000  0.50000000  0.67687200  1
  C  C56  1  0.50000000  0.00000000  0.67687200  1
  C  C57  1  0.50000000  0.00000000  0.89561300  1
  C  C58  1  0.00000000  0.50000000  0.89561300  1
  C  C59  1  0.50000000  0.00000000  0.10438700  1
  C  C60  1  0.00000000  0.50000000  0.10438700  1
  C  C61  1  0.00000000  0.50000000  0.39561300  1
  C  C62  1  0.50000000  0.00000000  0.39561300  1
  C  C63  1  0.00000000  0.50000000  0.60438700  1
  C  C64  1  0.50000000  0.00000000  0.60438700  1
  C  C65  1  0.50000000  0.00000000  0.71512600  1
  C  C66  1  0.00000000  0.50000000  0.71512600  1
  C  C67  1  0.50000000  0.00000000  0.28487400  1
  C  C68  1  0.00000000  0.50000000  0.28487400  1
  C  C69  1  0.00000000  0.50000000  0.21512600  1
  C  C70  1  0.50000000  0.00000000  0.21512600  1
  C  C71  1  0.00000000  0.50000000  0.78487400  1
  C  C72  1  0.50000000  0.00000000  0.78487400  1
  C  C73  1  0.53480200  0.78277300  0.02452600  1
  C  C74  1  0.21722700  0.53480200  0.02452600  1
  C  C75  1  0.46519800  0.21722700  0.02452600  1
  C  C76  1  0.78277300  0.46519800  0.02452600  1
  C  C77  1  0.53480200  0.21722700  0.97547400  1
  C  C78  1  0.21722700  0.46519800  0.97547400  1
  C  C79  1  0.46519800  0.78277300  0.97547400  1
  C  C80  1  0.78277300  0.53480200  0.97547400  1
  C  C81  1  0.03480200  0.28277300  0.52452600  1
  C  C82  1  0.71722700  0.03480200  0.52452600  1
  C  C83  1  0.96519800  0.71722700  0.52452600  1
  C  C84  1  0.28277300  0.96519800  0.52452600  1
  C  C85  1  0.03480200  0.71722700  0.47547400  1
  C  C86  1  0.71722700  0.96519800  0.47547400  1
  C  C87  1  0.96519800  0.28277300  0.47547400  1
  C  C88  1  0.28277300  0.03480200  0.47547400  1
  C  C89  1  0.53802900  0.71829000  0.02314300  1
  C  C90  1  0.28171100  0.53802900  0.02314300  1
  C  C91  1  0.46197100  0.28171000  0.02314300  1
  C  C92  1  0.71829000  0.46197100  0.02314300  1
  C  C93  1  0.53802900  0.28171000  0.97685700  1
  C  C94  1  0.28171100  0.46197100  0.97685700  1
  C  C95  1  0.46197100  0.71829000  0.97685700  1
  C  C96  1  0.71829000  0.53802900  0.97685700  1
  C  C97  1  0.03802900  0.21829000  0.52314300  1
  C  C98  1  0.78171000  0.03802900  0.52314300  1
  C  C99  1  0.96197100  0.78171000  0.52314300  1
  C  C100  1  0.21829000  0.96197100  0.52314300  1
  C  C101  1  0.03802900  0.78171000  0.47685700  1
  C  C102  1  0.78171000  0.96197100  0.47685700  1
  C  C103  1  0.96197100  0.21829000  0.47685700  1
  C  C104  1  0.21829000  0.03802900  0.47685700  1
  C  C105  1  0.50000000  0.68603200  0.00000000  1
  C  C106  1  0.31396800  0.50000000  0.00000000  1
  C  C107  1  0.50000000  0.31396800  0.00000000  1
  C  C108  1  0.68603200  0.50000000  0.00000000  1
  C  C109  1  0.00000000  0.18603200  0.50000000  1
  C  C110  1  0.81396800  0.00000000  0.50000000  1
  C  C111  1  0.00000000  0.81396800  0.50000000  1
  C  C112  1  0.18603200  0.00000000  0.50000000  1
  C  C113  1  0.50000000  0.81447900  0.00000000  1
  C  C114  1  0.18552100  0.50000000  0.00000000  1
  C  C115  1  0.50000000  0.18552100  0.00000000  1
  C  C116  1  0.81447900  0.50000000  0.00000000  1
  C  C117  1  0.00000000  0.31447900  0.50000000  1
  C  C118  1  0.68552100  0.00000000  0.50000000  1
  C  C119  1  0.00000000  0.68552100  0.50000000  1
  C  C120  1  0.31447900  0.00000000  0.50000000  1
  C  C121  1  0.38209600  0.50000000  0.00000000  1
  C  C122  1  0.50000000  0.38209600  0.00000000  1
  C  C123  1  0.61790400  0.50000000  0.00000000  1
  C  C124  1  0.50000000  0.61790400  0.00000000  1
  C  C125  1  0.88209600  0.00000000  0.50000000  1
  C  C126  1  0.00000000  0.88209600  0.50000000  1
  C  C127  1  0.11790400  0.00000000  0.50000000  1
  C  C128  1  0.00000000  0.11790400  0.50000000  1
  C  C129  1  0.58022800  0.91349500  0.89453900  1
  C  C130  1  0.08650500  0.58022800  0.89453900  1
  C  C131  1  0.41977200  0.08650500  0.89453900  1
  C  C132  1  0.91349500  0.41977200  0.89453900  1
  C  C133  1  0.58022800  0.08650500  0.10546100  1
  C  C134  1  0.08650500  0.41977200  0.10546100  1
  C  C135  1  0.41977200  0.91349500  0.10546100  1
  C  C136  1  0.91349500  0.58022800  0.10546100  1
  C  C137  1  0.08022800  0.41349500  0.39453900  1
  C  C138  1  0.58650500  0.08022800  0.39453900  1
  C  C139  1  0.91977200  0.58650500  0.39453900  1
  C  C140  1  0.41349500  0.91977200  0.39453900  1
  C  C141  1  0.08022800  0.58650500  0.60546100  1
  C  C142  1  0.58650500  0.91977200  0.60546100  1
  C  C143  1  0.91977200  0.41349500  0.60546100  1
  C  C144  1  0.41349500  0.08022800  0.60546100  1
  C  C145  1  0.56795000  0.81972600  0.05207300  1
  C  C146  1  0.18027400  0.56795000  0.05207300  1
  C  C147  1  0.43205000  0.18027400  0.05207300  1
  C  C148  1  0.81972600  0.43205000  0.05207300  1
  C  C149  1  0.56795000  0.18027400  0.94792700  1
  C  C150  1  0.18027400  0.43205000  0.94792700  1
  C  C151  1  0.43205000  0.81972600  0.94792700  1
  C  C152  1  0.81972600  0.56795000  0.94792700  1
  C  C153  1  0.06795000  0.31972600  0.55207300  1
  C  C154  1  0.68027400  0.06795000  0.55207300  1
  C  C155  1  0.93205000  0.68027400  0.55207300  1
  C  C156  1  0.31972600  0.93205000  0.55207300  1
  C  C157  1  0.06795000  0.68027400  0.44792700  1
  C  C158  1  0.68027400  0.93205000  0.44792700  1
  C  C159  1  0.93205000  0.31972600  0.44792700  1
  C  C160  1  0.31972600  0.06795000  0.44792700  1
  C  C161  1  0.58456600  0.68443700  0.04529300  1
  C  C162  1  0.31556300  0.58456600  0.04529300  1
  C  C163  1  0.41543400  0.31556300  0.04529300  1
  C  C164  1  0.68443700  0.41543400  0.04529300  1
  C  C165  1  0.58456600  0.31556300  0.95470700  1
  C  C166  1  0.31556300  0.41543400  0.95470700  1
  C  C167  1  0.41543400  0.68443700  0.95470700  1
  C  C168  1  0.68443700  0.58456600  0.95470700  1
  C  C169  1  0.08456600  0.18443700  0.54529300  1
  C  C170  1  0.81556300  0.08456600  0.54529300  1
  C  C171  1  0.91543400  0.81556300  0.54529300  1
  C  C172  1  0.18443700  0.91543400  0.54529300  1
  C  C173  1  0.08456600  0.81556300  0.45470700  1
  C  C174  1  0.81556300  0.91543400  0.45470700  1
  C  C175  1  0.91543400  0.18443700  0.45470700  1
  C  C176  1  0.18443700  0.08456600  0.45470700  1
  N  N1  1  0.46184800  0.03815300  0.76722100  1
  N  N2  1  0.96184700  0.46184700  0.76722100  1
  N  N3  1  0.53815300  0.96184700  0.76722100  1
  N  N4  1  0.03815300  0.53815200  0.76722100  1
  N  N5  1  0.46184800  0.96184700  0.23277900  1
  N  N6  1  0.96184700  0.53815200  0.23277900  1
  N  N7  1  0.53815300  0.03815300  0.23277900  1
  N  N8  1  0.03815300  0.46184700  0.23277900  1
  N  N9  1  0.96184800  0.53815300  0.26722100  1
  N  N10  1  0.46184700  0.96184700  0.26722100  1
  N  N11  1  0.03815300  0.46184700  0.26722100  1
  N  N12  1  0.53815300  0.03815200  0.26722100  1
  N  N13  1  0.96184800  0.46184700  0.73277900  1
  N  N14  1  0.46184700  0.03815200  0.73277900  1
  N  N15  1  0.03815300  0.53815300  0.73277900  1
  N  N16  1  0.53815300  0.96184700  0.73277900  1
  O  O1  1  0.44864400  0.91142500  0.00927000  1
  O  O2  1  0.08857500  0.44864300  0.00927000  1
  O  O3  1  0.55135700  0.08857500  0.00927000  1
  O  O4  1  0.91142500  0.55135600  0.00927000  1
  O  O5  1  0.44864400  0.08857500  0.99073000  1
  O  O6  1  0.08857500  0.55135600  0.99073000  1
  O  O7  1  0.55135700  0.91142500  0.99073000  1
  O  O8  1  0.91142500  0.44864300  0.99073000  1
  O  O9  1  0.94864400  0.41142500  0.50927000  1
  O  O10  1  0.58857500  0.94864300  0.50927000  1
  O  O11  1  0.05135700  0.58857500  0.50927000  1
  O  O12  1  0.41142500  0.05135600  0.50927000  1
  O  O13  1  0.94864400  0.58857500  0.49073000  1
  O  O14  1  0.58857500  0.05135600  0.49073000  1
  O  O15  1  0.05135700  0.41142500  0.49073000  1
  O  O16  1  0.41142500  0.94864300  0.49073000  1
  O  O17  1  0.44866400  0.98333800  0.95013000  1
  O  O18  1  0.01666200  0.44866400  0.95013000  1
  O  O19  1  0.55133600  0.01666200  0.95013000  1
  O  O20  1  0.98333800  0.55133600  0.95013000  1
  O  O21  1  0.44866400  0.01666200  0.04987000  1
  O  O22  1  0.01666200  0.55133600  0.04987000  1
  O  O23  1  0.55133600  0.98333800  0.04987000  1
  O  O24  1  0.98333800  0.44866400  0.04987000  1
  O  O25  1  0.94866400  0.48333800  0.45013000  1
  O  O26  1  0.51666200  0.94866400  0.45013000  1
  O  O27  1  0.05133600  0.51666200  0.45013000  1
  O  O28  1  0.48333800  0.05133600  0.45013000  1
  O  O29  1  0.94866400  0.51666200  0.54987000  1
  O  O30  1  0.51666200  0.05133600  0.54987000  1
  O  O31  1  0.05133600  0.48333800  0.54987000  1
  O  O32  1  0.48333800  0.94866400  0.54987000  1
  O  O33  1  0.41122300  0.48396900  0.02887700  1
  O  O34  1  0.51603100  0.41122300  0.02887700  1
  O  O35  1  0.58877700  0.51603000  0.02887700  1
  O  O36  1  0.48397000  0.58877700  0.02887700  1
  O  O37  1  0.41122300  0.51603000  0.97112300  1
  O  O38  1  0.51603100  0.58877700  0.97112300  1
  O  O39  1  0.58877700  0.48396900  0.97112300  1
  O  O40  1  0.48397000  0.41122300  0.97112300  1
  O  O41  1  0.91122300  0.98397000  0.52887700  1
  O  O42  1  0.01603000  0.91122300  0.52887700  1
  O  O43  1  0.08877700  0.01603000  0.52887700  1
  O  O44  1  0.98397000  0.08877700  0.52887700  1
  O  O45  1  0.91122300  0.01603000  0.47112300  1
  O  O46  1  0.01603000  0.08877700  0.47112300  1
  O  O47  1  0.08877700  0.98397000  0.47112300  1
  O  O48  1  0.98397000  0.91122300  0.47112300  1
