# Generated by REPEAT Assigner based on pymatgen
data_DB0-m29_o88_o420_f0_pts.sym.71
_audit_creation_date              2022-05-24
_audit_creation_method            REPEAT_Assigner
_cell_length_a                    15.447040
_cell_length_b                    11.908879
_cell_length_c                    13.672941
_cell_angle_alpha                 88.768718
_cell_angle_beta                  101.771447
_cell_angle_gamma                 107.219253
_cell_volume                      2349.934091
_symmetry_space_group_name_H-M    P1
_symmetry_Int_Tables_number       1
loop_
    _symmetry_equiv_pos_site_id
    _symmetry_equiv_pos_as_xyz
    1  x,y,z
loop_
    _atom_site_type_symbol
    _atom_site_label
    _atom_site_fract_x
    _atom_site_fract_y
    _atom_site_fract_z
    _atom_type_partial_charge
    C   C1   0.814391  0.029752  0.184807  0.466755
    C   C2   0.898415  0.035003  0.162461  -0.307741
    H   H1   0.959308  0.054322  0.222034  0.154039
    C   C3   0.904863  0.008986  0.067357  0.211900
    C   C4   0.826886  0.986677  0.991442  -0.231587
    H   H2   0.833130  0.975882  0.915360  0.154275
    C   C5   0.741357  0.981817  0.011583  0.094792
    C   C6   0.734062  0.997225  0.110395  -0.301931
    C   C7   0.996177  0.009290  0.050676  -0.137524
    C   C8   0.006717  0.946065  0.976540  -0.209401
    H   H3   0.056280  0.060489  0.103827  0.137153
    H   H4   0.946975  0.895183  0.922778  0.161139
    C   C9   0.108367  0.922723  0.867621  -0.158182
    H   H5   0.049656  0.906736  0.805614  0.123162
    C   C10  0.193896  0.927158  0.850212  -0.144944
    H   H6   0.201575  0.916752  0.774397  0.166833
    C   C11  0.270599  0.952649  0.927459  0.000496
    C   C12  0.260350  0.965458  0.025096  0.021434
    C   C13  0.173986  0.962301  0.041534  -0.183855
    H   H7   0.165098  0.970229  0.117025  0.144854
    C   C14  0.098563  0.945168  0.962484  0.216790
    O   O1   0.529551  0.141598  0.754027  -0.601091
    C   C15  0.459584  0.146377  0.682815  0.612277
    O   O2   0.423566  0.079520  0.928174  -0.479516
    O   O3   0.385025  0.055163  0.666553  -0.558565
    O   O4   0.376927  0.904870  0.840770  -0.554760
    C   C16  0.361363  0.977250  0.901343  0.651726
    Fe  Fe1  0.498056  0.980794  0.804746  1.447295
    O   O5   0.585166  0.985908  0.936515  -0.509043
    O   O6   0.673486  0.949113  0.835465  -0.523502
    C   C17  0.662542  0.967475  0.925787  0.561184
    O   O7   0.504593  0.887488  0.687451  -0.541826
    O   O8   0.475694  0.720356  0.776114  -0.481437
    C   C18  0.491663  0.773595  0.693716  0.589759
    O   O9   0.496895  0.054055  0.351105  -0.540026
    O   O10  0.512920  0.217898  0.258180  -0.496759
    C   C19  0.502350  0.166046  0.342457  0.629758
    O   O11  0.414948  0.958446  0.101481  -0.509966
    O   O12  0.324228  0.989645  0.202508  -0.523331
    C   C20  0.336971  0.975109  0.112242  0.556922
    O   O13  0.612471  0.891002  0.376918  -0.621170
    O   O14  0.623559  0.040399  0.195474  -0.555994
    C   C21  0.643067  0.968044  0.138137  0.709140
    O   O15  0.472526  0.800938  0.281663  -0.580066
    C   C22  0.540195  0.797430  0.356228  0.600246
    O   O16  0.583382  0.863834  0.112285  -0.504214
    Fe  Fe2  0.503081  0.962603  0.232385  1.415315
    C   C23  0.477699  0.221327  0.599137  0.120447
    C   C24  0.485275  0.339442  0.602102  -0.288701
    H   H8   0.481198  0.374452  0.672109  0.182591
    C   C25  0.495017  0.406034  0.517060  0.138735
    C   C26  0.500724  0.348187  0.430940  -0.188780
    H   H9   0.508784  0.391783  0.362455  0.124183
    C   C27  0.495535  0.229898  0.430252  0.040795
    C   C28  0.482333  0.167462  0.514191  -0.154071
    C   C29  0.512859  0.602553  0.434906  -0.276913
    H   H10  0.521499  0.569069  0.366432  0.172180
    C   C30  0.519484  0.720473  0.438092  0.139845
    C   C31  0.512987  0.773143  0.522670  -0.197158
    C   C32  0.497635  0.709711  0.605572  0.065338
    C   C33  0.490055  0.590831  0.603620  -0.188504
    H   H11  0.477481  0.545773  0.670435  0.124728
    C   C34  0.499094  0.534375  0.518467  0.118051
    H   H12  0.476073  0.074745  0.515772  0.141678
    H   H13  0.519535  0.865932  0.521551  0.176104
    N   N1   0.811531  0.043963  0.286362  -0.593984
    C   C35  0.819070  0.159045  0.320012  0.513670
    C   C36  0.786807  0.172432  0.404922  -0.311756
    C   C37  0.793450  0.282769  0.440399  -0.040925
    C   C38  0.832861  0.380987  0.391621  -0.091311
    C   C39  0.866068  0.368801  0.307592  -0.057789
    C   C40  0.859649  0.258608  0.271701  -0.245942
    H   H14  0.762069  0.978826  0.311949  0.352117
    H   H15  0.756385  0.096326  0.444623  0.195349
    H   H16  0.767867  0.292179  0.506747  0.106212
    H   H17  0.838167  0.467534  0.419515  0.108743
    H   H18  0.897603  0.446028  0.269719  0.119061
    H   H19  0.887655  0.253830  0.206308  0.125196
