# Generated by REPEAT Assigner based on pymatgen
data_DB0-m3_o3_o24_f0_pcu.sym.27
_audit_creation_date              2022-05-24
_audit_creation_method            REPEAT_Assigner
_cell_length_a                    19.342101
_cell_length_b                    18.377350
_cell_length_c                    10.756177
_cell_angle_alpha                 90.000000
_cell_angle_beta                  90.016650
_cell_angle_gamma                 90.000000
_cell_volume                      3823.353459
_symmetry_space_group_name_H-M    P1
_symmetry_Int_Tables_number       1
loop_
    _symmetry_equiv_pos_site_id
    _symmetry_equiv_pos_as_xyz
    1  x,y,z
loop_
    _atom_site_type_symbol
    _atom_site_label
    _atom_site_fract_x
    _atom_site_fract_y
    _atom_site_fract_z
    _atom_type_partial_charge
    O   O1   0.396671  0.568062  0.502880  -0.631164
    O   O2   0.603074  0.445236  0.474501  -0.599523
    O   O3   0.602100  0.571094  0.479261  -0.649460
    O   O4   0.397668  0.442243  0.498022  -0.680153
    C   C1   0.365085  0.504904  0.504167  0.774234
    C   C2   0.634711  0.508352  0.473897  0.704655
    O   O5   0.492814  0.570156  0.304608  -0.768471
    O   O6   0.506847  0.442995  0.672130  -0.759174
    O   O7   0.505412  0.569353  0.674518  -0.788376
    O   O8   0.494272  0.444092  0.302218  -0.790217
    C   C3   0.492199  0.507348  0.245758  0.836967
    C   C4   0.507564  0.505949  0.730832  0.842365
    Zn  Zn1  0.499024  0.590010  0.489809  1.072632
    Zn  Zn2  0.500701  0.423305  0.486869  1.064699
    C   C5   0.439223  0.533427  0.020700  -0.249138
    C   C6   0.560800  0.479822  0.955758  -0.220083
    C   C7   0.493820  0.573581  0.945723  0.184024
    C   C8   0.506156  0.439662  0.030738  0.187541
    C   C9   0.450297  0.465865  0.941842  -0.066481
    C   C10  0.549723  0.547457  0.034615  -0.055563
    H   H1   0.408831  0.432896  0.898540  0.052820
    H   H2   0.591077  0.581060  0.077000  0.033866
    H   H3   0.388030  0.554252  0.049491  0.130851
    H   H4   0.611871  0.458669  0.926725  0.106738
    H   H5   0.488613  0.629113  0.906936  -0.004219
    H   H6   0.511035  0.383973  0.069151  -0.019627
    C   C11  0.504870  0.505911  0.869141  -0.004715
    C   C12  0.495128  0.507368  0.107386  0.005671
    C   C13  0.747627  0.472000  0.387070  0.063523
    C   C14  0.250759  0.469679  0.423486  0.024956
    C   C15  0.257044  0.540839  0.608640  -0.077195
    C   C16  0.744403  0.539840  0.576056  0.073200
    H   H7   0.721180  0.446101  0.310350  0.043872
    H   H8   0.275701  0.443554  0.345619  0.050294
    H   H9   0.287268  0.568323  0.678948  0.073307
    H   H10  0.715494  0.564843  0.650428  0.065467
    C   C17  0.818933  0.470262  0.393192  -0.151532
    C   C18  0.179632  0.470723  0.430074  -0.180116
    C   C19  0.185822  0.540337  0.617053  -0.031049
    C   C20  0.815451  0.536903  0.583544  -0.305289
    H   H11  0.848077  0.443508  0.320653  0.075953
    H   H12  0.149496  0.444226  0.358537  0.087801
    H   H13  0.160713  0.567087  0.694312  0.054395
    H   H14  0.841683  0.561673  0.661565  0.101906
    C   C21  0.853034  0.502234  0.492110  0.179629
    C   C22  0.146820  0.505934  0.526836  0.027850
    C   C23  0.710285  0.508068  0.477336  -0.102937
    C   C24  0.289671  0.504662  0.512726  -0.068753
    C   C25  0.964777  0.565782  0.476851  -0.334034
    C   C26  0.035111  0.442484  0.555783  -0.285525
    C   C27  0.035627  0.568119  0.495616  -0.112887
    C   C28  0.963687  0.440753  0.542548  -0.113230
    C   C29  0.071014  0.506249  0.531759  0.216330
    C   C30  0.928781  0.501727  0.498675  0.190563
    C   C31  0.544927  0.737884  0.557920  -0.038528
    C   C32  0.455010  0.275789  0.416934  -0.077052
    C   C33  0.450456  0.737330  0.421351  -0.007283
    C   C34  0.550926  0.275607  0.549956  -0.032385
    C   C35  0.547512  0.813336  0.553225  -0.279099
    C   C36  0.455259  0.200348  0.414665  -0.248952
    C   C37  0.451619  0.812952  0.416810  -0.238428
    C   C38  0.551689  0.200031  0.548784  -0.236638
    C   C39  0.500730  0.851256  0.482130  0.344310
    C   C40  0.503336  0.162038  0.481553  0.297410
    N   N1   0.497522  0.699409  0.490623  -0.079399
    N   N2   0.502162  0.313928  0.485417  -0.039095
    C   C41  0.554183  0.968522  0.421813  -0.009349
    C   C42  0.449914  0.044758  0.538333  -0.064663
    C   C43  0.449159  0.969704  0.538296  0.005009
    C   C44  0.554919  0.043673  0.421819  -0.047377
    H   H15  0.595079  0.938889  0.375670  0.059025
    H   H16  0.409144  0.074338  0.584924  0.078047
    H   H17  0.407872  0.941003  0.585020  0.060806
    H   H18  0.596296  0.072397  0.375388  0.058788
    C   C45  0.502839  0.082105  0.480396  0.002453
    C   C46  0.501291  0.931228  0.480150  -0.068759
    C   C47  0.927619  0.631733  0.436580  0.950049
    O   O9   0.938703  0.689867  0.487634  -0.588807
    O   O10  0.881343  0.628220  0.342950  -0.521626
    C   C48  0.846955  0.689300  0.303657  0.478089
    C   C49  0.799116  0.669468  0.197595  -0.237257
    H   H19  0.884685  0.730488  0.270760  -0.034051
    H   H20  0.815941  0.712025  0.381228  -0.054288
    H   H21  0.829682  0.645924  0.120212  0.057724
    H   H22  0.772086  0.719091  0.164806  0.034451
    H   H23  0.760589  0.629037  0.230125  0.044119
    C   C50  0.072987  0.376246  0.592283  0.853047
    O   O11  0.119018  0.379522  0.669659  -0.582294
    O   O12  0.057281  0.311801  0.539235  -0.464753
    C   C51  0.092538  0.249686  0.570492  0.505311
    C   C52  0.064544  0.186432  0.495631  -0.380019
    H   H24  0.085647  0.238159  0.670970  -0.065856
    H   H25  0.148294  0.256599  0.549346  -0.027128
    H   H26  0.008818  0.179062  0.516351  0.100371
    H   H27  0.093099  0.136174  0.520570  0.082257
    H   H28  0.071266  0.197691  0.395060  0.099934
    C   C53  0.074339  0.634958  0.469744  0.696006
    O   O13  0.080641  0.656555  0.363105  -0.564441
    O   O14  0.099646  0.674344  0.565237  -0.433880
    C   C54  0.135630  0.737530  0.545766  0.525965
    C   C55  0.156169  0.769611  0.670086  -0.553706
    H   H29  0.102649  0.777084  0.495257  0.002353
    H   H30  0.182898  0.725722  0.491076  -0.024147
    H   H31  0.109038  0.781342  0.725253  0.136740
    H   H32  0.185444  0.820733  0.655150  0.114841
    H   H33  0.189018  0.730204  0.721149  0.162555
    C   C56  0.924962  0.377170  0.588265  0.611851
    O   O15  0.882081  0.347284  0.522685  -0.496018
    O   O16  0.938266  0.350937  0.702986  -0.454715
    C   C57  0.904795  0.290605  0.747679  0.622392
    C   C58  0.930085  0.274487  0.878016  -0.541009
    H   H34  0.916103  0.243187  0.687216  -0.034390
    H   H35  0.848294  0.300804  0.750381  -0.091800
    H   H36  0.986619  0.264517  0.876078  0.152260
    H   H37  0.903325  0.225513  0.914260  0.109703
    H   H38  0.918867  0.321598  0.939196  0.140378
    C   C59  0.592254  0.702865  0.645600  0.843613
    O   O17  0.647177  0.679291  0.607878  -0.511470
    O   O18  0.584073  0.715750  0.768253  -0.464045
    C   C60  0.635211  0.699343  0.852186  0.518704
    C   C61  0.617835  0.733259  0.976718  -0.411004
    H   H39  0.685219  0.722311  0.820544  -0.055331
    H   H40  0.639913  0.639481  0.861779  -0.053629
    H   H41  0.618844  0.793372  0.967935  0.117738
    H   H42  0.656522  0.715989  0.046776  0.114252
    H   H43  0.565634  0.716005  0.006951  0.086342
    C   C62  0.403017  0.311426  0.339031  0.851364
    O   O19  0.348362  0.329595  0.385847  -0.478140
    O   O20  0.407367  0.304526  0.214299  -0.470302
    C   C63  0.353181  0.323374  0.138332  0.525407
    C   C64  0.365697  0.293536  0.008958  -0.429926
    H   H44  0.348375  0.383472  0.134703  -0.047209
    H   H45  0.304366  0.299304  0.173545  -0.034682
    H   H46  0.418604  0.307354  0.977672  0.100033
    H   H47  0.327201  0.316840  0.943744  0.090715
    H   H48  0.360193  0.233564  0.010269  0.133205
    C   C65  0.395139  0.701282  0.351196  0.812354
    O   O21  0.343215  0.681909  0.406195  -0.529315
    O   O22  0.392957  0.708624  0.226425  -0.475609
    C   C66  0.332918  0.695029  0.162318  0.572833
    C   C67  0.341497  0.717870  0.027956  -0.435181
    H   H49  0.289948  0.727142  0.202708  -0.040875
    H   H50  0.320005  0.636366  0.167683  -0.091059
    H   H51  0.351115  0.777304  0.023639  0.120339
    H   H52  0.293694  0.704794  0.975568  0.093758
    H   H53  0.385783  0.688776  0.986099  0.101360
    C   C68  0.605672  0.311053  0.622265  0.799790
    O   O23  0.657954  0.331112  0.569084  -0.534080
    O   O24  0.606984  0.302216  0.746760  -0.476304
    C   C69  0.666580  0.314965  0.812618  0.551009
    C   C70  0.656633  0.291680  0.946447  -0.480535
    H   H54  0.679926  0.373571  0.808540  -0.082111
    H   H55  0.709578  0.282596  0.772769  0.008482
    H   H56  0.612677  0.321648  0.987728  0.123553
    H   H57  0.704345  0.303416  0.000022  0.109462
    H   H58  0.645754  0.232461  0.949728  0.127132
    C   C71  0.599700  0.853085  0.626353  0.715564
    O   O25  0.581921  0.901168  0.697736  -0.526167
    O   O26  0.667399  0.837102  0.613308  -0.390916
    C   C72  0.716910  0.873900  0.679508  0.416293
    C   C73  0.787608  0.844387  0.646262  -0.268331
    H   H59  0.707987  0.866405  0.780570  -0.034780
    H   H60  0.714894  0.932591  0.656053  -0.044814
    H   H61  0.790008  0.785638  0.669392  0.104727
    H   H62  0.827727  0.874064  0.699719  0.057577
    H   H63  0.796891  0.851855  0.545327  0.067355
    C   C74  0.406315  0.160686  0.335356  0.780147
    O   O27  0.344308  0.164443  0.355180  -0.522696
    O   O28  0.430296  0.120503  0.239695  -0.532211
    C   C75  0.386220  0.082261  0.164192  0.569181
    C   C76  0.427254  0.046180  0.061371  -0.292525
    H   H64  0.347681  0.119553  0.122288  -0.079957
    H   H65  0.359239  0.040082  0.219300  -0.104438
    H   H66  0.452543  0.088513  0.003667  0.071232
    H   H67  0.392037  0.013329  0.002448  0.058067
    H   H68  0.467342  0.010386  0.102482  0.090974
    C   C77  0.401301  0.853127  0.340399  0.602991
    O   O29  0.421780  0.895556  0.261368  -0.484154
    O   O30  0.332789  0.845730  0.360509  -0.370213
    C   C78  0.286281  0.888272  0.297173  0.464892
    C   C79  0.213442  0.868627  0.335708  -0.429008
    H   H69  0.291893  0.879488  0.195637  -0.027275
    H   H70  0.295449  0.946263  0.319933  -0.016835
    H   H71  0.202776  0.811213  0.310774  0.114861
    H   H72  0.176264  0.904514  0.286692  0.098617
    H   H73  0.207877  0.876213  0.437429  0.106467
    C   C80  0.605281  0.160000  0.617069  0.692744
    O   O31  0.589026  0.117735  0.699504  -0.519160
    O   O32  0.672119  0.166725  0.583380  -0.381647
    C   C81  0.722872  0.126785  0.640482  0.393835
    C   C82  0.791602  0.143197  0.579466  -0.330234
    H   H74  0.711632  0.067939  0.630380  -0.007419
    H   H75  0.725520  0.141300  0.740458  -0.046944
    H   H76  0.790226  0.124962  0.481210  0.096763
    H   H77  0.833459  0.114137  0.629487  0.064125
    H   H78  0.801209  0.202620  0.582569  0.096428
