# generated using pymatgen
data_ZnH12C24(NO2)3
_symmetry_space_group_name_H-M   'P 1'
_cell_length_a   11.98716800
_cell_length_b   13.26076900
_cell_length_c   16.20823300
_cell_angle_alpha   90.01336500
_cell_angle_beta   85.48225500
_cell_angle_gamma   94.43346600
_symmetry_Int_Tables_number   1
_chemical_formula_structural   ZnH12C24(NO2)3
_chemical_formula_sum   'Zn2 H24 C48 N6 O12'
_cell_volume   2560.71072143
_cell_formula_units_Z   2
loop_
 _symmetry_equiv_pos_site_id
 _symmetry_equiv_pos_as_xyz
  1  'x, y, z'
loop_
 _atom_site_type_symbol
 _atom_site_label
 _atom_site_symmetry_multiplicity
 _atom_site_fract_x
 _atom_site_fract_y
 _atom_site_fract_z
 _atom_site_occupancy
  Zn  Zn1  1  0.12207600  0.53308400  0.49023600  1
  Zn  Zn2  1  0.87802900  0.46693300  0.50866400  1
  H  H1  1  0.84921600  0.68186000  0.01769400  1
  H  H2  1  0.15088800  0.31815600  0.98120600  1
  H  H3  1  0.97131000  0.00726500  0.72150000  1
  H  H4  1  0.02879400  0.99275200  0.27740000  1
  H  H5  1  0.91519800  0.96200600  0.95556700  1
  H  H6  1  0.08490600  0.03801100  0.04333300  1
  H  H7  1  0.11588500  0.40646700  0.09995400  1
  H  H8  1  0.88421900  0.59354900  0.89894600  1
  H  H9  1  0.99964800  0.16773100  0.33243400  1
  H  H10  1  0.00045600  0.83228500  0.66646600  1
  H  H11  1  0.02072800  0.83163200  0.33567600  1
  H  H12  1  0.97937700  0.16838600  0.66322300  1
  H  H13  1  0.86736200  0.54179000  0.27402000  1
  H  H14  1  0.13274300  0.45822600  0.72488100  1
  H  H15  1  0.83457900  0.60168800  0.13748700  1
  H  H16  1  0.16552500  0.39832700  0.86141400  1
  H  H17  1  0.08476300  0.46958000  0.24079200  1
  H  H18  1  0.91534100  0.53043600  0.75810800  1
  H  H19  1  0.79740500  0.73725000  0.53457800  1
  H  H20  1  0.66927900  0.80054300  0.54063100  1
  H  H21  1  0.73511500  0.76697300  0.44062000  1
  H  H22  1  0.20271300  0.26276500  0.46429400  1
  H  H23  1  0.26498300  0.23304900  0.55826200  1
  H  H24  1  0.33083900  0.19947300  0.45825900  1
  C  C1  1  0.95498400  0.81580700  0.21571800  1
  C  C2  1  0.04512000  0.18420900  0.78318200  1
  C  C3  1  0.90766500  0.75184300  0.16051700  1
  C  C4  1  0.09243900  0.24817300  0.83838300  1
  C  C5  1  0.90964800  0.80329000  0.08675000  1
  C  C6  1  0.09045600  0.19672600  0.91215000  1
  C  C7  1  0.97967300  0.90752100  0.17583300  1
  C  C8  1  0.02043100  0.09249500  0.82306800  1
  C  C9  1  0.88147000  0.76008500  0.01577900  1
  C  C10  1  0.11863500  0.23993100  0.98312100  1
  C  C11  1  0.90901800  0.80404100  0.93269600  1
  C  C12  1  0.09108700  0.19597500  0.06620400  1
  C  C13  1  0.92252500  0.74851100  0.86102100  1
  C  C14  1  0.07757900  0.25150600  0.13787900  1
  C  C15  1  0.95353900  0.81450700  0.79750300  1
  C  C16  1  0.04656500  0.18550900  0.20139700  1
  C  C17  1  0.95719900  0.91067300  0.83215400  1
  C  C18  1  0.04290500  0.08934300  0.16674600  1
  C  C19  1  0.98133000  0.00719000  0.78728100  1
  C  C20  1  0.01877400  0.99282700  0.21161900  1
  C  C21  1  0.09095800  0.35394600  0.15013100  1
  C  C22  1  0.90914600  0.64607000  0.84876900  1
  C  C23  1  0.07332700  0.38918600  0.22978500  1
  C  C24  1  0.92677700  0.61083000  0.76911500  1
  C  C25  1  0.03921600  0.32392100  0.29563700  1
  C  C26  1  0.96088800  0.67609600  0.70326300  1
  C  C27  1  0.02478800  0.21973900  0.28184400  1
  C  C28  1  0.97531600  0.78027800  0.71705600  1
  C  C29  1  0.97802400  0.78293400  0.29279000  1
  C  C30  1  0.02208000  0.21708200  0.70611000  1
  C  C31  1  0.94652200  0.68281600  0.31263200  1
  C  C32  1  0.05358200  0.31720000  0.68626800  1
  C  C33  1  0.89134100  0.61996300  0.25781400  1
  C  C34  1  0.10876200  0.38005300  0.74108600  1
  C  C35  1  0.87320600  0.65330200  0.18025300  1
  C  C36  1  0.12689800  0.34671400  0.81864700  1
  C  C37  1  0.02446000  0.37120600  0.37770800  1
  C  C38  1  0.97564400  0.62881100  0.62119300  1
  C  C39  1  0.96956100  0.63665400  0.38980600  1
  C  C40  1  0.03054300  0.36336300  0.60909400  1
  C  C41  1  0.51902600  0.45453700  0.50815500  1
  C  C42  1  0.48107900  0.54548200  0.49074000  1
  C  C43  1  0.36328500  0.55661800  0.48440600  1
  C  C44  1  0.63681900  0.44340000  0.51449200  1
  C  C45  1  0.55414300  0.64019600  0.48062500  1
  C  C46  1  0.71702200  0.74328900  0.50626500  1
  C  C47  1  0.44596000  0.35982500  0.51827100  1
  C  C48  1  0.28308900  0.25672900  0.49261700  1
  N  N1  1  0.95339600  0.89936900  0.09605800  1
  N  N2  1  0.04670800  0.10064700  0.90284300  1
  N  N3  1  0.92839200  0.90309400  0.91446900  1
  N  N4  1  0.07171200  0.09692200  0.08443200  1
  N  N5  1  0.73221500  0.43713500  0.51771600  1
  N  N6  1  0.26788800  0.56288200  0.48118400  1
  O  O1  1  0.92262200  0.37613300  0.41366000  1
  O  O2  1  0.07748200  0.62388400  0.58524000  1
  O  O3  1  0.11112400  0.42713100  0.40149100  1
  O  O4  1  0.88898000  0.57288600  0.59740900  1
  O  O5  1  0.07421800  0.63097600  0.40713000  1
  O  O6  1  0.92588600  0.36904000  0.59177000  1
  O  O7  1  0.88572500  0.57995400  0.42530300  1
  O  O8  1  0.11437900  0.42006300  0.57359700  1
  O  O9  1  0.51674900  0.71304200  0.44975400  1
  O  O10  1  0.65608600  0.65120100  0.51060500  1
  O  O11  1  0.48334800  0.28698200  0.54915100  1
  O  O12  1  0.34402500  0.34881700  0.48827900  1
