# generated using pymatgen
data_ZnH8C12N(ClO2)2
_symmetry_space_group_name_H-M   'P 1'
_cell_length_a   8.56280200
_cell_length_b   9.12524800
_cell_length_c   13.10003800
_cell_angle_alpha   90.00000000
_cell_angle_beta   93.51733800
_cell_angle_gamma   90.00000000
_symmetry_Int_Tables_number   1
_chemical_formula_structural   ZnH8C12N(ClO2)2
_chemical_formula_sum   'Zn2 H16 C24 N2 Cl4 O8'
_cell_volume   1021.67854276
_cell_formula_units_Z   2
loop_
 _symmetry_equiv_pos_site_id
 _symmetry_equiv_pos_as_xyz
  1  'x, y, z'
loop_
 _atom_site_type_symbol
 _atom_site_label
 _atom_site_symmetry_multiplicity
 _atom_site_fract_x
 _atom_site_fract_y
 _atom_site_fract_z
 _atom_site_occupancy
  Zn  Zn1  1  0.49901000  0.83368500  0.49793400  1
  Zn  Zn2  1  0.50004100  0.16608900  0.50197700  1
  H  H1  1  0.21601400  0.96993500  0.15414300  1
  H  H2  1  0.83845800  0.92682600  0.99525600  1
  H  H3  1  0.16055000  0.07426300  0.00485200  1
  H  H4  1  0.78309100  0.03093600  0.84583600  1
  H  H5  1  0.71588000  0.96878600  0.15700900  1
  H  H6  1  0.99577300  0.05174900  0.42853200  1
  H  H7  1  0.28323400  0.03209800  0.84317900  1
  H  H8  1  0.00365600  0.94704400  0.57185600  1
  H  H9  1  0.71349100  0.61569000  0.58408000  1
  H  H10  1  0.70707900  0.38195500  0.59610600  1
  H  H11  1  0.28496600  0.61549100  0.57319500  1
  H  H12  1  0.27367300  0.37635200  0.56292700  1
  H  H13  1  0.69150200  0.61783800  0.40858100  1
  H  H14  1  0.70040000  0.38487200  0.42024500  1
  H  H15  1  0.26300900  0.62335700  0.43700400  1
  H  H16  1  0.27331600  0.38332200  0.42690100  1
  C  C1  1  0.84232000  0.00343100  0.30031000  1
  C  C2  1  0.83001100  0.98038700  0.19622400  1
  C  C3  1  0.96354800  0.98030000  0.14163200  1
  C  C4  1  0.11006100  0.98401600  0.19365500  1
  C  C5  1  0.12060900  0.00494200  0.29819400  1
  C  C6  1  0.98684200  0.02546600  0.34869900  1
  C  C7  1  0.94541600  0.97337100  0.02950000  1
  C  C8  1  0.05357500  0.02773900  0.97061600  1
  C  C9  1  0.16914500  0.02016500  0.80396200  1
  C  C10  1  0.15694000  0.99635500  0.69996400  1
  C  C11  1  0.01248600  0.97386500  0.65160500  1
  C  C12  1  0.87865800  0.99491600  0.70194200  1
  C  C13  1  0.88908300  0.01655700  0.80641100  1
  C  C14  1  0.03554900  0.02049800  0.85849200  1
  C  C15  1  0.70693500  0.00129900  0.36281300  1
  C  C16  1  0.73037700  0.99808400  0.64034300  1
  C  C17  1  0.29226200  0.99853300  0.63742100  1
  C  C18  1  0.26903400  0.00171500  0.35963300  1
  C  C19  1  0.58893900  0.58510700  0.58893800  1
  C  C20  1  0.58380700  0.41910600  0.59329800  1
  C  C21  1  0.33881400  0.58243300  0.50220200  1
  C  C22  1  0.33883200  0.41695300  0.49837700  1
  C  C23  1  0.56852800  0.58083400  0.40991800  1
  C  C24  1  0.57483200  0.41504900  0.41422100  1
  N  N1  1  0.49740200  0.64049600  0.49931300  1
  N  N2  1  0.49829500  0.35928900  0.50299400  1
  Cl  Cl1  1  0.46490200  0.63895800  0.29505500  1
  Cl  Cl2  1  0.48750400  0.34209400  0.29808400  1
  Cl  Cl3  1  0.52081000  0.65841000  0.70420900  1
  Cl  Cl4  1  0.49867700  0.36101200  0.70712100  1
  O  O1  1  0.65911200  0.12723100  0.39836400  1
  O  O2  1  0.65640400  0.87303400  0.39322000  1
  O  O3  1  0.67505900  0.87408800  0.60404000  1
  O  O4  1  0.67470200  0.12513500  0.60913600  1
  O  O5  1  0.34063500  0.87221100  0.60238300  1
  O  O6  1  0.34269900  0.12714700  0.60711600  1
  O  O7  1  0.32386900  0.12579400  0.39629500  1
  O  O8  1  0.32364600  0.87454700  0.39161100  1
