# generated using pymatgen
data_ZnH14C23NO6
_symmetry_space_group_name_H-M   'P 1'
_cell_length_a   15.14418900
_cell_length_b   11.01101000
_cell_length_c   9.85093500
_cell_angle_alpha   90.00017700
_cell_angle_beta   90.00017500
_cell_angle_gamma   90.00993800
_symmetry_Int_Tables_number   1
_chemical_formula_structural   ZnH14C23NO6
_chemical_formula_sum   'Zn2 H28 C46 N2 O12'
_cell_volume   1642.67113189
_cell_formula_units_Z   2
loop_
 _symmetry_equiv_pos_site_id
 _symmetry_equiv_pos_as_xyz
  1  'x, y, z'
loop_
 _atom_site_type_symbol
 _atom_site_label
 _atom_site_symmetry_multiplicity
 _atom_site_fract_x
 _atom_site_fract_y
 _atom_site_fract_z
 _atom_site_occupancy
  Zn  Zn1  1  0.49375000  0.49318400  0.65699300  1
  Zn  Zn2  1  0.48964100  0.49556700  0.34823000  1
  H  H1  1  0.77170100  0.54532500  0.70666500  1
  H  H2  1  0.77406900  0.45792700  0.28508800  1
  H  H3  1  0.91079500  0.43048500  0.17227200  1
  H  H4  1  0.21268700  0.43463100  0.30582300  1
  H  H5  1  0.06250300  0.57957500  0.83223100  1
  H  H6  1  0.90510700  0.57601100  0.82492600  1
  H  H7  1  0.47029600  0.10485400  0.29311600  1
  H  H8  1  0.60473000  0.19389600  0.72051400  1
  H  H9  1  0.60229700  0.09766500  0.93992600  1
  H  H10  1  0.52219200  0.90580900  0.97126900  1
  H  H11  1  0.45646800  0.80583100  0.78261500  1
  H  H12  1  0.46383500  0.88560800  0.29560900  1
  H  H13  1  0.58439700  0.62142900  0.13975700  1
  H  H14  1  0.37425700  0.33083400  0.24465600  1
  H  H15  1  0.28541900  0.19288100  0.12473300  1
  H  H16  1  0.38328700  0.32699600  0.75625500  1
  H  H17  1  0.33227000  0.14210300  0.65927900  1
  H  H18  1  0.24218800  0.25111300  0.66780200  1
  H  H19  1  0.21980100  0.09026400  0.67360400  1
  H  H20  1  0.69983700  0.71152500  0.04626800  1
  H  H21  1  0.75911100  0.69094600  0.89146700  1
  H  H22  1  0.73366300  0.55963700  0.99445900  1
  H  H23  1  0.00780000  0.26071900  0.10075500  1
  H  H24  1  0.11508400  0.26568100  0.02198700  1
  H  H25  1  0.02592400  0.35568800  0.95310000  1
  H  H26  1  0.23437500  0.74557200  0.65972200  1
  H  H27  1  0.32005000  0.69880700  0.77692800  1
  H  H28  1  0.21315400  0.74433200  0.84065300  1
  C  C1  1  0.50140800  0.25597700  0.50212300  1
  C  C2  1  0.31804200  0.48974600  0.50836600  1
  C  C3  1  0.48483500  0.73339300  0.50423700  1
  C  C4  1  0.66449700  0.50231200  0.49666800  1
  C  C5  1  0.80687400  0.52610100  0.61415100  1
  C  C6  1  0.76146200  0.50298300  0.49559100  1
  C  C7  1  0.80841800  0.47780200  0.37864400  1
  C  C8  1  0.89979600  0.47464100  0.38166400  1
  C  C9  1  0.94476800  0.50002200  0.49982800  1
  C  C10  1  0.89779800  0.52668900  0.61564300  1
  C  C11  1  0.94617600  0.44720200  0.26569800  1
  C  C12  1  0.03735700  0.44513400  0.26640200  1
  C  C13  1  0.08321000  0.47034300  0.38606500  1
  C  C14  1  0.03626200  0.49868700  0.50239600  1
  C  C15  1  0.08051500  0.52682000  0.62139200  1
  C  C16  1  0.03215800  0.55612700  0.73670300  1
  C  C17  1  0.94154600  0.55444300  0.73374100  1
  C  C18  1  0.17486000  0.46445300  0.39211200  1
  C  C19  1  0.22010300  0.49342100  0.50983400  1
  C  C20  1  0.17225300  0.52742200  0.62441100  1
  C  C21  1  0.56878100  0.10980900  0.73020300  1
  C  C22  1  0.57045100  0.05406800  0.85465500  1
  C  C23  1  0.52705100  0.94630100  0.87158100  1
  C  C24  1  0.49270500  0.88711500  0.76067000  1
  C  C25  1  0.50074800  0.93542200  0.63022300  1
  C  C26  1  0.52545300  0.05657400  0.62063500  1
  C  C27  1  0.50708500  0.12151600  0.50237000  1
  C  C28  1  0.48348200  0.05774800  0.38717300  1
  C  C29  1  0.47766100  0.93260400  0.38950900  1
  C  C30  1  0.48450300  0.86890500  0.51027300  1
  C  C31  1  0.37871200  0.33507300  0.13713200  1
  C  C32  1  0.32714200  0.25418700  0.06794800  1
  C  C33  1  0.32921300  0.25228300  0.92935100  1
  C  C34  1  0.38398100  0.33283100  0.86233700  1
  C  C35  1  0.43817800  0.41571000  0.93002600  1
  C  C36  1  0.43440300  0.41589600  0.07141200  1
  C  C37  1  0.54307100  0.56312600  0.07926200  1
  C  C38  1  0.55086000  0.56134100  0.93866500  1
  C  C39  1  0.27365300  0.16363700  0.85581100  1
  C  C40  1  0.26690300  0.16223000  0.70461500  1
  C  C41  1  0.62494300  0.63319600  0.88175800  1
  C  C42  1  0.70915800  0.64915600  0.95915100  1
  C  C43  1  0.08256900  0.42338900  0.13675800  1
  C  C44  1  0.05586800  0.32005300  0.04774500  1
  C  C45  1  0.21720400  0.56983400  0.74713700  1
  C  C46  1  0.24818900  0.69784800  0.75655600  1
  N  N1  1  0.48514500  0.49260200  0.14463200  1
  N  N2  1  0.49496000  0.49149300  0.86145100  1
  O  O1  1  0.49846900  0.31273300  0.61843400  1
  O  O2  1  0.49618500  0.31468000  0.38653200  1
  O  O3  1  0.36182000  0.48856900  0.62276400  1
  O  O4  1  0.35872300  0.49109800  0.39113200  1
  O  O5  1  0.48855600  0.67349000  0.61871600  1
  O  O6  1  0.48587000  0.67708000  0.38512900  1
  O  O7  1  0.62467700  0.49932100  0.61527900  1
  O  O8  1  0.62178100  0.50306300  0.38021900  1
  O  O9  1  0.23116500  0.08905900  0.91986800  1
  O  O10  1  0.61848600  0.68483900  0.77355300  1
  O  O11  1  0.13858300  0.49450600  0.09701300  1
  O  O12  1  0.22701200  0.50137800  0.84312000  1
