data_DB0-m29_o96_o102_f0_pts.sym.71_repeat
_audit_creation_date              2024-02-23
_audit_creation_method            'Materials Studio'
_symmetry_space_group_name_H-M    'P1'
_symmetry_Int_Tables_number       1
_symmetry_cell_setting            triclinic
loop_
_symmetry_equiv_pos_as_xyz
  x,y,z
_cell_length_a                    17.2464
_cell_length_b                    14.3141
_cell_length_c                    16.9979
_cell_angle_alpha                 91.0514
_cell_angle_beta                  91.0233
_cell_angle_gamma                 109.4490
loop_
_atom_site_label
_atom_site_type_symbol
_atom_site_fract_x
_atom_site_fract_y
_atom_site_fract_z
_atom_site_U_iso_or_equiv
_atom_site_adp_type
_atom_site_occupancy
C1     C     0.22492   0.03067   0.12119   0.00000  Uiso   1.00
C2     C     0.19266   0.08082   0.17252   0.00000  Uiso   1.00
C3     C     0.11724   0.07718   0.14188   0.00000  Uiso   1.00
N1     N     0.10296   0.02796   0.07168   0.00000  Uiso   1.00
C4     C     0.16927   0.99991   0.05849   0.00000  Uiso   1.00
C5     C     0.06437   0.11207   0.17866   0.00000  Uiso   1.00
C6     C     0.97914   0.09413   0.15154   0.00000  Uiso   1.00
C7     C     0.91538   0.08942   0.20081   0.00000  Uiso   1.00
C8     C     0.84623   0.06968   0.15519   0.00000  Uiso   1.00
C9     C     0.86847   0.06253   0.07826   0.00000  Uiso   1.00
N2     N     0.95035   0.07876   0.07629   0.00000  Uiso   1.00
C10    C     0.81102   0.04070   0.00998   0.00000  Uiso   1.00
C11    C     0.82288   0.99706   0.94339   0.00000  Uiso   1.00
C12    C     0.76764   0.96852   0.88047   0.00000  Uiso   1.00
C13    C     0.80125   0.92298   0.82670   0.00000  Uiso   1.00
C14    C     0.87660   0.92531   0.85732   0.00000  Uiso   1.00
N3     N     0.88976   0.97072   0.92903   0.00000  Uiso   1.00
C15    C     0.93006   0.89175   0.82002   0.00000  Uiso   1.00
C16    C     0.01460   0.90582   0.84857   0.00000  Uiso   1.00
C17    C     0.07829   0.90716   0.80021   0.00000  Uiso   1.00
C18    C     0.14690   0.92437   0.84646   0.00000  Uiso   1.00
C19    C     0.12421   0.93324   0.92323   0.00000  Uiso   1.00
N4     N     0.04276   0.92052   0.92410   0.00000  Uiso   1.00
C20    C     0.18085   0.95447   0.99248   0.00000  Uiso   1.00
H1     H     0.08163   0.14681   0.23623   0.00000  Uiso   1.00
H2     H     0.75351   0.05443   0.01687   0.00000  Uiso   1.00
H3     H     0.91323   0.85929   0.76168   0.00000  Uiso   1.00
H4     H     0.23820   0.94008   0.98641   0.00000  Uiso   1.00
H5     H     0.98561   0.08418   0.02644   0.00000  Uiso   1.00
H6     H     0.00733   0.91709   0.97355   0.00000  Uiso   1.00
C21    C     0.08012   0.89739   0.71986   0.00000  Uiso   1.00
C22    C     0.15455   0.90583   0.68657   0.00000  Uiso   1.00
C23    C     0.22570   0.92426   0.73315   0.00000  Uiso   1.00
C24    C     0.22214   0.93347   0.81461   0.00000  Uiso   1.00
C25    C     0.29969   0.01823   0.13670   0.00000  Uiso   1.00
C26    C     0.34158   0.06100   0.20579   0.00000  Uiso   1.00
C27    C     0.30912   0.11458   0.25658   0.00000  Uiso   1.00
C28    C     0.23342   0.12386   0.24101   0.00000  Uiso   1.00
C29    C     0.91374   0.09812   0.28132   0.00000  Uiso   1.00
C30    C     0.83877   0.08608   0.31511   0.00000  Uiso   1.00
C31    C     0.76733   0.06539   0.26865   0.00000  Uiso   1.00
C32    C     0.77083   0.05716   0.18729   0.00000  Uiso   1.00
C33    C     0.69207   0.97965   0.86712   0.00000  Uiso   1.00
C34    C     0.65152   0.94332   0.79621   0.00000  Uiso   1.00
C35    C     0.68629   0.89701   0.74136   0.00000  Uiso   1.00
C36    C     0.76185   0.88631   0.75607   0.00000  Uiso   1.00
H7     H     0.02585   0.88464   0.68287   0.00000  Uiso   1.00
H8     H     0.27677   0.94907   0.85161   0.00000  Uiso   1.00
H9     H     0.32562   0.97754   0.09689   0.00000  Uiso   1.00
H10    H     0.34286   0.14810   0.30986   0.00000  Uiso   1.00
H11    H     0.20870   0.16474   0.28175   0.00000  Uiso   1.00
H12    H     0.96855   0.11279   0.31789   0.00000  Uiso   1.00
H13    H     0.71601   0.03989   0.15038   0.00000  Uiso   1.00
H14    H     0.66494   0.01593   0.90945   0.00000  Uiso   1.00
H15    H     0.65386   0.86901   0.68631   0.00000  Uiso   1.00
H16    H     0.78801   0.85029   0.71270   0.00000  Uiso   1.00
H17    H     0.15646   0.89884   0.62331   0.00000  Uiso   1.00
H18    H     0.83660   0.09227   0.37842   0.00000  Uiso   1.00
O1     O     0.62072   0.03237   0.26314   0.00000  Uiso   1.00
C37    C     0.68835   0.05021   0.30615   0.00000  Uiso   1.00
O2     O     0.55707   0.83409   0.32298   0.00000  Uiso   1.00
O3     O     0.68453   0.05138   0.38317   0.00000  Uiso   1.00
O4     O     0.49311   0.90458   0.40892   0.00000  Uiso   1.00
C38    C     0.52017   0.83158   0.39012   0.00000  Uiso   1.00
Fe1    Fe    0.52479   0.01130   0.33118   0.00000  Uiso   1.00
O5     O     0.42432   0.97245   0.26025   0.00000  Uiso   1.00
O6     O     0.48288   0.13624   0.24013   0.00000  Uiso   1.00
C39    C     0.42133   0.05357   0.22738   0.00000  Uiso   1.00
O7     O     0.55753   0.14051   0.39215   0.00000  Uiso   1.00
O8     O     0.42546   0.06922   0.42909   0.00000  Uiso   1.00
C40    C     0.49430   0.14481   0.43219   0.00000  Uiso   1.00
C41    C     0.51402   0.65963   0.40764   0.00000  Uiso   1.00
C42    C     0.50783   0.74542   0.44146   0.00000  Uiso   1.00
C43    C     0.49270   0.74824   0.52166   0.00000  Uiso   1.00
C44    C     0.48365   0.66442   0.56648   0.00000  Uiso   1.00
C45    C     0.48628   0.57708   0.53021   0.00000  Uiso   1.00
C46    C     0.50383   0.57547   0.45118   0.00000  Uiso   1.00
C47    C     0.47304   0.49127   0.57254   0.00000  Uiso   1.00
C48    C     0.48139   0.40745   0.53844   0.00000  Uiso   1.00
C49    C     0.50193   0.40625   0.46081   0.00000  Uiso   1.00
C50    C     0.51192   0.49000   0.41635   0.00000  Uiso   1.00
C51    C     0.46916   0.32479   0.58351   0.00000  Uiso   1.00
C52    C     0.47650   0.23879   0.55175   0.00000  Uiso   1.00
C53    C     0.49663   0.23664   0.47304   0.00000  Uiso   1.00
C54    C     0.51040   0.32031   0.42862   0.00000  Uiso   1.00
H19    H     0.52593   0.65956   0.34566   0.00000  Uiso   1.00
H20    H     0.45499   0.48640   0.63304   0.00000  Uiso   1.00
H21    H     0.45418   0.32824   0.64468   0.00000  Uiso   1.00
H22    H     0.52436   0.31438   0.36747   0.00000  Uiso   1.00
C55    C     0.46991   0.45461   0.27644   0.00000  Uiso   1.00
H23    H     0.40624   0.42945   0.29323   0.00000  Uiso   1.00
N5     N     0.48915   0.45325   0.20019   0.00000  Uiso   1.00
C56    C     0.56833   0.48440   0.17878   0.00000  Uiso   1.00
H24    H     0.58292   0.48291   0.11729   0.00000  Uiso   1.00
N6     N     0.62947   0.51734   0.23342   0.00000  Uiso   1.00
C57    C     0.61240   0.51968   0.31018   0.00000  Uiso   1.00
H25    H     0.66175   0.54617   0.35372   0.00000  Uiso   1.00
C58    C     0.53173   0.48817   0.33301   0.00000  Uiso   1.00
O9     O     0.56947   0.02112   0.72751   0.00000  Uiso   1.00
O10    O     0.50548   0.87510   0.78504   0.00000  Uiso   1.00
C59    C     0.57170   0.95241   0.77670   0.00000  Uiso   1.00
O11    O     0.43231   0.84462   0.60382   0.00000  Uiso   1.00
O12    O     0.56164   0.91854   0.56041   0.00000  Uiso   1.00
C60    C     0.49404   0.84131   0.56066   0.00000  Uiso   1.00
O13    O     0.43386   0.15450   0.67324   0.00000  Uiso   1.00
O14    O     0.37274   0.95323   0.73547   0.00000  Uiso   1.00
C61    C     0.30398   0.93703   0.69447   0.00000  Uiso   1.00
O15    O     0.48882   0.07936   0.58211   0.00000  Uiso   1.00
C62    C     0.46478   0.15375   0.60337   0.00000  Uiso   1.00
O16    O     0.30617   0.93658   0.61735   0.00000  Uiso   1.00
Fe2    Fe    0.46485   0.97564   0.66227   0.00000  Uiso   1.00
C63    C     0.47895   0.67015   0.65484   0.00000  Uiso   1.00
O17    O     0.39809   0.62409   0.67769   0.00000  Uiso   1.00
H26    H     0.50147   0.74637   0.67929   0.00000  Uiso   1.00
H27    H     0.52026   0.63517   0.68343   0.00000  Uiso   1.00
H28    H     0.38397   0.67649   0.70684   0.00000  Uiso   1.00
