# generated using pymatgen
data_Cu3H62C47O19
_symmetry_space_group_name_H-M   'P 1'
_cell_length_a   22.08298000
_cell_length_b   22.05988100
_cell_length_c   22.23029400
_cell_angle_alpha   119.73355800
_cell_angle_beta   119.76626500
_cell_angle_gamma   90.01312600
_symmetry_Int_Tables_number   1
_chemical_formula_structural   Cu3H62C47O19
_chemical_formula_sum   'Cu6 H124 C94 O38'
_cell_volume   7714.24264881
_cell_formula_units_Z   2
loop_
 _symmetry_equiv_pos_site_id
 _symmetry_equiv_pos_as_xyz
  1  'x, y, z'
loop_
 _atom_site_type_symbol
 _atom_site_label
 _atom_site_symmetry_multiplicity
 _atom_site_fract_x
 _atom_site_fract_y
 _atom_site_fract_z
 _atom_site_occupancy
  Cu  Cu1  1  0.06374400  0.49381600  0.48575200  1
  Cu  Cu2  1  0.94334000  0.49430300  0.48616800  1
  Cu  Cu3  1  0.48319300  0.94056400  0.49171000  1
  Cu  Cu4  1  0.49059900  0.05622400  0.48299000  1
  Cu  Cu5  1  0.04425400  0.04791500  0.58871400  1
  Cu  Cu6  1  0.94939500  0.96300600  0.42120200  1
  H  H1  1  0.35098000  0.70722800  0.05631300  1
  H  H2  1  0.64986000  0.30198000  0.93707700  1
  H  H3  1  0.19776400  0.60943700  0.91973600  1
  H  H4  1  0.79098700  0.37957300  0.04594400  1
  H  H5  1  0.24726700  0.68251600  0.06010100  1
  H  H6  1  0.74296200  0.30506900  0.90747100  1
  H  H7  1  0.18387500  0.73356000  0.04628100  1
  H  H8  1  0.80133700  0.24929500  0.92078700  1
  H  H9  1  0.21699700  0.79782800  0.91212800  1
  H  H10  1  0.78317400  0.19527600  0.06339100  1
  H  H11  1  0.14385700  0.76884000  0.91637200  1
  H  H12  1  0.84497700  0.21815600  0.04167000  1
  H  H13  1  0.29842800  0.86553800  0.05416500  1
  H  H14  1  0.68507200  0.13434600  0.92841500  1
  H  H15  1  0.31147800  0.74130000  0.92911600  1
  H  H16  1  0.68435800  0.25011500  0.04674500  1
  H  H17  1  0.89045700  0.14280300  0.39432700  1
  H  H18  1  0.90649100  0.75119000  0.38922800  1
  H  H19  1  0.04116400  0.23931100  0.56211100  1
  H  H20  1  0.03956600  0.83755800  0.57243200  1
  H  H21  1  0.75119300  0.98541600  0.40222900  1
  H  H22  1  0.24429400  0.02041200  0.60265700  1
  H  H23  1  0.83713800  0.04024600  0.58789100  1
  H  H24  1  0.15420900  0.96892000  0.41835900  1
  H  H25  1  0.65026100  0.01655200  0.41801000  1
  H  H26  1  0.33109800  0.97114100  0.56057300  1
  H  H27  1  0.50111900  0.81473100  0.10768400  1
  H  H28  1  0.45155700  0.72656100  0.06985300  1
  H  H29  1  0.50068300  0.87177800  0.23816100  1
  H  H30  1  0.46208200  0.77921200  0.20368300  1
  H  H31  1  0.56953600  0.74833900  0.19995800  1
  H  H32  1  0.59680200  0.82396300  0.30381500  1
  H  H33  1  0.60888400  0.84264500  0.23932600  1
  H  H34  1  0.48844200  0.16006300  0.79562600  1
  H  H35  1  0.54898300  0.23220000  0.81727400  1
  H  H36  1  0.48316600  0.24878500  0.91643500  1
  H  H37  1  0.54304500  0.32395000  0.93849900  1
  H  H38  1  0.45177900  0.29165300  0.79415100  1
  H  H39  1  0.41220200  0.31252100  0.85365000  1
  H  H40  1  0.39156100  0.21758800  0.77314800  1
  H  H41  1  0.15975500  0.93123000  0.05850000  1
  H  H42  1  0.21975400  0.92152000  0.02507100  1
  H  H43  1  0.26611000  0.98691400  0.20663600  1
  H  H44  1  0.32902700  0.98097100  0.17603200  1
  H  H45  1  0.28025500  0.05916900  0.12423100  1
  H  H46  1  0.31734600  0.10536200  0.23485000  1
  H  H47  1  0.21854500  0.06636900  0.15699100  1
  H  H48  1  0.73215500  0.01767400  0.80152700  1
  H  H49  1  0.66106600  0.03758100  0.81647200  1
  H  H50  1  0.81171900  0.04013900  0.94429100  1
  H  H51  1  0.73531800  0.04922900  0.95430900  1
  H  H52  1  0.65726300  0.92399800  0.81999500  1
  H  H53  1  0.73830500  0.92263100  0.90028200  1
  H  H54  1  0.73592100  0.91424100  0.81396600  1
  H  H55  1  0.87192300  0.36427400  0.53081400  1
  H  H56  1  0.93069100  0.31359600  0.55991000  1
  H  H57  1  0.76103700  0.25637800  0.44139400  1
  H  H58  1  0.81782200  0.20193600  0.46528600  1
  H  H59  1  0.86882500  0.28750400  0.61671500  1
  H  H60  1  0.76921300  0.25214000  0.55393200  1
  H  H61  1  0.81507100  0.34503800  0.59540200  1
  H  H62  1  0.87037600  0.53856500  0.30702900  1
  H  H63  1  0.91570300  0.61723400  0.32156700  1
  H  H64  1  0.75241000  0.56180400  0.25130100  1
  H  H65  1  0.79561700  0.64551800  0.27179800  1
  H  H66  1  0.82901300  0.57444600  0.17226500  1
  H  H67  1  0.73084100  0.53860800  0.12088100  1
  H  H68  1  0.79079400  0.49016700  0.15463800  1
  H  H69  1  0.08092200  0.27348600  0.39619900  1
  H  H70  1  0.98366800  0.23606000  0.34725900  1
  H  H71  1  0.09763300  0.16779800  0.41544100  1
  H  H72  1  0.99828900  0.12795100  0.34779900  1
  H  H73  1  0.99746200  0.13060200  0.23616100  1
  H  H74  1  0.04946400  0.07481500  0.26424200  1
  H  H75  1  0.09748400  0.16583900  0.30330400  1
  H  H76  1  0.17220000  0.79961400  0.66059300  1
  H  H77  1  0.14692800  0.70589200  0.62531600  1
  H  H78  1  0.05249900  0.80555200  0.65723500  1
  H  H79  1  0.04955800  0.71991200  0.64947200  1
  H  H80  1  0.17989600  0.77935000  0.77592900  1
  H  H81  1  0.11539500  0.82077800  0.79543700  1
  H  H82  1  0.17629800  0.86631500  0.78740200  1
  H  H83  1  0.37975700  0.59900800  0.89258200  1
  H  H84  1  0.39477100  0.69381300  0.93140100  1
  H  H85  1  0.26604400  0.56326300  0.75421700  1
  H  H86  1  0.28756500  0.65928900  0.79104600  1
  H  H87  1  0.41050100  0.66040200  0.81480000  1
  H  H88  1  0.33494800  0.59279900  0.70601700  1
  H  H89  1  0.38657200  0.56331300  0.77391700  1
  H  H90  1  0.71613100  0.42572400  0.19628300  1
  H  H91  1  0.72028400  0.33644800  0.17031700  1
  H  H92  1  0.58209700  0.37434900  0.08333800  1
  H  H93  1  0.58376200  0.28255100  0.05674500  1
  H  H94  1  0.62981500  0.32510700  0.20292600  1
  H  H95  1  0.54239400  0.33840700  0.15096200  1
  H  H96  1  0.62671600  0.41640800  0.22870000  1
  H  H97  1  0.79283600  0.00919200  0.67764000  1
  H  H98  1  0.69826800  0.99759800  0.63955200  1
  H  H99  1  0.78967800  0.11389300  0.65064800  1
  H  H100  1  0.70652000  0.11098400  0.64794900  1
  H  H101  1  0.77606500  0.12518900  0.78556700  1
  H  H102  1  0.81023600  0.20239000  0.78943200  1
  H  H103  1  0.85966500  0.13716000  0.78997500  1
  H  H104  1  0.34894800  0.16049500  0.53667500  1
  H  H105  1  0.33398100  0.14055400  0.59885500  1
  H  H106  1  0.22707300  0.17437700  0.47378300  1
  H  H107  1  0.20689900  0.14965900  0.52990300  1
  H  H108  1  0.31044800  0.25870600  0.66634400  1
  H  H109  1  0.24787900  0.28596800  0.60079000  1
  H  H110  1  0.33459900  0.28272800  0.61219700  1
  H  H111  1  0.03064700  0.59121600  0.89155500  1
  H  H112  1  0.11753100  0.57708600  0.93534700  1
  H  H113  1  0.00996900  0.52636500  0.75022400  1
  H  H114  1  0.09490700  0.50610700  0.79178400  1
  H  H115  1  0.04609100  0.44117100  0.83229300  1
  H  H116  1  0.98976300  0.40045000  0.72017100  1
  H  H117  1  0.95971200  0.45818100  0.78496800  1
  H  H118  1  0.97690100  0.43235700  0.15740000  1
  H  H119  1  0.89817000  0.45302400  0.15393300  1
  H  H120  1  0.92406200  0.40589300  0.01434900  1
  H  H121  1  0.84873300  0.43713200  0.01536300  1
  H  H122  1  0.93934100  0.55807800  0.15047200  1
  H  H123  1  0.94562900  0.53815200  0.06480900  1
  H  H124  1  0.01370600  0.52732800  0.14520100  1
  C  C1  1  0.99913600  0.37298800  0.47679100  1
  C  C2  1  0.00647200  0.61340500  0.49178500  1
  C  C3  1  0.08440700  0.57046800  0.64804800  1
  C  C4  1  0.92267800  0.41811100  0.32421400  1
  C  C5  1  0.29267600  0.70697500  0.94368800  1
  C  C6  1  0.70520200  0.28871300  0.03799300  1
  C  C7  1  0.18428100  0.66137400  0.93643800  1
  C  C8  1  0.80687800  0.32917600  0.03234100  1
  C  C9  1  0.22367300  0.71302500  0.03133500  1
  C  C10  1  0.76426900  0.27517800  0.93757800  1
  C  C11  1  0.36249100  0.86348800  0.23480500  1
  C  C12  1  0.61445500  0.13253000  0.73926600  1
  C  C13  1  0.21130700  0.69782100  0.90751600  1
  C  C14  1  0.78504800  0.29449400  0.06617700  1
  C  C15  1  0.33547100  0.74687800  0.03921500  1
  C  C16  1  0.65801900  0.25562300  0.94390100  1
  C  C17  1  0.28506900  0.77718400  0.06647200  1
  C  C18  1  0.70047200  0.21681000  0.90738400  1
  C  C19  1  0.25231700  0.82330800  0.03354300  1
  C  C20  1  0.73002400  0.16810900  0.93774600  1
  C  C21  1  0.20200800  0.77343300  0.93802700  1
  C  C22  1  0.79031100  0.21731700  0.03122300  1
  C  C23  1  0.32718300  0.82388100  0.15877200  1
  C  C24  1  0.65336000  0.17123500  0.81520500  1
  C  C25  1  0.16716300  0.65201300  0.81500300  1
  C  C26  1  0.83570600  0.33873900  0.15811400  1
  C  C27  1  0.12976800  0.61457800  0.73881100  1
  C  C28  1  0.87651600  0.37505000  0.23393300  1
  C  C29  1  0.93963700  0.19088700  0.44537300  1
  C  C30  1  0.95066100  0.75845200  0.44679300  1
  C  C31  1  0.99613500  0.18874800  0.50622700  1
  C  C32  1  0.99887800  0.82610100  0.51153300  1
  C  C33  1  0.93903000  0.26126800  0.45330100  1
  C  C34  1  0.94974200  0.69375600  0.45188100  1
  C  C35  1  0.99641600  0.30215800  0.46835100  1
  C  C36  1  0.01139400  0.68360300  0.49910900  1
  C  C37  1  0.60438100  0.98913600  0.49127000  1
  C  C38  1  0.37230500  0.01088600  0.48939100  1
  C  C39  1  0.40597500  0.91190300  0.32536900  1
  C  C40  1  0.56810000  0.08469900  0.64904200  1
  C  C41  1  0.88790600  0.01337000  0.51882100  1
  C  C42  1  0.10547700  0.99727600  0.49051900  1
  C  C43  1  0.99628100  0.12151400  0.50432800  1
  C  C44  1  0.99671300  0.88983600  0.50652400  1
  C  C45  1  0.75813900  0.00039700  0.46017300  1
  C  C46  1  0.23424300  0.00646400  0.54367300  1
  C  C47  1  0.82574300  0.01853000  0.52661700  1
  C  C48  1  0.16630700  0.99106000  0.48031800  1
  C  C49  1  0.69238300  0.00683100  0.46206400  1
  C  C50  1  0.29434300  0.99538200  0.53198900  1
  C  C51  1  0.67668200  0.99079000  0.50451500  1
  C  C52  1  0.30989700  0.02160700  0.49649700  1
  C  C53  1  0.46138000  0.78648800  0.10976100  1
  C  C54  1  0.49631500  0.81307000  0.20080300  1
  C  C55  1  0.57290300  0.80649000  0.23825300  1
  C  C56  1  0.53264000  0.21440700  0.84727300  1
  C  C57  1  0.50094500  0.26827200  0.88856900  1
  C  C58  1  0.43479600  0.27270100  0.82296800  1
  C  C59  1  0.21337800  0.92277000  0.07208200  1
  C  C60  1  0.27436500  0.98673400  0.16125000  1
  C  C61  1  0.27237800  0.05910800  0.16973900  1
  C  C62  1  0.72175200  0.04974500  0.85067200  1
  C  C63  1  0.75072500  0.02400900  0.90889900  1
  C  C64  1  0.71836500  0.94073000  0.85723700  1
  C  C65  1  0.87747000  0.30854100  0.50900300  1
  C  C66  1  0.81405100  0.25843700  0.48972500  1
  C  C67  1  0.81708300  0.28784600  0.56926000  1
  C  C68  1  0.87101800  0.59455800  0.32172500  1
  C  C69  1  0.79729100  0.58941700  0.25500400  1
  C  C70  1  0.78632200  0.54525300  0.17009500  1
  C  C71  1  0.03996200  0.24089200  0.39312400  1
  C  C72  1  0.04623000  0.16428500  0.36400100  1
  C  C73  1  0.04775300  0.13187200  0.28684200  1
  C  C74  1  0.12429800  0.75036100  0.62393600  1
  C  C75  1  0.08548700  0.77011100  0.66889100  1
  C  C76  1  0.14318200  0.81194700  0.76311300  1
  C  C77  1  0.35125600  0.63924600  0.88721600  1
  C  C78  1  0.31111700  0.61659000  0.79685500  1
  C  C79  1  0.36440600  0.60771600  0.77137600  1
  C  C80  1  0.69106700  0.36647300  0.14322400  1
  C  C81  1  0.60992000  0.34233300  0.10805900  1
  C  C82  1  0.60183200  0.35656700  0.17734000  1
  C  C83  1  0.74233600  0.01543000  0.63559800  1
  C  C84  1  0.75836600  0.09738100  0.66942500  1
  C  C85  1  0.80418500  0.14346600  0.76493800  1
  C  C86  1  0.30681000  0.13548300  0.53840800  1
  C  C87  1  0.25127000  0.17638400  0.53222400  1
  C  C88  1  0.28867900  0.25619600  0.60795100  1
  C  C89  1  0.07763500  0.58443300  0.88576500  1
  C  C90  1  0.04866500  0.51676900  0.79815200  1
  C  C91  1  0.00841400  0.44982700  0.78306600  1
  C  C92  1  0.91698400  0.41985700  0.11362000  1
  C  C93  1  0.90708500  0.44216600  0.05542000  1
  C  C94  1  0.95463800  0.52166500  0.10754700  1
  O  O1  1  0.05143500  0.40155800  0.47707300  1
  O  O2  1  0.95567000  0.58657700  0.49476800  1
  O  O3  1  0.95074700  0.40505300  0.48395200  1
  O  O4  1  0.05621100  0.58265500  0.48721100  1
  O  O5  1  0.11662100  0.54901500  0.60828600  1
  O  O6  1  0.89039100  0.43944200  0.36375600  1
  O  O7  1  0.01266600  0.55437500  0.60898900  1
  O  O8  1  0.99440300  0.43355000  0.36291100  1
  O  O9  1  0.57357000  0.94197300  0.49568100  1
  O  O10  1  0.40044900  0.05477100  0.47947700  1
  O  O11  1  0.57620100  0.03844900  0.48135800  1
  O  O12  1  0.39811800  0.95878500  0.49445300  1
  O  O13  1  0.42483400  0.88280400  0.36853100  1
  O  O14  1  0.54881700  0.11411700  0.60614900  1
  O  O15  1  0.42632100  0.98323000  0.36088700  1
  O  O16  1  0.54772800  0.01343000  0.61376400  1
  O  O17  1  0.95537800  0.05070300  0.58783500  1
  O  O18  1  0.03812300  0.96093700  0.42189300  1
  O  O19  1  0.87338000  0.97158900  0.44305500  1
  O  O20  1  0.12030500  0.03842700  0.56672300  1
  O  O21  1  0.04061900  0.12973800  0.57638400  1
  O  O22  1  0.95370900  0.88097400  0.43347300  1
  O  O23  1  0.95307000  0.05677400  0.43229100  1
  O  O24  1  0.03971300  0.95439900  0.57785500  1
  O  O25  1  0.39725300  0.80581000  0.07996100  1
  O  O26  1  0.59070700  0.20511300  0.90559600  1
  O  O27  1  0.21181900  0.85629700  0.06588800  1
  O  O28  1  0.76003500  0.12467800  0.89533200  1
  O  O29  1  0.87589700  0.27979100  0.43607900  1
  O  O30  1  0.88293400  0.63952700  0.40085700  1
  O  O31  1  0.05427200  0.27644000  0.47352400  1
  O  O32  1  0.07980700  0.73131100  0.54066400  1
  O  O33  1  0.30070100  0.63696200  0.90745500  1
  O  O34  1  0.69965100  0.35880800  0.08143800  1
  O  O35  1  0.72393300  0.96866100  0.55282600  1
  O  O36  1  0.27009800  0.06125600  0.46979700  1
  O  O37  1  0.10796300  0.64763800  0.89636600  1
  O  O38  1  0.88273100  0.34358100  0.06734500  1
