# generated using pymatgen
data_Zn2H17C28N3O8
_symmetry_space_group_name_H-M   'P 1'
_cell_length_a   8.53637300
_cell_length_b   10.80627200
_cell_length_c   11.23208400
_cell_angle_alpha   95.55365900
_cell_angle_beta   90.10184000
_cell_angle_gamma   90.00173300
_symmetry_Int_Tables_number   1
_chemical_formula_structural   Zn2H17C28N3O8
_chemical_formula_sum   'Zn2 H17 C28 N3 O8'
_cell_volume   1031.25376711
_cell_formula_units_Z   1
loop_
 _symmetry_equiv_pos_site_id
 _symmetry_equiv_pos_as_xyz
  1  'x, y, z'
loop_
 _atom_site_type_symbol
 _atom_site_label
 _atom_site_symmetry_multiplicity
 _atom_site_fract_x
 _atom_site_fract_y
 _atom_site_fract_z
 _atom_site_occupancy
  Zn  Zn1  1  0.49893800  0.47267400  0.85953800  1
  Zn  Zn2  1  0.49926400  0.52352500  0.12554500  1
  H  H1  1  0.99571700  0.57750700  0.94223800  1
  H  H2  1  0.99550800  0.41778600  0.04262400  1
  H  H3  1  0.25470900  0.90632600  0.00890300  1
  H  H4  1  0.25442600  0.08928800  0.97468800  1
  H  H5  1  0.61058600  0.10542500  0.00082500  1
  H  H6  1  0.49955800  0.35448700  0.28042900  1
  H  H7  1  0.49970000  0.24377000  0.45903100  1
  H  H8  1  0.49976800  0.74830300  0.53145700  1
  H  H9  1  0.49938000  0.25145000  0.67911600  1
  H  H10  1  0.49909000  0.64218000  0.70404300  1
  H  H11  1  0.49929100  0.77614600  0.20413000  1
  H  H12  1  0.35722000  0.88700000  0.43893800  1
  H  H13  1  0.24884200  0.79987100  0.32023700  1
  H  H14  1  0.34698400  0.94244700  0.29301100  1
  H  H15  1  0.64355000  0.88624800  0.43888200  1
  H  H16  1  0.65211500  0.94262000  0.29329500  1
  H  H17  1  0.75066400  0.79982200  0.31937000  1
  C  C1  1  0.99747500  0.67710400  0.95812700  1
  C  C2  1  0.13758800  0.73777300  0.97392800  1
  C  C3  1  0.14135500  0.86501100  0.99215400  1
  C  C4  1  0.85930700  0.74094500  0.97320500  1
  C  C5  1  0.86088300  0.86981400  0.98470800  1
  C  C6  1  0.00299100  0.93301500  0.98915000  1
  C  C7  1  0.00294800  0.06248700  0.99525700  1
  C  C8  1  0.14123600  0.13058300  0.99181400  1
  C  C9  1  0.13767000  0.25778600  0.01032300  1
  C  C10  1  0.72225000  0.05815800  0.99656100  1
  C  C11  1  0.86054200  0.12511800  0.00038200  1
  C  C12  1  0.85870400  0.25432900  0.01201100  1
  C  C13  1  0.99730900  0.31819500  0.02660700  1
  C  C14  1  0.27972800  0.33175500  0.00397800  1
  C  C15  1  0.27922000  0.66387200  0.98044000  1
  C  C16  1  0.71690100  0.66666667  0.98035200  1
  C  C17  1  0.71663800  0.32942000  0.00476700  1
  C  C18  1  0.49960000  0.33256000  0.51240400  1
  C  C19  1  0.49940400  0.33678300  0.63621300  1
  C  C20  1  0.49930600  0.55392600  0.65001800  1
  C  C21  1  0.49959500  0.55240400  0.52763800  1
  C  C22  1  0.49965100  0.44202800  0.45787200  1
  C  C23  1  0.49968900  0.44244600  0.33492500  1
  C  C24  1  0.49974500  0.66090000  0.35190900  1
  C  C25  1  0.49974500  0.66172100  0.47501400  1
  C  C26  1  0.49966400  0.78481400  0.30169600  1
  C  C27  1  0.35405800  0.85806200  0.34165300  1
  C  C28  1  0.64564600  0.85790400  0.34147700  1
  N  N1  1  0.72484600  0.93304200  0.98899600  1
  N  N2  1  0.49962400  0.55026100  0.28233500  1
  N  N3  1  0.49912400  0.44733200  0.70302300  1
  O  O1  1  0.32994500  0.39336600  0.10323500  1
  O  O2  1  0.33543900  0.34784500  0.89742900  1
  O  O3  1  0.32918100  0.60227300  0.88177500  1
  O  O4  1  0.33485700  0.64730000  0.08658200  1
  O  O5  1  0.66778200  0.60317400  0.88231700  1
  O  O6  1  0.66337500  0.64762100  0.08656000  1
  O  O7  1  0.66779700  0.39273600  0.10332800  1
  O  O8  1  0.66246300  0.34780000  0.89803400  1
