# Generated by REPEAT Assigner based on pymatgen
data_DB0-m3_o50_o6_f0_fsc.sym.8_sqe
_audit_creation_date              2022-05-24
_audit_creation_method            REPEAT_Assigner
_cell_length_a                    11.420470
_cell_length_b                    14.492770
_cell_length_c                    8.500915
_cell_angle_alpha                 90.000000
_cell_angle_beta                  107.680748
_cell_angle_gamma                 90.000000
_cell_volume                      1340.559818
_symmetry_space_group_name_H-M    P1
_symmetry_Int_Tables_number       1
loop_
    _symmetry_equiv_pos_site_id
    _symmetry_equiv_pos_as_xyz
    1  x,y,z
loop_
    _atom_site_type_symbol
    _atom_site_label
    _atom_site_fract_x
    _atom_site_fract_y
    _atom_site_fract_z
    _atom_type_partial_charge
    C   C1   0.686043  0.025519  0.582369  -0.092777
    C   C2   0.313981  0.974490  0.417634  -0.092043
    C   C3   0.746830  0.012457  0.747161  -0.191168
    C   C4   0.253190  0.987546  0.252843  -0.192154
    C   C5   0.870136  0.987810  0.797929  0.106064
    C   C6   0.129881  0.012182  0.202073  0.106907
    C   C7   0.925304  0.966129  0.678294  -0.131591
    C   C8   0.074713  0.033865  0.321708  -0.132353
    H   H1   0.017620  0.938927  0.713993  0.089407
    H   H2   0.982396  0.061065  0.286004  0.089465
    C   C9   0.859171  0.969987  0.512364  -0.063578
    C   C10  0.140846  0.030007  0.487638  -0.062823
    C   C11  0.740334  0.002968  0.464271  -0.125939
    C   C12  0.259686  0.997035  0.535729  -0.126711
    C   C13  0.942859  0.982749  0.974466  0.131279
    C   C14  0.057157  0.017245  0.025540  0.131639
    C   C15  0.503189  0.595404  0.996353  -0.444223
    C   C16  0.496825  0.404601  0.003641  -0.445157
    Zn  Zn1  0.492746  0.104786  0.001171  1.111816
    Zn  Zn2  0.507273  0.895220  0.998830  1.110006
    C   C17  0.510132  0.694418  0.995858  0.402870
    C   C18  0.489887  0.305587  0.004144  0.404239
    N   N1   0.486206  0.225805  0.004115  -0.278089
    N   N2   0.513811  0.774200  0.995888  -0.276494
    H   H3   0.590045  0.044356  0.544804  0.138246
    H   H4   0.409982  0.955663  0.455199  0.138105
    H   H5   0.900745  0.947016  0.420813  0.076049
    H   H6   0.099270  0.052976  0.579189  0.075937
    O   O1   0.635596  0.926623  0.889358  -0.695165
    O   O2   0.364421  0.073383  0.110643  -0.695303
    O   O3   0.377235  0.913187  0.111484  -0.720273
    O   O4   0.622783  0.086819  0.888517  -0.720563
    C   C19  0.670068  0.009059  0.855400  0.845274
    C   C20  0.329951  0.990947  0.144601  0.845431
    O   O5   0.369524  0.077947  0.778873  -0.705179
    O   O6   0.630493  0.922060  0.221127  -0.704987
    O   O7   0.617246  0.079984  0.223447  -0.710202
    O   O8   0.382771  0.920021  0.776554  -0.709997
    C   C21  0.336719  0.998074  0.707900  0.842323
    C   C22  0.663300  0.001932  0.292102  0.842107
    C   C23  0.391160  0.549573  0.949792  0.309609
    C   C24  0.608857  0.450431  0.050206  0.309853
    C   C25  0.610976  0.545529  0.046275  0.371262
    C   C26  0.389044  0.454476  0.953722  0.371631
    N   N3   0.896688  0.933840  0.089000  -0.721690
    H   H7   0.828459  0.973077  0.115263  0.327582
    H   H8   0.858356  0.872132  0.033264  0.295755
    N   N4   0.103333  0.066142  0.910998  -0.721770
    H   H9   0.141665  0.127854  0.966716  0.295819
    H   H10  0.171558  0.026895  0.884741  0.327436
    N   N5   0.274331  0.407336  0.905805  -0.743264
    H   H11  0.274063  0.363339  0.808449  0.312468
    H   H12  0.270437  0.366773  0.005601  0.319901
    N   N6   0.725691  0.592671  0.094199  -0.743150
    H   H13  0.725969  0.636670  0.191549  0.312418
    H   H14  0.729588  0.633253  0.994434  0.319894
    N   N7   0.723126  0.401955  0.102522  -0.674586
    H   H15  0.708942  0.330877  0.096279  0.325108
    H   H16  0.772132  0.419016  0.021009  0.292401
    N   N8   0.276892  0.598051  0.897487  -0.674613
    H   H17  0.291079  0.669128  0.903728  0.325131
    H   H18  0.227895  0.580997  0.979013  0.292408
