# Generated by REPEAT Assigner based on pymatgen
data_DB0-m29_o80_o150_f0_pts.sym.60
_audit_creation_date              2022-05-24
_audit_creation_method            REPEAT_Assigner
_cell_length_a                    14.051724
_cell_length_b                    9.316633
_cell_length_c                    22.522430
_cell_angle_alpha                 93.724446
_cell_angle_beta                  90.201637
_cell_angle_gamma                 69.003018
_cell_volume                      2746.303193
_symmetry_space_group_name_H-M    P1
_symmetry_Int_Tables_number       1
loop_
    _symmetry_equiv_pos_site_id
    _symmetry_equiv_pos_as_xyz
    1  x,y,z
loop_
    _atom_site_type_symbol
    _atom_site_label
    _atom_site_fract_x
    _atom_site_fract_y
    _atom_site_fract_z
    _atom_type_partial_charge
    H   H1   0.109984  0.067103  0.793145  0.190068
    C   C1   0.266707  0.994513  0.089966  -0.112727
    C   C2   0.213012  0.963895  0.135161  -0.248453
    C   C3   0.125565  0.955187  0.110507  0.429064
    N   N1   0.122001  0.981911  0.052370  -0.432902
    C   C4   0.208410  0.006581  0.039657  0.322886
    C   C5   0.055009  0.925783  0.141544  -0.320119
    C   C6   0.956323  0.927196  0.119236  0.305274
    C   C7   0.878604  0.931741  0.156759  -0.285834
    C   C8   0.796099  0.942751  0.121897  -0.043628
    C   C9   0.826678  0.944519  0.063481  0.243111
    N   N2   0.925831  0.931587  0.062372  -0.232659
    C   C10  0.760702  0.961994  0.011047  -0.246732
    C   C11  0.783350  0.002348  0.958534  0.363006
    C   C12  0.721482  0.027140  0.909491  -0.131183
    C   C13  0.770998  0.071297  0.865869  -0.268061
    C   C14  0.861431  0.070057  0.889552  0.447628
    N   N3   0.869418  0.028394  0.946049  -0.458357
    C   C15  0.931747  0.100512  0.858712  -0.331000
    C   C16  0.034244  0.082685  0.879497  0.317878
    C   C17  0.113408  0.067083  0.841107  -0.280471
    C   C18  0.197410  0.049890  0.875395  -0.058758
    C   C19  0.166505  0.054915  0.934149  0.238715
    N   N4   0.065704  0.077985  0.936162  -0.258657
    C   C20  0.232860  0.039291  0.986303  -0.215440
    H   H2   0.235004  0.948965  0.181005  0.144499
    H   H3   0.068292  0.909267  0.188479  0.176428
    H   H4   0.881404  0.931647  0.204734  0.194208
    H   H5   0.688025  0.947995  0.015980  0.171971
    H   H6   0.744100  0.100486  0.821620  0.146264
    H   H7   0.915856  0.126687  0.812707  0.177775
    H   H8   0.305368  0.053599  0.981274  0.152985
    H   H9   0.972817  0.917882  0.025432  0.216146
    H   H10  0.018119  0.100710  0.973460  0.240088
    O   O1   0.504463  0.839710  0.748141  -0.473862
    O   O2   0.470533  0.713561  0.823110  -0.470636
    C   C21  0.489702  0.717934  0.766414  0.495060
    O   O3   0.377606  0.017208  0.880156  -0.545543
    O   O4   0.304430  0.023974  0.790656  -0.531132
    C   C22  0.296562  0.029400  0.848853  0.611372
    O   O5   0.576352  0.049200  0.712852  -0.535197
    O   O6   0.611517  0.908849  0.866887  -0.656070
    C   C23  0.619672  0.021995  0.901888  0.754765
    O   O7   0.451605  0.186826  0.780643  -0.575041
    C   C24  0.509309  0.180960  0.734011  0.633849
    O   O8   0.542431  0.153533  0.906139  -0.555081
    Fe  Fe1  0.487479  0.989527  0.819060  1.446969
    O   O9   0.544490  0.815600  0.220207  -0.572683
    C   C25  0.489098  0.821132  0.267858  0.658059
    O   O10  0.447199  0.869708  0.084012  -0.516257
    O   O11  0.423723  0.952776  0.290353  -0.545938
    O   O12  0.380231  0.098288  0.137566  -0.634424
    C   C26  0.369408  0.997190  0.097350  0.728605
    Fe  Fe2  0.507465  0.013715  0.182404  1.440372
    O   O13  0.613591  0.985723  0.118894  -0.558989
    O   O14  0.693524  0.950359  0.206512  -0.526944
    C   C27  0.698167  0.956799  0.148623  0.598489
    O   O15  0.495780  0.161078  0.253423  -0.484218
    O   O16  0.562424  0.260748  0.182550  -0.421263
    C   C28  0.522767  0.273117  0.236099  0.511076
    C   C29  0.508081  0.411574  0.275358  0.053935
    C   C30  0.513943  0.398288  0.336038  -0.162545
    H   H11  0.527754  0.287137  0.353198  0.149443
    C   C31  0.506833  0.523509  0.374495  0.095016
    C   C32  0.497810  0.661698  0.351536  -0.170399
    H   H12  0.494358  0.760163  0.380751  0.137289
    C   C33  0.491731  0.676494  0.290910  0.031028
    C   C34  0.490169  0.554104  0.252480  -0.194487
    C   C35  0.463931  0.418383  0.464159  -0.155292
    H   H13  0.421794  0.362891  0.437017  0.128035
    C   C36  0.466190  0.404076  0.524691  -0.129049
    H   H14  0.425241  0.338390  0.543206  0.112863
    C   C37  0.515889  0.478436  0.561151  0.094193
    C   C38  0.563484  0.567290  0.536015  -0.178889
    H   H15  0.604893  0.623786  0.563249  0.128287
    C   C39  0.560914  0.582010  0.475363  -0.112424
    H   H16  0.600510  0.649368  0.456663  0.108563
    C   C40  0.510934  0.507774  0.439037  0.065292
    C   C41  0.517384  0.331017  0.648908  -0.212601
    H   H17  0.527920  0.229391  0.619827  0.140165
    C   C42  0.505320  0.324529  0.709284  0.077978
    C   C43  0.493255  0.452625  0.747095  -0.214201
    H   H18  0.485761  0.445228  0.794416  0.173021
    C   C44  0.496756  0.585846  0.725077  0.084628
    C   C45  0.506220  0.593304  0.664406  -0.184750
    H   H19  0.503179  0.700256  0.647140  0.158807
    C   C46  0.514412  0.466923  0.625934  0.098134
    C   C47  0.459359  0.578969  0.188472  0.675663
    F   F1   0.398245  0.729829  0.181417  -0.201515
    F   F2   0.401842  0.491358  0.170384  -0.237812
    F   F3   0.545281  0.540369  0.152215  -0.186726
