# Generated by REPEAT Assigner based on pymatgen
data_DB0-m3_o8_o26_f0_pcu.sym.110_sqe
_audit_creation_date              2022-05-24
_audit_creation_method            REPEAT_Assigner
_cell_length_a                    15.901136
_cell_length_b                    17.094360
_cell_length_c                    17.501749
_cell_angle_alpha                 90.233575
_cell_angle_beta                  91.058009
_cell_angle_gamma                 89.119878
_cell_volume                      4755.914591
_symmetry_space_group_name_H-M    P1
_symmetry_Int_Tables_number       1
loop_
    _symmetry_equiv_pos_site_id
    _symmetry_equiv_pos_as_xyz
    1  x,y,z
loop_
    _atom_site_type_symbol
    _atom_site_label
    _atom_site_fract_x
    _atom_site_fract_y
    _atom_site_fract_z
    _atom_type_partial_charge
    O   O1   0.581759  0.382502  0.498806  -0.692940
    O   O2   0.421332  0.609181  0.503442  -0.694592
    O   O3   0.437637  0.376371  0.507086  -0.641442
    O   O4   0.565462  0.615292  0.495189  -0.638514
    C   C1   0.512210  0.342812  0.503519  0.804814
    C   C2   0.490929  0.648865  0.498832  0.797098
    O   O5   0.582106  0.501189  0.610720  -0.581780
    O   O6   0.421041  0.490455  0.391502  -0.566962
    O   O7   0.438003  0.495755  0.618883  -0.666212
    O   O8   0.564987  0.495897  0.383393  -0.667052
    C   C3   0.513202  0.500271  0.650701  0.669210
    C   C4   0.489856  0.491654  0.351387  0.649962
    Zn  Zn1  0.596569  0.499919  0.496007  1.039903
    Zn  Zn2  0.406512  0.491752  0.506237  1.022779
    C   C5   0.519789  0.503406  0.734703  -0.084632
    C   C6   0.483734  0.489973  0.267129  -0.077165
    C   C7   0.454836  0.473221  0.776364  -0.120093
    C   C8   0.553226  0.512253  0.226468  -0.100446
    C   C9   0.459203  0.471068  0.855004  -0.195625
    C   C10  0.550854  0.515103  0.147807  -0.221337
    C   C11  0.528998  0.499516  0.893644  0.229936
    C   C12  0.478419  0.495331  0.107770  0.256264
    C   C13  0.594278  0.529015  0.852361  -0.230686
    C   C14  0.408716  0.473983  0.147967  -0.258218
    C   C15  0.589869  0.532863  0.773589  0.085195
    C   C16  0.410669  0.469820  0.226742  0.086377
    C   C17  0.537638  0.497875  0.977578  -0.215712
    C   C18  0.471248  0.497274  0.023627  -0.225001
    H   H1   0.400442  0.448759  0.747730  0.122740
    H   H2   0.610408  0.529641  0.255709  0.114635
    H   H3   0.408238  0.497772  0.999332  0.146513
    H   H4   0.600947  0.498456  0.001011  0.144288
    H   H5   0.648457  0.552319  0.882337  0.109522
    H   H6   0.352034  0.457751  0.117179  0.115085
    H   H7   0.606079  0.535199  0.119467  0.131514
    H   H8   0.408313  0.444314  0.884763  0.126626
    C   C19  0.518103  0.257124  0.503250  -0.266317
    C   C20  0.485144  0.734558  0.498198  -0.250419
    C   C21  0.446805  0.213070  0.511091  0.015000
    C   C22  0.556914  0.778462  0.492775  0.016617
    C   C23  0.451646  0.132559  0.508345  -0.271725
    C   C24  0.551835  0.859006  0.492700  -0.298564
    C   C25  0.528600  0.094933  0.497582  0.367714
    C   C26  0.474149  0.896812  0.497552  0.417092
    C   C27  0.600276  0.139149  0.490179  -0.166582
    C   C28  0.401994  0.852748  0.501867  -0.173155
    C   C29  0.594877  0.219785  0.493711  0.077698
    C   C30  0.407830  0.772059  0.502953  0.064726
    N   N1   0.535944  0.012319  0.496066  -0.169309
    N   N2   0.467050  0.979409  0.500404  -0.194704
    H   H9   0.618108  0.750558  0.488796  0.096456
    H   H10  0.386255  0.240883  0.519688  0.104372
    H   H11  0.610262  0.890158  0.489072  0.121291
    H   H12  0.393712  0.101286  0.515187  0.142998
    H   H13  0.651221  0.253338  0.486702  0.069808
    H   H14  0.350924  0.738595  0.506115  0.075887
    N   N3   0.281321  0.486127  0.511939  -0.162703
    N   N4   0.721752  0.505546  0.490255  -0.142962
    C   C31  0.233412  0.537495  0.471729  0.098344
    C   C32  0.769660  0.455454  0.531975  0.050174
    C   C33  0.146859  0.534478  0.473480  -0.224337
    C   C34  0.856198  0.458543  0.530278  -0.118980
    C   C35  0.109151  0.477699  0.516956  0.526993
    C   C36  0.893897  0.514273  0.485529  0.429421
    C   C37  0.159551  0.425712  0.557471  -0.392766
    C   C38  0.843491  0.565153  0.443690  -0.325038
    C   C39  0.245837  0.430597  0.554413  0.153952
    C   C40  0.757209  0.560084  0.446566  0.105995
    N   N5   0.020786  0.471194  0.521017  -0.200508
    N   N6   0.982263  0.520784  0.481458  -0.217344
    H   H15  0.740172  0.412522  0.567406  0.127008
    H   H16  0.262893  0.581280  0.437299  0.120609
    H   H17  0.891711  0.416984  0.564855  0.049777
    H   H18  0.111353  0.576975  0.440009  0.080500
    H   H19  0.131347  0.380939  0.591618  0.163377
    H   H20  0.871685  0.609119  0.408556  0.145125
    H   H21  0.285065  0.389527  0.586185  0.113731
    H   H22  0.717954  0.600240  0.413717  0.120103
    C   C41  0.334894  0.441713  0.263528  0.076731
    C   C42  0.336246  0.371310  0.302101  -0.087435
    C   C43  0.263933  0.344369  0.334688  0.031135
    Cl  Cl1  0.265523  0.255222  0.383533  -0.112942
    C   C44  0.190054  0.387242  0.328256  -0.073776
    C   C45  0.188223  0.456753  0.288630  -0.099237
    C   C46  0.260394  0.483713  0.255919  -0.173709
    H   H23  0.393943  0.337249  0.306802  0.114928
    H   H24  0.133468  0.366195  0.354006  0.075753
    H   H25  0.130195  0.490217  0.283339  0.105794
    H   H26  0.258667  0.538321  0.224967  0.111234
    C   C47  0.658615  0.571527  0.734607  0.057180
    C   C48  0.739946  0.542937  0.742840  -0.113707
    C   C49  0.804767  0.578816  0.706010  0.054425
    Cl  Cl2  0.907627  0.541684  0.715698  -0.112551
    C   C50  0.788641  0.643773  0.661393  -0.027089
    C   C51  0.707831  0.673520  0.654407  -0.202912
    C   C52  0.642976  0.637846  0.691345  -0.106281
    H   H27  0.752872  0.491546  0.777132  0.091220
    H   H28  0.839437  0.671634  0.632253  0.073809
    H   H29  0.695314  0.724889  0.620009  0.139912
    H   H30  0.579752  0.661570  0.685802  0.123792
    C   C53  0.682580  0.101423  0.478614  0.089779
    C   C54  0.750156  0.121003  0.525259  -0.093847
    C   C55  0.828001  0.086571  0.514231  0.046756
    Cl  Cl3  0.913072  0.110834  0.574224  -0.101986
    C   C56  0.838933  0.032994  0.456100  -0.100917
    C   C57  0.772073  0.014132  0.408702  -0.093571
    C   C58  0.694175  0.048432  0.419671  -0.173123
    H   H31  0.742142  0.162544  0.571381  0.094389
    H   H32  0.900005  0.006093  0.447454  0.099753
    H   H33  0.780790  0.972664  0.362633  0.107565
    H   H34  0.642644  0.034298  0.381169  0.128309
    C   C59  0.318846  0.890780  0.506197  0.093511
    C   C60  0.264462  0.870004  0.563090  -0.105835
    C   C61  0.185819  0.904748  0.567020  0.076010
    Cl  Cl4  0.117698  0.878817  0.639857  -0.115292
    C   C62  0.160800  0.959926  0.513770  -0.128918
    C   C63  0.214324  0.980085  0.456302  -0.033341
    C   C64  0.292980  0.945418  0.452267  -0.215638
    H   H35  0.283657  0.827262  0.605548  0.093782
    H   H36  0.099100  0.987084  0.516858  0.107998
    H   H37  0.194476  0.022859  0.414105  0.092916
    H   H38  0.333710  0.960600  0.406018  0.132018
