# Generated by REPEAT Assigner based on pymatgen
data_DB0-m3_o7_o14_f0_pcu.sym.48_sqe
_audit_creation_date              2022-05-24
_audit_creation_method            REPEAT_Assigner
_cell_length_a                    17.793328
_cell_length_b                    16.638092
_cell_length_c                    10.997941
_cell_angle_alpha                 90.000000
_cell_angle_beta                  90.000568
_cell_angle_gamma                 90.000000
_cell_volume                      3255.907852
_symmetry_space_group_name_H-M    P1
_symmetry_Int_Tables_number       1
loop_
    _symmetry_equiv_pos_site_id
    _symmetry_equiv_pos_as_xyz
    1  x,y,z
loop_
    _atom_site_type_symbol
    _atom_site_label
    _atom_site_fract_x
    _atom_site_fract_y
    _atom_site_fract_z
    _atom_type_partial_charge
    O   O1   0.398475  0.573237  0.497647  -0.648064
    O   O2   0.622269  0.572715  0.499793  -0.654474
    O   O3   0.397982  0.434597  0.497634  -0.691766
    O   O4   0.622153  0.434310  0.499384  -0.691385
    C   C1   0.363031  0.504142  0.497194  0.740540
    C   C2   0.657424  0.503570  0.500148  0.748031
    O   O5   0.511137  0.573011  0.317461  -0.715268
    O   O6   0.509911  0.573027  0.679875  -0.709363
    O   O7   0.510592  0.434520  0.317169  -0.684395
    O   O8   0.509559  0.434500  0.679871  -0.690899
    C   C3   0.509538  0.503867  0.259876  0.870576
    C   C4   0.508263  0.503799  0.737282  0.871336
    Zn  Zn1  0.510424  0.595071  0.498658  1.035114
    Zn  Zn2  0.510043  0.412388  0.498520  1.065674
    H   H1   0.589329  0.413962  0.108837  0.090329
    H   H2   0.588821  0.413963  0.887341  0.123189
    C   C5   0.398991  0.596838  0.123971  -0.312977
    C   C6   0.398315  0.596665  0.874332  -0.331671
    H   H3   0.393320  0.595679  0.221392  0.169888
    H   H4   0.392165  0.595390  0.776961  0.171524
    C   C7   0.347782  0.642985  0.061704  -0.110179
    C   C8   0.347399  0.642826  0.937184  -0.028309
    H   H5   0.306443  0.677693  0.111049  0.113411
    H   H6   0.305725  0.677348  0.888343  0.084468
    C   C9   0.452572  0.551798  0.935367  0.275422
    C   C10  0.452949  0.551899  0.062354  0.250992
    C   C11  0.504320  0.503904  0.125646  -0.295436
    C   C12  0.503530  0.503697  0.871513  -0.288784
    C   C13  0.550584  0.452792  0.061037  -0.030571
    C   C14  0.550242  0.452741  0.935580  -0.115362
    C   C15  0.854714  0.578362  0.529988  -0.120401
    C   C16  0.165461  0.580092  0.477317  -0.180115
    C   C17  0.776983  0.575554  0.528029  -0.123268
    C   C18  0.243230  0.577321  0.478060  -0.043457
    H   H7   0.744633  0.628857  0.547397  0.135143
    H   H8   0.275406  0.631508  0.464367  0.106446
    C   C19  0.739793  0.504561  0.502673  -0.081786
    C   C20  0.280600  0.505387  0.495750  -0.116914
    C   C21  0.780641  0.435650  0.479789  -0.036028
    C   C22  0.239840  0.435599  0.512196  -0.026206
    H   H9   0.752722  0.379506  0.459670  0.105152
    H   H10  0.267779  0.378682  0.526213  0.110031
    C   C23  0.858089  0.438360  0.479855  -0.210698
    C   C24  0.162415  0.438157  0.512809  -0.222746
    H   H11  0.889877  0.384494  0.460381  0.139086
    H   H12  0.130776  0.383488  0.526895  0.141839
    C   C25  0.895342  0.509307  0.504124  0.253576
    C   C26  0.124992  0.509917  0.496060  0.279624
    C   C27  0.976246  0.510020  0.501488  -0.134198
    C   C28  0.044078  0.510211  0.498885  -0.145552
    C   C29  0.453841  0.838082  0.440042  -0.119717
    C   C30  0.567634  0.838203  0.556304  -0.140785
    C   C31  0.455329  0.754895  0.441054  -0.074345
    C   C32  0.566151  0.755003  0.555769  -0.043621
    H   H13  0.412411  0.720336  0.395543  0.188024
    H   H14  0.609064  0.720519  0.601468  0.170867
    N   N1   0.510712  0.715240  0.498593  0.014664
    C   C33  0.510712  0.880429  0.498098  0.268957
    C   C34  0.510586  0.967349  0.498003  -0.096407
    C   C35  0.510392  0.040092  0.498049  -0.108914
    C   C36  0.479513  0.169334  0.401330  -0.179038
    C   C37  0.540482  0.169282  0.595407  -0.155140
    C   C38  0.479694  0.252509  0.403997  0.022826
    C   C39  0.540195  0.252459  0.592986  -0.029100
    H   H15  0.455405  0.286992  0.330800  0.142313
    H   H16  0.564392  0.286888  0.666323  0.163487
    N   N2   0.509962  0.292213  0.498505  -0.025998
    C   C40  0.510133  0.127017  0.498236  0.277145
    C   C41  0.445649  0.125937  0.295293  0.670595
    F   F1   0.421768  0.179558  0.207444  -0.216535
    F   F2   0.384361  0.081960  0.334214  -0.190601
    F   F3   0.498438  0.075369  0.243716  -0.193787
    C   C42  0.574204  0.125763  0.701462  0.658337
    F   F4   0.597415  0.179274  0.789931  -0.211856
    F   F5   0.635897  0.082287  0.662862  -0.191019
    F   F6   0.521523  0.074677  0.752192  -0.191894
    C   C43  0.894332  0.655395  0.559558  0.638906
    F   F7   0.940833  0.644032  0.658790  -0.204802
    F   F8   0.843497  0.715412  0.587504  -0.224301
    F   F9   0.936232  0.679817  0.460494  -0.198765
    C   C44  0.125607  0.658272  0.456796  0.659165
    F   F10  0.078861  0.651741  0.356857  -0.202741
    F   F11  0.176235  0.719660  0.435448  -0.233287
    F   F12  0.083912  0.677582  0.558642  -0.192851
    C   C45  0.391772  0.881531  0.375536  0.608204
    F   F13  0.339775  0.827951  0.329247  -0.179311
    F   F14  0.421438  0.925266  0.280166  -0.191729
    F   F15  0.355274  0.932381  0.455573  -0.187618
    C   C46  0.629667  0.881741  0.620716  0.634938
    F   F16  0.681742  0.828235  0.666972  -0.187616
    F   F17  0.599953  0.925419  0.716086  -0.196028
    F   F18  0.666057  0.932627  0.540622  -0.191741
