# Generated by REPEAT Assigner based on pymatgen
data_DB0-m3_o22_o27_f0_nbo.sym.100
_audit_creation_date              2022-05-24
_audit_creation_method            REPEAT_Assigner
_cell_length_a                    30.494296
_cell_length_b                    30.376906
_cell_length_c                    24.609218
_cell_angle_alpha                 90.000000
_cell_angle_beta                  128.282137
_cell_angle_gamma                 90.000000
_cell_volume                      17894.219934
_symmetry_space_group_name_H-M    P1
_symmetry_Int_Tables_number       1
loop_
    _symmetry_equiv_pos_site_id
    _symmetry_equiv_pos_as_xyz
    1  x,y,z
loop_
    _atom_site_type_symbol
    _atom_site_label
    _atom_site_fract_x
    _atom_site_fract_y
    _atom_site_fract_z
    _atom_type_partial_charge
    O   O1    0.822462  0.764752  0.499483  -0.727279
    O   O2    0.177538  0.764752  0.500517  -0.727383
    O   O3    0.322462  0.264752  0.499483  -0.727333
    O   O4    0.677538  0.264752  0.500517  -0.727405
    O   O5    0.767817  0.818413  0.497319  -0.698144
    O   O6    0.232183  0.818413  0.502682  -0.698242
    O   O7    0.267817  0.318413  0.497319  -0.698165
    O   O8    0.732183  0.318413  0.502682  -0.698237
    C   C1    0.809395  0.806107  0.497969  0.450295
    C   C2    0.190605  0.806107  0.502031  0.450429
    C   C3    0.309395  0.306107  0.497969  0.450398
    C   C4    0.690605  0.306107  0.502031  0.450377
    O   O9    0.728253  0.716181  0.399449  -0.625192
    O   O10   0.271747  0.716181  0.600552  -0.625139
    O   O11   0.228253  0.216181  0.399449  -0.625157
    O   O12   0.771747  0.216181  0.600552  -0.625143
    O   O13   0.671035  0.768452  0.394444  -0.666378
    O   O14   0.328965  0.768452  0.605556  -0.666354
    O   O15   0.171035  0.268452  0.394444  -0.666392
    O   O16   0.828965  0.268452  0.605556  -0.666378
    C   C5    0.683833  0.741434  0.364541  0.651614
    C   C6    0.316168  0.741434  0.635459  0.651518
    C   C7    0.183833  0.241434  0.364541  0.651586
    C   C8    0.816168  0.241434  0.635459  0.651583
    Zn  Zn1   0.785790  0.710649  0.503565  1.312368
    Zn  Zn2   0.214210  0.710649  0.496435  1.312350
    Zn  Zn3   0.285790  0.210649  0.503565  1.312333
    Zn  Zn4   0.714210  0.210649  0.496435  1.312331
    Zn  Zn5   0.712153  0.781181  0.496251  1.302699
    Zn  Zn6   0.287848  0.781181  0.503749  1.302755
    Zn  Zn7   0.212153  0.281181  0.496251  1.302715
    Zn  Zn8   0.787848  0.281181  0.503749  1.302765
    O   O17   0.730059  0.673453  0.502351  -0.731680
    O   O18   0.269941  0.673453  0.497649  -0.731648
    O   O19   0.230059  0.173453  0.502351  -0.731643
    O   O20   0.769941  0.173453  0.497649  -0.731606
    O   O21   0.675544  0.727071  0.500502  -0.687994
    O   O22   0.324457  0.727071  0.499498  -0.688016
    O   O23   0.175544  0.227071  0.500502  -0.687943
    O   O24   0.824457  0.227071  0.499498  -0.687938
    O   O25   0.826898  0.723350  0.605412  -0.670974
    O   O26   0.173103  0.723350  0.394589  -0.670964
    O   O27   0.326898  0.223350  0.605412  -0.670939
    O   O28   0.673103  0.223350  0.394589  -0.670941
    O   O29   0.769745  0.775711  0.600388  -0.665022
    O   O30   0.230256  0.775711  0.399613  -0.665047
    O   O31   0.269745  0.275711  0.600388  -0.665047
    O   O32   0.730256  0.275711  0.399613  -0.665068
    C   C9    0.688701  0.685720  0.502114  0.461093
    C   C10   0.311299  0.685720  0.497886  0.461061
    C   C11   0.188701  0.185720  0.502114  0.461006
    C   C12   0.811299  0.185720  0.497886  0.460911
    C   C13   0.814140  0.750401  0.635308  0.681785
    C   C14   0.185861  0.750401  0.364693  0.681814
    C   C15   0.314140  0.250401  0.635308  0.681805
    C   C16   0.685861  0.250401  0.364693  0.681820
    C   C17   0.603506  0.768961  0.250072  -0.168002
    C   C18   0.396494  0.768961  0.749928  -0.168086
    C   C19   0.103506  0.268961  0.250072  -0.167966
    C   C20   0.896494  0.268961  0.749928  -0.168015
    H   H1    0.596016  0.793899  0.274762  0.111008
    H   H2    0.403984  0.793899  0.725238  0.111021
    H   H3    0.096016  0.293899  0.274762  0.111003
    H   H4    0.903984  0.293899  0.725238  0.111014
    C   C21   0.568904  0.767037  0.178955  0.101471
    C   C22   0.431096  0.767037  0.821046  0.101577
    C   C23   0.068904  0.267037  0.178955  0.101388
    C   C24   0.931096  0.267037  0.821046  0.101366
    H   H5    0.534734  0.790159  0.149724  0.066114
    H   H6    0.465266  0.790159  0.850276  0.066089
    H   H7    0.034734  0.290159  0.149724  0.066141
    H   H8    0.965266  0.290159  0.850276  0.066152
    C   C25   0.576469  0.735353  0.145198  -0.677325
    C   C26   0.423531  0.735353  0.854802  -0.677430
    C   C27   0.076469  0.235353  0.145198  -0.677211
    C   C28   0.923531  0.235353  0.854802  -0.676988
    C   C29   0.620891  0.705914  0.183720  0.340568
    C   C30   0.379109  0.705914  0.816280  0.340636
    C   C31   0.120891  0.205914  0.183720  0.340488
    C   C32   0.879109  0.205914  0.816280  0.340316
    C   C33   0.655682  0.708220  0.255471  -0.208487
    C   C34   0.344319  0.708220  0.744529  -0.208562
    C   C35   0.155682  0.208220  0.255471  -0.208474
    C   C36   0.844319  0.208220  0.744529  -0.208421
    H   H9    0.689680  0.685258  0.286399  0.100283
    H   H10   0.310320  0.685258  0.713602  0.100285
    H   H11   0.189680  0.185258  0.286399  0.100287
    H   H12   0.810320  0.185258  0.713602  0.100275
    C   C37   0.646928  0.739460  0.288700  0.091836
    C   C38   0.353072  0.739460  0.711301  0.091957
    C   C39   0.146928  0.239460  0.288700  0.091836
    C   C40   0.853072  0.239460  0.711301  0.091842
    N   N1    0.518255  0.696549  0.034146  -0.371542
    N   N2    0.481745  0.696549  0.965854  -0.371290
    N   N3    0.018255  0.196549  0.034146  -0.371522
    N   N4    0.981745  0.196549  0.965854  -0.371272
    C   C41   0.462729  0.734795  0.930837  0.994937
    C   C42   0.537271  0.734795  0.069163  0.995068
    C   C43   0.962729  0.234795  0.930837  0.994745
    C   C44   0.037271  0.234795  0.069163  0.995013
    N   N5    0.481798  0.773050  0.965833  -0.363648
    N   N6    0.518202  0.773050  0.034168  -0.363723
    N   N7    0.981798  0.273050  0.965833  -0.363684
    N   N8    0.018202  0.273050  0.034168  -0.363688
    C   C45   0.905194  0.836639  0.562595  0.190071
    C   C46   0.094806  0.836639  0.437405  0.190006
    C   C47   0.405194  0.336639  0.562595  0.189954
    C   C48   0.594806  0.336639  0.437405  0.189947
    H   H13   0.922770  0.806880  0.556449  -0.113025
    H   H14   0.077230  0.806880  0.443551  -0.112967
    H   H15   0.422770  0.306880  0.556449  -0.112952
    H   H16   0.577230  0.306880  0.443551  -0.112952
    C   C49   0.937652  0.875713  0.566227  -0.209279
    C   C50   0.062349  0.875713  0.433773  -0.209375
    C   C51   0.437652  0.375713  0.566227  -0.209265
    C   C52   0.562349  0.375713  0.433773  -0.209327
    H   H17   0.946748  0.898761  0.606983  0.095376
    H   H18   0.053252  0.898761  0.393018  0.095402
    H   H19   0.446748  0.398761  0.606983  0.095389
    H   H20   0.553252  0.398761  0.393018  0.095411
    H   H21   0.977885  0.864024  0.580217  0.023393
    H   H22   0.022116  0.864024  0.419783  0.023449
    H   H23   0.477885  0.364024  0.580217  0.023397
    H   H24   0.522116  0.364024  0.419783  0.023430
    H   H25   0.856770  0.799416  0.436692  0.099858
    H   H26   0.143230  0.799416  0.563308  0.099803
    H   H27   0.356770  0.299416  0.436692  0.099805
    H   H28   0.643230  0.299416  0.563308  0.099831
    C   C53   0.842660  0.833223  0.435735  -0.266782
    C   C54   0.157340  0.833223  0.564265  -0.266635
    C   C55   0.342660  0.333223  0.435735  -0.266612
    C   C56   0.657340  0.333223  0.564265  -0.266766
    C   C57   0.819925  0.886363  0.489889  -0.261931
    C   C58   0.180076  0.886363  0.510111  -0.261952
    C   C59   0.319925  0.386363  0.489889  -0.261961
    C   C60   0.680076  0.386363  0.510111  -0.262014
    C   C61   0.844121  0.840623  0.497815  0.612898
    C   C62   0.155880  0.840623  0.502185  0.613015
    C   C63   0.344121  0.340623  0.497815  0.612850
    C   C64   0.655880  0.340623  0.502185  0.613198
    H   H29   0.776677  0.887871  0.440621  0.035078
    H   H30   0.223323  0.887871  0.559379  0.035072
    H   H31   0.276677  0.387871  0.440621  0.035078
    H   H32   0.723323  0.387871  0.559379  0.035078
    H   H33   0.818094  0.894298  0.532263  0.047173
    H   H34   0.181906  0.894298  0.467737  0.047174
    H   H35   0.318094  0.394298  0.532263  0.047181
    H   H36   0.681906  0.394298  0.467737  0.047176
    C   C65   0.903261  0.899181  0.496586  0.104419
    C   C66   0.096739  0.899181  0.503415  0.104419
    C   C67   0.403261  0.399181  0.496586  0.104466
    C   C68   0.596739  0.399181  0.503415  0.104283
    C   C69   0.879918  0.866851  0.436400  0.342879
    C   C70   0.120082  0.866851  0.563600  0.342657
    C   C71   0.379918  0.366851  0.436400  0.342695
    C   C72   0.620082  0.366851  0.563600  0.342716
    C   C73   0.854282  0.920971  0.487126  -0.023851
    C   C74   0.145718  0.920971  0.512874  -0.023791
    C   C75   0.354282  0.420971  0.487126  -0.023796
    C   C76   0.645718  0.420971  0.512874  -0.023728
    H   H37   0.869586  0.945562  0.528665  0.041661
    H   H38   0.130415  0.945562  0.471335  0.041647
    H   H39   0.369586  0.445562  0.528665  0.041649
    H   H40   0.630415  0.445562  0.471335  0.041645
    H   H41   0.827741  0.938019  0.436405  0.013561
    H   H42   0.172259  0.938019  0.563595  0.013545
    H   H43   0.327741  0.438019  0.436405  0.013547
    H   H44   0.672259  0.438019  0.563595  0.013539
    H   H45   0.799246  0.837078  0.387438  0.021422
    H   H46   0.200754  0.837078  0.612562  0.021392
    H   H47   0.299246  0.337078  0.387438  0.021395
    H   H48   0.700754  0.337078  0.612562  0.021419
    H   H49   0.853403  0.885303  0.386969  -0.066247
    H   H50   0.146598  0.885303  0.613031  -0.066185
    H   H51   0.353403  0.385303  0.386969  -0.066186
    H   H52   0.646598  0.385303  0.613031  -0.066180
    C   C77   0.837561  0.778057  0.744985  -0.275733
    C   C78   0.162439  0.778057  0.255015  -0.275694
    C   C79   0.337561  0.278057  0.744985  -0.275691
    C   C80   0.662439  0.278057  0.255015  -0.275649
    H   H53   0.798219  0.795351  0.714524  0.111905
    H   H54   0.201781  0.795351  0.285477  0.111905
    H   H55   0.298219  0.295351  0.714524  0.111897
    H   H56   0.701781  0.295351  0.285477  0.111888
    C   C81   0.873001  0.780750  0.816761  0.314488
    C   C82   0.126999  0.780750  0.183240  0.314493
    C   C83   0.373001  0.280750  0.816761  0.314473
    C   C84   0.626999  0.280750  0.183240  0.314420
    C   C85   0.923057  0.757268  0.854709  -0.689663
    C   C86   0.076943  0.757268  0.145292  -0.689675
    C   C87   0.423057  0.257268  0.854709  -0.689678
    C   C88   0.576943  0.257268  0.145292  -0.689658
    C   C89   0.937076  0.732796  0.820175  0.133177
    C   C90   0.062924  0.732796  0.179825  0.133228
    C   C91   0.437076  0.232796  0.820175  0.133175
    C   C92   0.562924  0.232796  0.179825  0.133243
    H   H57   0.975786  0.714517  0.848791  0.070032
    H   H58   0.024214  0.714517  0.151209  0.070020
    H   H59   0.475786  0.214517  0.848791  0.070046
    H   H60   0.524214  0.214517  0.151209  0.070015
    C   C93   0.901645  0.730302  0.749102  -0.219763
    C   C94   0.098355  0.730302  0.250899  -0.219809
    C   C95   0.401645  0.230302  0.749102  -0.219750
    C   C96   0.598355  0.230302  0.250899  -0.219816
    H   H61   0.913875  0.710604  0.723931  0.114200
    H   H62   0.086125  0.710604  0.276069  0.114221
    H   H63   0.413875  0.210604  0.723931  0.114189
    H   H64   0.586125  0.210604  0.276069  0.114220
    C   C97   0.851644  0.752803  0.711135  0.186171
    C   C98   0.148356  0.752803  0.288865  0.186137
    C   C99   0.351644  0.252803  0.711135  0.186127
    C   C100  0.648356  0.252803  0.288865  0.186122
    N   N9    0.018161  0.757472  0.962586  -0.414359
    N   N10   0.981839  0.757472  0.037414  -0.414346
    N   N11   0.518161  0.257472  0.962586  -0.414472
    N   N12   0.481839  0.257472  0.037414  -0.414333
    N   N13   0.054656  0.757518  0.030906  -0.325065
    N   N14   0.945345  0.757518  0.969094  -0.325087
    N   N15   0.554656  0.257518  0.030906  -0.324984
    N   N16   0.445345  0.257518  0.969094  -0.325122
    C   C101  0.036978  0.758234  0.069227  1.015255
    C   C102  0.963022  0.758234  0.930773  1.015292
    C   C103  0.536978  0.258234  0.069227  1.015218
    C   C104  0.463022  0.258234  0.930773  1.015390
    C   C105  0.693707  0.617528  0.561509  0.344131
    C   C106  0.306293  0.617528  0.438491  0.344150
    C   C107  0.193707  0.117528  0.561509  0.344089
    C   C108  0.806293  0.117528  0.438491  0.344093
    H   H65   0.722346  0.603090  0.552915  -0.072165
    H   H66   0.277654  0.603090  0.447085  -0.072153
    H   H67   0.222346  0.103090  0.552915  -0.072149
    H   H68   0.777654  0.103090  0.447085  -0.072147
    C   C109  0.658634  0.580280  0.557562  -0.339183
    C   C110  0.341367  0.580280  0.442439  -0.339268
    C   C111  0.158634  0.080280  0.557562  -0.339140
    C   C112  0.841367  0.080280  0.442439  -0.339191
    H   H69   0.668225  0.549474  0.542607  0.035894
    H   H70   0.331775  0.549474  0.457394  0.035906
    H   H71   0.168225  0.049474  0.542607  0.035885
    H   H72   0.831775  0.049474  0.457394  0.035888
    H   H73   0.669050  0.575435  0.609009  0.113733
    H   H74   0.330950  0.575435  0.390991  0.113755
    H   H75   0.169050  0.075435  0.609009  0.113727
    H   H76   0.830950  0.075435  0.390991  0.113746
    H   H77   0.636020  0.693156  0.558539  -0.015706
    H   H78   0.363980  0.693156  0.441462  -0.015793
    H   H79   0.136020  0.193156  0.558539  -0.015784
    H   H80   0.863980  0.193156  0.441462  -0.015799
    H   H81   0.599816  0.634341  0.575370  0.004906
    H   H82   0.400184  0.634341  0.424630  0.004921
    H   H83   0.099816  0.134341  0.575370  0.004894
    H   H84   0.900184  0.134341  0.424630  0.004905
    C   C113  0.614422  0.671089  0.512878  -0.077081
    C   C114  0.385579  0.671089  0.487122  -0.076695
    C   C115  0.114422  0.171089  0.512878  -0.076799
    C   C116  0.885579  0.171089  0.487122  -0.076733
    C   C117  0.621985  0.626439  0.435504  0.023284
    C   C118  0.378015  0.626439  0.564496  0.023211
    C   C119  0.121985  0.126439  0.435504  0.023308
    C   C120  0.878015  0.126439  0.564496  0.023207
    C   C121  0.655291  0.650746  0.503971  0.399920
    C   C122  0.344709  0.650746  0.496030  0.399847
    C   C123  0.155291  0.150746  0.503971  0.399862
    C   C124  0.844709  0.150746  0.496030  0.399961
    H   H85   0.597321  0.650221  0.392213  -0.020781
    H   H86   0.402679  0.650221  0.607787  -0.020765
    H   H87   0.097321  0.150221  0.392213  -0.020777
    H   H88   0.902679  0.150221  0.607787  -0.020764
    H   H89   0.650597  0.608301  0.430005  -0.027160
    H   H90   0.349403  0.608301  0.569995  -0.027150
    H   H91   0.150597  0.108301  0.430005  -0.027162
    H   H92   0.849403  0.108301  0.569995  -0.027157
    C   C125  0.596988  0.591059  0.503699  0.377479
    C   C126  0.403012  0.591059  0.496301  0.377507
    C   C127  0.096988  0.091059  0.503699  0.377493
    C   C128  0.903012  0.091059  0.496301  0.377454
    C   C129  0.584880  0.634883  0.521266  -0.103544
    C   C130  0.415120  0.634883  0.478734  -0.103690
    C   C131  0.084880  0.134883  0.521266  -0.103576
    C   C132  0.915120  0.134883  0.478734  -0.103624
    C   C133  0.582864  0.594180  0.432779  -0.227189
    C   C134  0.417136  0.594180  0.567221  -0.227143
    C   C135  0.082864  0.094180  0.432779  -0.227250
    C   C136  0.917136  0.094180  0.567221  -0.227148
    H   H93   0.587591  0.561491  0.416845  0.058780
    H   H94   0.412410  0.561491  0.583155  0.058780
    H   H95   0.087591  0.061491  0.416845  0.058797
    H   H96   0.912410  0.061491  0.583155  0.058787
    H   H97   0.539324  0.605955  0.394116  0.046065
    H   H98   0.460676  0.605955  0.605884  0.046055
    H   H99   0.039324  0.105955  0.394116  0.046074
    H   H100  0.960676  0.105955  0.605884  0.046054
    H   H101  0.582700  0.690571  0.466132  0.014252
    H   H102  0.417301  0.690571  0.533868  0.014157
    H   H103  0.082700  0.190571  0.466132  0.014171
    H   H104  0.917301  0.190571  0.533868  0.014145
    H   H105  0.539250  0.641200  0.486044  0.018828
    H   H106  0.460750  0.641200  0.513956  0.018835
    H   H107  0.039250  0.141200  0.486044  0.018814
    H   H108  0.960750  0.141200  0.513956  0.018830
    O   O33   0.078203  0.949901  0.562586  -0.710417
    O   O34   0.921797  0.949901  0.437414  -0.710441
    O   O35   0.578203  0.449901  0.562586  -0.710415
    O   O36   0.421797  0.449901  0.437414  -0.710437
    O   O37   0.017110  0.947816  0.443198  -0.733411
    O   O38   0.982890  0.947816  0.556802  -0.733465
    O   O39   0.517110  0.447816  0.443198  -0.733432
    O   O40   0.482890  0.447816  0.556802  -0.733487
    C   C137  0.062116  0.934150  0.503121  0.610538
    C   C138  0.937884  0.934150  0.496879  0.610585
    C   C139  0.562116  0.434150  0.503121  0.610557
    C   C140  0.437884  0.434150  0.496879  0.610557
    Zn  Zn9   0.538367  0.495259  0.578329  1.337439
    Zn  Zn10  0.461634  0.495259  0.421672  1.337412
    Zn  Zn11  0.038367  0.995259  0.578329  1.337437
    Zn  Zn12  0.961634  0.995259  0.421672  1.337411
    O   O41   0.482174  0.541998  0.556839  -0.736220
    O   O42   0.517826  0.541998  0.443161  -0.736169
    O   O43   0.982174  0.041998  0.556839  -0.736220
    O   O44   0.017826  0.041998  0.443161  -0.736168
    O   O45   0.422565  0.541343  0.437424  -0.715111
    O   O46   0.577436  0.541343  0.562576  -0.715077
    O   O47   0.922565  0.041343  0.437424  -0.715132
    O   O48   0.077436  0.041343  0.562576  -0.715095
    C   C141  0.437687  0.556136  0.496877  0.617708
    C   C142  0.562313  0.556136  0.503124  0.617610
    C   C143  0.937687  0.056136  0.496877  0.617712
    C   C144  0.062313  0.056136  0.503124  0.617613
    C   C145  0.925156  0.843461  0.438385  0.032662
    O   O49   0.900333  0.819623  0.377376  -0.622712
    H   H109  0.949576  0.820628  0.482947  0.050754
    H   H110  0.954018  0.867654  0.442156  0.031511
    H   H111  0.914753  0.833481  0.354850  0.384475
    C   C146  0.074844  0.843461  0.561615  0.032563
    O   O50   0.099667  0.819623  0.622624  -0.622653
    H   H112  0.050424  0.820628  0.517053  0.050753
    H   H113  0.045983  0.867654  0.557845  0.031590
    H   H114  0.085247  0.833481  0.645150  0.384471
    C   C147  0.425156  0.343461  0.438385  0.032470
    O   O51   0.400333  0.319623  0.377376  -0.622631
    H   H115  0.449576  0.320628  0.482947  0.050781
    H   H116  0.454018  0.367654  0.442156  0.031629
    H   H117  0.414753  0.333481  0.354850  0.384457
    C   C148  0.574844  0.343461  0.561615  0.032492
    O   O52   0.599667  0.319623  0.622624  -0.622631
    H   H118  0.550424  0.320628  0.517053  0.050774
    H   H119  0.545983  0.367654  0.557845  0.031634
    H   H120  0.585247  0.333481  0.645150  0.384462
    C   C149  0.858317  0.810323  0.852246  0.291338
    O   O53   0.813412  0.837601  0.804857  -0.593857
    H   H121  0.894573  0.831482  0.890351  0.008265
    H   H122  0.846717  0.790091  0.879092  -0.056626
    H   H123  0.784049  0.829547  0.808844  0.384770
    C   C150  0.141683  0.810323  0.147755  0.291346
    O   O54   0.186588  0.837601  0.195143  -0.593908
    H   H124  0.105427  0.831482  0.109649  0.008273
    H   H125  0.153284  0.790091  0.120909  -0.056638
    H   H126  0.215951  0.829547  0.191156  0.384802
    C   C151  0.358317  0.310323  0.852246  0.291335
    O   O55   0.313412  0.337601  0.804857  -0.593862
    H   H127  0.394573  0.331482  0.890351  0.008270
    H   H128  0.346717  0.290091  0.879092  -0.056627
    H   H129  0.284049  0.329547  0.808844  0.384774
    C   C152  0.641683  0.310323  0.147755  0.291428
    O   O56   0.686588  0.337601  0.195143  -0.593898
    H   H130  0.605427  0.331482  0.109649  0.008255
    H   H131  0.653284  0.290091  0.120909  -0.056664
    H   H132  0.715951  0.329547  0.191156  0.384790
    C   C153  0.729590  0.638096  0.633663  0.086292
    O   O57   0.770481  0.608068  0.680963  -0.601009
    H   H133  0.704093  0.647044  0.650007  0.037190
    H   H134  0.750778  0.668172  0.635012  -0.033873
    H   H135  0.805656  0.620205  0.693021  0.367010
    C   C154  0.270410  0.638096  0.366338  0.086236
    O   O58   0.229519  0.608068  0.319037  -0.600985
    H   H136  0.295907  0.647044  0.349993  0.037193
    H   H137  0.249223  0.668172  0.364988  -0.033849
    H   H138  0.194344  0.620205  0.306979  0.367002
    C   C155  0.229590  0.138096  0.633663  0.086285
    O   O59   0.270481  0.108068  0.680963  -0.601005
    H   H139  0.204093  0.147044  0.650007  0.037193
    H   H140  0.250778  0.168172  0.635012  -0.033868
    H   H141  0.305656  0.120205  0.693021  0.367007
    C   C156  0.770410  0.138096  0.366338  0.086218
    O   O60   0.729519  0.108068  0.319037  -0.600983
    H   H142  0.795907  0.147044  0.349993  0.037200
    H   H143  0.749223  0.168172  0.364988  -0.033834
    H   H144  0.694344  0.120205  0.306979  0.367002
    C   C157  0.632901  0.673251  0.148661  0.196554
    O   O61   0.685576  0.654412  0.195620  -0.573168
    H   H145  0.631846  0.689956  0.107788  0.043308
    H   H146  0.601191  0.646665  0.125248  -0.031520
    H   H147  0.678092  0.622560  0.194289  0.374916
    C   C158  0.367099  0.673251  0.851339  0.196578
    O   O62   0.314424  0.654412  0.804380  -0.573162
    H   H148  0.368154  0.689956  0.892213  0.043298
    H   H149  0.398809  0.646665  0.874752  -0.031558
    H   H150  0.321908  0.622560  0.805711  0.374917
    C   C159  0.132901  0.173251  0.148661  0.196603
    O   O63   0.185576  0.154412  0.195620  -0.573179
    H   H151  0.131846  0.189956  0.107788  0.043309
    H   H152  0.101191  0.146665  0.125248  -0.031530
    H   H153  0.178092  0.122560  0.194289  0.374916
    C   C160  0.867099  0.173251  0.851339  0.196715
    O   O64   0.814424  0.154412  0.804380  -0.573179
    H   H154  0.868154  0.189956  0.892213  0.043285
    H   H155  0.898809  0.146665  0.874752  -0.031580
    H   H156  0.821908  0.122560  0.805711  0.374913
    C   C161  0.914805  0.830468  0.630993  0.125194
    O   O65   0.892317  0.864910  0.644036  -0.600517
    H   H157  0.960429  0.828965  0.673590  -0.004700
    H   H158  0.896821  0.798882  0.631246  -0.014876
    H   H159  0.867799  0.850264  0.652105  0.381803
    C   C162  0.085195  0.830468  0.369007  0.125169
    O   O66   0.107683  0.864910  0.355964  -0.600511
    H   H160  0.039571  0.828965  0.326410  -0.004691
    H   H161  0.103179  0.798882  0.368754  -0.014872
    H   H162  0.132201  0.850264  0.347895  0.381807
    C   C163  0.414805  0.330468  0.630993  0.125198
    O   O67   0.392317  0.364910  0.644036  -0.600515
    H   H163  0.460429  0.328965  0.673590  -0.004696
    H   H164  0.396821  0.298882  0.631246  -0.014873
    H   H165  0.367799  0.350264  0.652105  0.381807
    C   C164  0.585195  0.330468  0.369007  0.125183
    O   O68   0.607683  0.364910  0.355964  -0.600526
    H   H166  0.539571  0.328965  0.326410  -0.004695
    H   H167  0.603179  0.298882  0.368754  -0.014869
    H   H168  0.632201  0.350264  0.347895  0.381813
