# generated using pymatgen
data_Zn2H20C37(NO5)2
_symmetry_space_group_name_H-M   'P 1'
_cell_length_a   11.91303600
_cell_length_b   12.58166500
_cell_length_c   13.73548100
_cell_angle_alpha   86.64007500
_cell_angle_beta   90.00504100
_cell_angle_gamma   101.69220300
_symmetry_Int_Tables_number   1
_chemical_formula_structural   Zn2H20C37(NO5)2
_chemical_formula_sum   'Zn2 H20 C37 N2 O10'
_cell_volume   2012.42382728
_cell_formula_units_Z   1
loop_
 _symmetry_equiv_pos_site_id
 _symmetry_equiv_pos_as_xyz
  1  'x, y, z'
loop_
 _atom_site_type_symbol
 _atom_site_label
 _atom_site_symmetry_multiplicity
 _atom_site_fract_x
 _atom_site_fract_y
 _atom_site_fract_z
 _atom_site_occupancy
  Zn  Zn1  1  0.47775500  0.38694900  0.47910900  1
  Zn  Zn2  1  0.52819800  0.62761900  0.51787900  1
  H  H1  1  0.46355100  0.74281800  0.22905800  1
  H  H2  1  0.40013300  0.72999300  0.89861200  1
  H  H3  1  0.42777300  0.78323700  0.05882100  1
  H  H4  1  0.52573500  0.43508100  0.16469200  1
  H  H5  1  0.55132200  0.27747200  0.76167500  1
  H  H6  1  0.55795200  0.33789600  0.05725800  1
  H  H7  1  0.57902800  0.22420700  0.93024200  1
  H  H8  1  0.40803500  0.60671400  0.77579700  1
  H  H9  1  0.31928600  0.25224400  0.35193800  1
  H  H10  1  0.30305000  0.88300400  0.33529900  1
  H  H11  1  0.27306500  0.06164800  0.31341400  1
  H  H12  1  0.56613300  0.19207500  0.55093700  1
  H  H13  1  0.68248200  0.75037700  0.64253300  1
  H  H14  1  0.64823900  0.07821100  0.61762800  1
  H  H15  1  0.39900200  0.75154600  0.41086100  1
  H  H16  1  0.95924200  0.05897600  0.77949500  1
  H  H17  1  0.85051900  0.02987400  0.87533200  1
  H  H18  1  0.92020100  0.24438700  0.75124600  1
  H  H19  1  0.96050500  0.21939700  0.87634900  1
  H  H20  1  0.81160800  0.21534900  0.84672800  1
  C  C1  1  0.49884000  0.45798000  0.68706900  1
  C  C2  1  0.72293800  0.51054200  0.49279400  1
  C  C3  1  0.50570900  0.55641500  0.31041800  1
  C  C4  1  0.28293200  0.50375100  0.50457400  1
  C  C5  1  0.84324600  0.50998500  0.49434800  1
  C  C6  1  0.94398300  0.50835900  0.49700100  1
  C  C7  1  0.06188900  0.50596300  0.50064800  1
  C  C8  1  0.16262700  0.50432900  0.50321900  1
  C  C9  1  0.45149300  0.70683500  0.08040700  1
  C  C10  1  0.49668900  0.58481900  0.20596200  1
  C  C11  1  0.53502700  0.33009900  0.81711100  1
  C  C12  1  0.55200200  0.29994600  0.91242800  1
  C  C13  1  0.53901600  0.36671400  0.98523400  1
  C  C14  1  0.50408500  0.46472900  0.96440400  1
  C  C15  1  0.48317700  0.49372600  0.86707700  1
  C  C16  1  0.49041600  0.53487000  0.03805300  1
  C  C17  1  0.45888700  0.63263200  0.01197500  1
  C  C18  1  0.43089500  0.65640400  0.91754200  1
  C  C19  1  0.43920200  0.58646900  0.84652700  1
  C  C20  1  0.50630000  0.51080900  0.13726000  1
  C  C21  1  0.47229400  0.68410900  0.17673900  1
  C  C22  1  0.50325400  0.42768400  0.79253000  1
  C  C23  1  0.33832300  0.08784000  0.36648300  1
  C  C24  1  0.64192000  0.81279800  0.60970700  1
  C  C25  1  0.67368800  0.91829300  0.63650800  1
  C  C26  1  0.62096500  0.99719200  0.59445100  1
  C  C27  1  0.53617100  0.97049000  0.52526500  1
  C  C28  1  0.50713600  0.86231700  0.50055300  1
  C  C29  1  0.47935000  0.04813600  0.48006100  1
  C  C30  1  0.39566600  0.01474800  0.41209900  1
  C  C31  1  0.36828400  0.90838300  0.38859300  1
  C  C32  1  0.42338500  0.83326600  0.43216700  1
  C  C33  1  0.50259600  0.15837500  0.49968200  1
  C  C34  1  0.36410700  0.19481600  0.38808100  1
  C  C35  1  0.76317500  0.94626700  0.70986400  1
  C  C36  1  0.87713100  0.07675600  0.80532600  1
  C  C37  1  0.89345800  0.19701600  0.82096200  1
  N  N1  1  0.44510300  0.22828000  0.45370700  1
  N  N2  1  0.56013800  0.78571000  0.54293800  1
  O  O1  1  0.48055400  0.37894000  0.62684700  1
  O  O2  1  0.52181800  0.56105800  0.65621700  1
  O  O3  1  0.65139700  0.41872800  0.47950900  1
  O  O4  1  0.69010700  0.60152200  0.50868300  1
  O  O5  1  0.48631300  0.45329400  0.34058200  1
  O  O6  1  0.52488500  0.63556300  0.37016300  1
  O  O7  1  0.31588900  0.41325400  0.48761600  1
  O  O8  1  0.35448800  0.59499700  0.51923300  1
  O  O9  1  0.80967400  0.87607700  0.74659700  1
  O  O10  1  0.79406900  0.04935900  0.73688800  1
