# generated using pymatgen
data_ZnHC5Br3NO4
_symmetry_space_group_name_H-M   'P 1'
_cell_length_a   7.72656900
_cell_length_b   8.90304900
_cell_length_c   11.20313800
_cell_angle_alpha   88.43911400
_cell_angle_beta   95.78165700
_cell_angle_gamma   91.44102800
_symmetry_Int_Tables_number   1
_chemical_formula_structural   ZnHC5Br3NO4
_chemical_formula_sum   'Zn2 H2 C10 Br6 N2 O8'
_cell_volume   766.26474925
_cell_formula_units_Z   2
loop_
 _symmetry_equiv_pos_site_id
 _symmetry_equiv_pos_as_xyz
  1  'x, y, z'
loop_
 _atom_site_type_symbol
 _atom_site_label
 _atom_site_symmetry_multiplicity
 _atom_site_fract_x
 _atom_site_fract_y
 _atom_site_fract_z
 _atom_site_occupancy
  Zn  Zn1  1  0.30734200  0.51709100  0.51354200  1
  Zn  Zn2  1  0.69265900  0.48290900  0.48645800  1
  H  H1  1  0.26068500  0.52186100  0.09701000  1
  H  H2  1  0.73931600  0.47814000  0.90299000  1
  C  C1  1  0.54202900  0.79222700  0.49692100  1
  C  C2  1  0.45797200  0.20777400  0.50307900  1
  C  C3  1  0.56726500  0.49370000  0.73337700  1
  C  C4  1  0.43273500  0.50630100  0.26662300  1
  C  C5  1  0.60612900  0.49019700  0.86382800  1
  C  C6  1  0.39387200  0.50980300  0.13617100  1
  C  C7  1  0.47941900  0.50179800  0.93475700  1
  C  C8  1  0.52058200  0.49820200  0.06524300  1
  C  C9  1  0.56681600  0.95560500  0.49519000  1
  C  C10  1  0.43318500  0.04439500  0.50481000  1
  Br  Br1  1  0.75586900  0.47682400  0.13273200  1
  Br  Br2  1  0.24413200  0.52317600  0.86726700  1
  Br  Br3  1  0.79286200  0.04067300  0.47904100  1
  Br  Br4  1  0.20713900  0.95932700  0.52095900  1
  Br  Br5  1  0.03976700  0.33018000  0.36538800  1
  Br  Br6  1  0.96023300  0.66982000  0.63461200  1
  N  N1  1  0.94578600  0.46083500  0.46906900  1
  N  N2  1  0.05421500  0.53916600  0.53093100  1
  O  O1  1  0.38574300  0.73584500  0.50802700  1
  O  O2  1  0.61425800  0.26415500  0.49197300  1
  O  O3  1  0.67798300  0.70973900  0.48728600  1
  O  O4  1  0.32201800  0.29026100  0.51271400  1
  O  O5  1  0.40494100  0.50829300  0.68830900  1
  O  O6  1  0.59506000  0.49170700  0.31169100  1
  O  O7  1  0.69719700  0.48212000  0.66758700  1
  O  O8  1  0.30280400  0.51788100  0.33241300  1
