# generated using pymatgen
data_CuH22C34(NO5)2
_symmetry_space_group_name_H-M   'P 1'
_cell_length_a   17.80573500
_cell_length_b   16.22985100
_cell_length_c   23.30967900
_cell_angle_alpha   90.00000000
_cell_angle_beta   90.01335700
_cell_angle_gamma   90.00000000
_symmetry_Int_Tables_number   1
_chemical_formula_structural   CuH22C34(NO5)2
_chemical_formula_sum   'Cu2 H44 C68 N4 O20'
_cell_volume   6736.13402291
_cell_formula_units_Z   2
loop_
 _symmetry_equiv_pos_site_id
 _symmetry_equiv_pos_as_xyz
  1  'x, y, z'
loop_
 _atom_site_type_symbol
 _atom_site_label
 _atom_site_symmetry_multiplicity
 _atom_site_fract_x
 _atom_site_fract_y
 _atom_site_fract_z
 _atom_site_occupancy
  Cu  Cu1  1  0.50032200  0.58373400  0.50010300  1
  Cu  Cu2  1  0.50211500  0.41917000  0.49915200  1
  H  H1  1  0.31226900  0.49841800  0.94683900  1
  H  H2  1  0.68564700  0.50139800  0.05237500  1
  H  H3  1  0.31143400  0.49973600  0.05053200  1
  H  H4  1  0.68657200  0.50263900  0.94883500  1
  H  H5  1  0.45373900  0.62357500  0.21518700  1
  H  H6  1  0.54244900  0.62306600  0.78553600  1
  H  H7  1  0.45425000  0.62367000  0.31942100  1
  H  H8  1  0.54336800  0.62400700  0.68046400  1
  H  H9  1  0.54004200  0.37741100  0.31916900  1
  H  H10  1  0.45985000  0.37716500  0.67955000  1
  H  H11  1  0.53885700  0.37790300  0.21447100  1
  H  H12  1  0.45935200  0.37716300  0.78455900  1
  H  H13  1  0.87947700  0.62325000  0.47004200  1
  H  H14  1  0.12286000  0.37904700  0.46692400  1
  H  H15  1  0.12182900  0.62289600  0.52922800  1
  H  H16  1  0.87845000  0.37960900  0.53319700  1
  H  H17  1  0.58477200  0.86522100  0.56533500  1
  H  H18  1  0.45627500  0.13621500  0.41537100  1
  H  H19  1  0.41925600  0.86628600  0.43376600  1
  H  H20  1  0.54508900  0.13727600  0.58475600  1
  H  H21  1  0.58421400  0.71439800  0.56398500  1
  H  H22  1  0.45704700  0.28603000  0.41525000  1
  H  H23  1  0.42041300  0.71409000  0.43399100  1
  H  H24  1  0.54765200  0.28797500  0.58239800  1
  H  H25  1  0.72124300  0.75308400  0.37645700  1
  H  H26  1  0.64376900  0.76598100  0.42604000  1
  H  H27  1  0.63408300  0.65728400  0.31895100  1
  H  H28  1  0.61159400  0.76623400  0.31898000  1
  H  H29  1  0.55887000  0.69672500  0.36380300  1
  H  H30  1  0.32064300  0.20806800  0.43834400  1
  H  H31  1  0.24752000  0.22549900  0.38567700  1
  H  H32  1  0.23029600  0.13312500  0.50008000  1
  H  H33  1  0.23725400  0.08685200  0.42965100  1
  H  H34  1  0.15696800  0.15027400  0.44757500  1
  H  H35  1  0.27797700  0.75584400  0.62156000  1
  H  H36  1  0.35745800  0.76572400  0.57316700  1
  H  H37  1  0.36150300  0.66201100  0.68270700  1
  H  H38  1  0.38714400  0.77010200  0.68045500  1
  H  H39  1  0.43892600  0.69655500  0.63812400  1
  H  H40  1  0.68056100  0.20833200  0.56123500  1
  H  H41  1  0.74887300  0.22882400  0.61726400  1
  H  H42  1  0.77702500  0.13393700  0.50540200  1
  H  H43  1  0.76484700  0.08891600  0.57591100  1
  H  H44  1  0.84535500  0.15391500  0.56122200  1
  C  C1  1  0.35580200  0.50117600  0.49928900  1
  C  C2  1  0.64607600  0.50212600  0.50052600  1
  C  C3  1  0.50055700  0.50169100  0.38949500  1
  C  C4  1  0.50096100  0.50107800  0.61000100  1
  C  C5  1  0.56596900  0.50142600  0.88141000  1
  C  C6  1  0.43226800  0.50163500  0.11800900  1
  C  C7  1  0.43432100  0.49855300  0.88060500  1
  C  C8  1  0.56391400  0.50079900  0.11855300  1
  C  C9  1  0.43273500  0.49932000  0.93993200  1
  C  C10  1  0.56526800  0.50091100  0.05927200  1
  C  C11  1  0.49923800  0.50048400  0.97004400  1
  C  C12  1  0.49872300  0.50078600  0.02922600  1
  C  C13  1  0.56631000  0.50138300  0.94070000  1
  C  C14  1  0.43172200  0.50088300  0.05866100  1
  C  C15  1  0.36532700  0.49914000  0.96938000  1
  C  C16  1  0.63263200  0.50135100  0.02987600  1
  C  C17  1  0.36483800  0.49998600  0.02853400  1
  C  C18  1  0.63316200  0.50197500  0.97080400  1
  C  C19  1  0.47329300  0.56959600  0.23784600  1
  C  C20  1  0.52445400  0.56907400  0.76205200  1
  C  C21  1  0.47437500  0.56980500  0.29692700  1
  C  C22  1  0.52426700  0.56969600  0.70288100  1
  C  C23  1  0.49903900  0.50128500  0.32666500  1
  C  C24  1  0.50115900  0.50085100  0.67278200  1
  C  C25  1  0.52135000  0.43197100  0.29670300  1
  C  C26  1  0.47853700  0.43138300  0.70233500  1
  C  C27  1  0.52113200  0.43225500  0.23755700  1
  C  C28  1  0.47773800  0.43131700  0.76149600  1
  C  C29  1  0.49758500  0.50120300  0.20795900  1
  C  C30  1  0.50100100  0.50000100  0.79141200  1
  C  C31  1  0.84805800  0.57011300  0.48432000  1
  C  C32  1  0.15397300  0.43190000  0.48199900  1
  C  C33  1  0.15339100  0.56935400  0.51573200  1
  C  C34  1  0.84733400  0.43270500  0.51844600  1
  C  C35  1  0.77060700  0.57169800  0.48367000  1
  C  C36  1  0.23140500  0.43255300  0.47913400  1
  C  C37  1  0.23092400  0.57098600  0.51638200  1
  C  C38  1  0.76986300  0.43334400  0.52113500  1
  C  C39  1  0.72955100  0.50242700  0.50172800  1
  C  C40  1  0.27202300  0.50150900  0.49839500  1
  C  C41  1  0.88628300  0.50076800  0.50058300  1
  C  C42  1  0.11513400  0.49988200  0.49997400  1
  C  C43  1  0.96688300  0.50012100  0.50034200  1
  C  C44  1  0.03455700  0.49969300  0.50017400  1
  C  C45  1  0.54720100  0.83272000  0.53675100  1
  C  C46  1  0.47561200  0.16911500  0.45288100  1
  C  C47  1  0.45478200  0.83291900  0.46329900  1
  C  C48  1  0.52473100  0.16980000  0.54735600  1
  C  C49  1  0.54684400  0.74779900  0.53569900  1
  C  C50  1  0.47611800  0.25404500  0.45313200  1
  C  C51  1  0.45568600  0.74798300  0.46330900  1
  C  C52  1  0.52542200  0.25478800  0.54608400  1
  C  C53  1  0.50023200  0.87558900  0.50056300  1
  C  C54  1  0.49969000  0.12657700  0.50042800  1
  C  C55  1  0.50022700  0.96396700  0.50042300  1
  C  C56  1  0.50007700  0.03818600  0.50054800  1
  C  C57  1  0.73708300  0.64929500  0.46362600  1
  C  C58  1  0.66982100  0.72413500  0.39415000  1
  C  C59  1  0.61498200  0.70981700  0.34567100  1
  C  C60  1  0.26536600  0.36041400  0.45131700  1
  C  C61  1  0.25965900  0.21714400  0.43198100  1
  C  C62  1  0.21825000  0.14188400  0.45378900  1
  C  C63  1  0.26439700  0.64903300  0.53574700  1
  C  C64  1  0.32970700  0.72564000  0.60537500  1
  C  C65  1  0.38281200  0.71248600  0.65508900  1
  C  C66  1  0.73517400  0.36147000  0.54893000  1
  C  C67  1  0.74071000  0.21887200  0.57058300  1
  C  C68  1  0.78493100  0.14384400  0.55208500  1
  N  N1  1  0.50044200  0.49980100  0.85248600  1
  N  N2  1  0.49790200  0.50144000  0.14683000  1
  N  N3  1  0.49996900  0.70684000  0.50044200  1
  N  N4  1  0.50143400  0.29591400  0.49937200  1
  O  O1  1  0.39157600  0.57163900  0.50096500  1
  O  O2  1  0.61044400  0.43151500  0.49710700  1
  O  O3  1  0.60983000  0.57231600  0.50274000  1
  O  O4  1  0.39212200  0.43060500  0.49834000  1
  O  O5  1  0.49896000  0.57234700  0.41652800  1
  O  O6  1  0.49946600  0.43052200  0.58290100  1
  O  O7  1  0.49728700  0.57185900  0.58327000  1
  O  O8  1  0.49825400  0.43099300  0.41619400  1
  O  O9  1  0.63108600  0.50171900  0.85228800  1
  O  O10  1  0.36729100  0.50100600  0.14730100  1
  O  O11  1  0.36986300  0.49822000  0.85062700  1
  O  O12  1  0.62854200  0.50150800  0.14833000  1
  O  O13  1  0.76156500  0.71423900  0.48215200  1
  O  O14  1  0.68813500  0.65044600  0.41951600  1
  O  O15  1  0.31235700  0.36913100  0.41372800  1
  O  O16  1  0.23635500  0.28516200  0.46188200  1
  O  O17  1  0.24156100  0.71348500  0.51526500  1
  O  O18  1  0.31139700  0.65123600  0.58110200  1
  O  O19  1  0.68571700  0.37069000  0.58457800  1
  O  O20  1  0.76561400  0.28630800  0.54073700  1
