# generated using pymatgen
data_Zn2H20C23(NO4)2
_symmetry_space_group_name_H-M   'P 1'
_cell_length_a   13.10708000
_cell_length_b   11.16369300
_cell_length_c   9.92896400
_cell_angle_alpha   89.99739500
_cell_angle_beta   95.36371300
_cell_angle_gamma   90.00594400
_symmetry_Int_Tables_number   1
_chemical_formula_structural   Zn2H20C23(NO4)2
_chemical_formula_sum   'Zn2 H20 C23 N2 O8'
_cell_volume   1446.47847959
_cell_formula_units_Z   1
loop_
 _symmetry_equiv_pos_site_id
 _symmetry_equiv_pos_as_xyz
  1  'x, y, z'
loop_
 _atom_site_type_symbol
 _atom_site_label
 _atom_site_symmetry_multiplicity
 _atom_site_fract_x
 _atom_site_fract_y
 _atom_site_fract_z
 _atom_site_occupancy
  Zn  Zn1  1  0.50852400  0.49848300  0.64802900  1
  Zn  Zn2  1  0.50548500  0.49363900  0.34151700  1
  H  H1  1  0.83148400  0.49537500  0.31622400  1
  H  H2  1  0.83336900  0.49186200  0.74522500  1
  H  H3  1  0.01906500  0.49415900  0.76831000  1
  H  H4  1  0.18450900  0.50072000  0.24394000  1
  H  H5  1  0.17742800  0.49706800  0.67243400  1
  H  H6  1  0.53647100  0.90305500  0.58819000  1
  H  H7  1  0.50451600  0.11311100  0.29381400  1
  H  H8  1  0.49297900  0.08879100  0.59923700  1
  H  H9  1  0.48928700  0.42333700  0.89145600  1
  H  H10  1  0.62996300  0.59741200  0.14547400  1
  H  H11  1  0.43688000  0.46791000  0.08097500  1
  H  H12  1  0.66096700  0.72585800  0.97107500  1
  H  H13  1  0.66817700  0.65530800  0.80972700  1
  H  H14  1  0.55832300  0.74770600  0.84158400  1
  H  H15  1  0.04247300  0.50026100  0.09889400  1
  H  H16  1  0.93772000  0.41676200  0.15611400  1
  H  H17  1  0.93615700  0.57972900  0.15770200  1
  H  H18  1  0.43831000  0.95621000  0.17179800  1
  H  H19  1  0.52349700  0.83220600  0.20552600  1
  H  H20  1  0.39113900  0.82529900  0.24923900  1
  C  C1  1  0.50449700  0.26163200  0.49830900  1
  C  C2  1  0.30627900  0.49897200  0.47541500  1
  C  C3  1  0.50905900  0.73099800  0.49066500  1
  C  C4  1  0.70773200  0.49325700  0.51391800  1
  C  C5  1  0.82032700  0.49343400  0.52782100  1
  C  C6  1  0.19371100  0.49910400  0.46007700  1
  C  C7  1  0.03630500  0.49829800  0.31474000  1
  C  C8  1  0.14213300  0.49952200  0.33210700  1
  C  C9  1  0.13840100  0.49761500  0.57164300  1
  C  C10  1  0.03255200  0.49622500  0.55534200  1
  C  C11  1  0.98063800  0.49648100  0.42740500  1
  C  C12  1  0.87409600  0.49498900  0.41442300  1
  C  C13  1  0.87329300  0.49310300  0.65483400  1
  C  C14  1  0.97874300  0.49442200  0.66823100  1
  C  C15  1  0.49241700  0.93371800  0.38125400  1
  C  C16  1  0.51342000  0.86323300  0.49096200  1
  C  C17  1  0.50095600  0.06597700  0.38855500  1
  C  C18  1  0.50036600  0.13029500  0.50227400  1
  C  C19  1  0.56174000  0.57478800  0.93425500  1
  C  C20  1  0.56901600  0.55384600  0.08236300  1
  C  C21  1  0.61546000  0.68196100  0.88516600  1
  C  C22  1  0.98487000  0.49878400  0.17377500  1
  C  C23  1  0.45963900  0.88293300  0.24430300  1
  N  N1  1  0.51369800  0.50136700  0.85020500  1
  N  N2  1  0.50208200  0.49283900  0.13969200  1
  O  O1  1  0.50607200  0.31960600  0.61334600  1
  O  O2  1  0.50497800  0.31562000  0.38099300  1
  O  O3  1  0.35507400  0.50045800  0.59719700  1
  O  O4  1  0.35375200  0.49700300  0.36511700  1
  O  O5  1  0.50996700  0.67653400  0.60813100  1
  O  O6  1  0.50872900  0.67238100  0.37631300  1
  O  O7  1  0.66038400  0.49574300  0.62457800  1
  O  O8  1  0.65889700  0.49257100  0.39215200  1
