# generated using pymatgen
data_Fe2H31C64N5O17
_symmetry_space_group_name_H-M   'P 1'
_cell_length_a   17.15080800
_cell_length_b   16.22415000
_cell_length_c   19.05979700
_cell_angle_alpha   89.65367300
_cell_angle_beta   90.60499900
_cell_angle_gamma   117.39286000
_symmetry_Int_Tables_number   1
_chemical_formula_structural   Fe2H31C64N5O17
_chemical_formula_sum   'Fe2 H31 C64 N5 O17'
_cell_volume   4708.59053233
_cell_formula_units_Z   1
loop_
 _symmetry_equiv_pos_site_id
 _symmetry_equiv_pos_as_xyz
  1  'x, y, z'
loop_
 _atom_site_type_symbol
 _atom_site_label
 _atom_site_symmetry_multiplicity
 _atom_site_fract_x
 _atom_site_fract_y
 _atom_site_fract_z
 _atom_site_occupancy
  Fe  Fe1  1  0.53446000  0.00730300  0.30740500  1
  Fe  Fe2  1  0.48385000  0.99753600  0.68239300  1
  H  H1  1  0.99931100  0.88960500  0.21055800  1
  H  H2  1  0.73132500  0.96563900  0.01194300  1
  H  H3  1  0.01903900  0.11538700  0.77859900  1
  H  H4  1  0.28715300  0.03988300  0.97734800  1
  H  H5  1  0.93716900  0.92621700  0.02171000  1
  H  H6  1  0.08152400  0.07956700  0.96750200  1
  H  H7  1  0.09583900  0.06118600  0.70779900  1
  H  H8  1  0.30732400  0.00816100  0.85716500  1
  H  H9  1  0.35297900  0.02292200  0.07898000  1
  H  H10  1  0.26003200  0.89298700  0.27906500  1
  H  H11  1  0.11390800  0.87192300  0.25180600  1
  H  H12  1  0.92165000  0.94231100  0.28145000  1
  H  H13  1  0.71047100  0.99611800  0.13228400  1
  H  H14  1  0.66553700  0.98258800  0.91030400  1
  H  H15  1  0.75841000  0.11256800  0.71025700  1
  H  H16  1  0.90460500  0.13361400  0.73749300  1
  H  H17  1  0.20657200  0.02854500  0.65367100  1
  H  H18  1  0.81051100  0.97409600  0.33569400  1
  H  H19  1  0.54412800  0.10976800  0.46885300  1
  H  H20  1  0.52489500  0.33263200  0.36691600  1
  H  H21  1  0.51960200  0.31541700  0.59085900  1
  H  H22  1  0.61343100  0.47968000  0.56471100  1
  H  H23  1  0.59485100  0.61803200  0.57986100  1
  H  H24  1  0.39137700  0.51965300  0.42454200  1
  H  H25  1  0.48456300  0.68256100  0.39768700  1
  H  H26  1  0.47502400  0.89604100  0.52046500  1
  H  H27  1  0.49192700  0.67156900  0.62170500  1
  H  H28  1  0.37593100  0.38519200  0.35533800  1
  H  H29  1  0.25341500  0.24772000  0.33422000  1
  H  H30  1  0.18579000  0.23554300  0.40967800  1
  H  H31  1  0.23213200  0.15662700  0.39738000  1
  C  C1  1  0.21616200  0.97382600  0.10182200  1
  C  C2  1  0.15132000  0.93493400  0.14983300  1
  C  C3  1  0.07815800  0.93827800  0.12244200  1
  C  C4  1  0.18024700  0.99695400  0.04453900  1
  C  C5  1  0.00387600  0.91508500  0.15750500  1
  C  C6  1  0.93246000  0.93477600  0.13316100  1
  C  C7  1  0.87705400  0.95002500  0.17707800  1
  C  C8  1  0.81984200  0.96558800  0.13621800  1
  C  C9  1  0.84162600  0.96023200  0.06727100  1
  C  C10  1  0.79740800  0.97476900  0.00542400  1
  C  C11  1  0.83824400  0.00855000  0.94476600  1
  C  C12  1  0.80236200  0.03175000  0.88749600  1
  C  C13  1  0.86718500  0.07058900  0.83946500  1
  C  C14  1  0.94029400  0.06709900  0.86681600  1
  C  C15  1  0.01448200  0.09003300  0.83169400  1
  C  C16  1  0.08574900  0.07012800  0.85606600  1
  C  C17  1  0.14084100  0.05430700  0.81218600  1
  C  C18  1  0.19811600  0.03892000  0.85309200  1
  C  C19  1  0.17667800  0.04491600  0.92201300  1
  C  C20  1  0.22105100  0.03069400  0.98387600  1
  C  C21  1  0.14214600  0.05023700  0.74039600  1
  C  C22  1  0.20484200  0.03102800  0.71022100  1
  C  C23  1  0.26511000  0.01644300  0.75142800  1
  C  C24  1  0.26173000  0.01994400  0.82427300  1
  C  C25  1  0.30046500  0.98802000  0.11589600  1
  C  C26  1  0.31662700  0.95945200  0.18076300  1
  C  C27  1  0.24840300  0.91518700  0.22822000  1
  C  C28  1  0.16514500  0.90356700  0.21340500  1
  C  C29  1  0.87540900  0.95341100  0.24888300  1
  C  C30  1  0.81244900  0.97211300  0.27913200  1
  C  C31  1  0.75227500  0.98694300  0.23799400  1
  C  C32  1  0.75599000  0.98413900  0.16512300  1
  C  C33  1  0.71806800  0.01753700  0.87341100  1
  C  C34  1  0.70191400  0.04612200  0.80855300  1
  C  C35  1  0.77011800  0.09043400  0.76110400  1
  C  C36  1  0.85337000  0.10200300  0.77590100  1
  C  C37  1  0.68443800  0.00259400  0.27338400  1
  C  C38  1  0.48996900  0.85061600  0.38933300  1
  C  C39  1  0.40589100  0.98216000  0.20360100  1
  C  C40  1  0.52862000  0.16889600  0.34618300  1
  C  C41  1  0.53868200  0.21929300  0.41172800  1
  C  C42  1  0.52902900  0.29923600  0.41502000  1
  C  C43  1  0.52463900  0.33569400  0.47985300  1
  C  C44  1  0.52786200  0.29018000  0.54058600  1
  C  C45  1  0.53406700  0.20858800  0.53697100  1
  C  C46  1  0.54162200  0.17490800  0.47262100  1
  C  C47  1  0.56350200  0.48706800  0.53423300  1
  C  C48  1  0.55281000  0.56553100  0.54310400  1
  C  C49  1  0.49193000  0.57859700  0.50306600  1
  C  C50  1  0.44088400  0.51143400  0.45498800  1
  C  C51  1  0.44927200  0.43127700  0.44747200  1
  C  C52  1  0.51272700  0.41966000  0.48608900  1
  C  C53  1  0.48004200  0.70984300  0.44819000  1
  C  C54  1  0.47854400  0.79390000  0.45201700  1
  C  C55  1  0.47502100  0.82965500  0.51653600  1
  C  C56  1  0.47887600  0.78568000  0.57731800  1
  C  C57  1  0.48587400  0.70422400  0.57380400  1
  C  C58  1  0.48390700  0.66462200  0.50891800  1
  C  C59  1  0.61261900  0.02319300  0.78572200  1
  C  C60  1  0.49127500  0.83729500  0.64254700  1
  C  C61  1  0.33284400  0.00049700  0.71618100  1
  C  C62  1  0.52353400  0.15219500  0.59972500  1
  C  C63  1  0.32276700  0.29200600  0.43254900  1
  C  C64  1  0.24375800  0.22933400  0.39068700  1
  N  N1  1  0.09565300  0.97577900  0.05748400  1
  N  N2  1  0.91005600  0.94025000  0.06584300  1
  N  N3  1  0.92280000  0.02960900  0.93177900  1
  N  N4  1  0.10838600  0.06511700  0.92339900  1
  N  N5  1  0.39185800  0.36201000  0.40098000  1
  O  O1  1  0.61921300  0.00553200  0.23850800  1
  O  O2  1  0.48788800  0.81700300  0.32650000  1
  O  O3  1  0.68548100  0.00739100  0.34208500  1
  O  O4  1  0.51137700  0.93875100  0.39729600  1
  O  O5  1  0.41502400  0.94504500  0.26234400  1
  O  O6  1  0.47413300  0.04991100  0.17386800  1
  O  O7  1  0.58885600  0.14268800  0.33179200  1
  O  O8  1  0.44805700  0.11777800  0.32375800  1
  O  O9  1  0.60328200  0.06111900  0.72746900  1
  O  O10  1  0.54457900  0.95443400  0.81481100  1
  O  O11  1  0.43044900  0.86189300  0.65881600  1
  O  O12  1  0.57261200  0.89101700  0.66200700  1
  O  O13  1  0.52273500  0.18491300  0.66236200  1
  O  O14  1  0.39868700  0.99897300  0.75110500  1
  O  O15  1  0.50637600  0.06516100  0.59210400  1
  O  O16  1  0.33132200  0.99451200  0.64753400  1
  O  O17  1  0.32418400  0.27990200  0.49564900  1
