# generated using pymatgen
data_FeH11C20N5O8
_symmetry_space_group_name_H-M   'P 1'
_cell_length_a   9.50023100
_cell_length_b   16.77459100
_cell_length_c   19.47291900
_cell_angle_alpha   103.06923500
_cell_angle_beta   85.62367800
_cell_angle_gamma   76.40854500
_symmetry_Int_Tables_number   1
_chemical_formula_structural   FeH11C20N5O8
_chemical_formula_sum   'Fe2 H22 C40 N10 O16'
_cell_volume   2910.62908016
_cell_formula_units_Z   2
loop_
 _symmetry_equiv_pos_site_id
 _symmetry_equiv_pos_as_xyz
  1  'x, y, z'
loop_
 _atom_site_type_symbol
 _atom_site_label
 _atom_site_symmetry_multiplicity
 _atom_site_fract_x
 _atom_site_fract_y
 _atom_site_fract_z
 _atom_site_occupancy
  Fe  Fe1  1  0.49008000  0.00463400  0.36140700  1
  Fe  Fe2  1  0.51284700  0.00413400  0.63525100  1
  H  H1  1  0.97557000  0.00465700  0.65914600  1
  H  H2  1  0.78565400  0.97602200  0.85353100  1
  H  H3  1  0.18153400  0.87718500  0.90668600  1
  H  H4  1  0.81538000  0.09523100  0.08729300  1
  H  H5  1  0.81734000  0.09407600  0.96160100  1
  H  H6  1  0.22755700  0.00115900  0.13918300  1
  H  H7  1  0.78376400  0.99169600  0.16611100  1
  H  H8  1  0.21391300  0.28301200  0.44383400  1
  H  H9  1  0.27841200  0.32317500  0.69593100  1
  H  H10  1  0.81393800  0.72639700  0.54923700  1
  H  H11  1  0.06664600  0.45375700  0.70652700  1
  H  H12  1  0.22602800  0.47921600  0.69070700  1
  H  H13  1  0.84544600  0.55473700  0.27627800  1
  H  H14  1  0.98041100  0.54098700  0.32448800  1
  H  H15  1  0.61212300  0.61875700  0.29298300  1
  H  H16  1  0.53131700  0.71921900  0.30804300  1
  H  H17  1  0.30519800  0.95441200  0.85401400  1
  H  H18  1  0.21752500  0.05909000  0.88948900  1
  H  H19  1  0.14927600  0.82670200  0.06019000  1
  H  H20  1  0.27669500  0.82365900  0.99378100  1
  H  H21  1  0.08649400  0.96585100  0.37363600  1
  H  H22  1  0.05634800  0.07320200  0.38233800  1
  C  C1  1  0.11516900  0.00239500  0.74085300  1
  C  C2  1  0.12349600  0.99830600  0.81108100  1
  C  C3  1  0.00405400  0.98846700  0.85142000  1
  C  C4  1  0.87786100  0.98369700  0.82196400  1
  C  C5  1  0.86677300  0.99122500  0.75360600  1
  C  C6  1  0.98481800  0.00099000  0.71335000  1
  C  C7  1  0.10454000  0.92642200  0.94692900  1
  C  C8  1  0.10429600  0.92710800  0.01808700  1
  C  C9  1  0.00111300  0.98857600  0.06892400  1
  C  C10  1  0.89618900  0.04696500  0.04799500  1
  C  C11  1  0.89781100  0.04657200  0.97713000  1
  C  C12  1  0.00410100  0.98767200  0.92654700  1
  C  C13  1  0.13257000  0.00021200  0.17297100  1
  C  C14  1  0.13927100  0.00525400  0.24407900  1
  C  C15  1  0.01680600  0.00650900  0.28834900  1
  C  C16  1  0.88790700  0.00166100  0.26047500  1
  C  C17  1  0.88290500  0.99616900  0.18869400  1
  C  C18  1  0.00564700  0.99425600  0.14481900  1
  C  C19  1  0.75695200  0.00211700  0.30631800  1
  C  C20  1  0.60598300  0.84926600  0.37960200  1
  C  C21  1  0.27503200  0.01250100  0.27229400  1
  C  C22  1  0.34359600  0.14098600  0.47198300  1
  C  C23  1  0.29945300  0.22423100  0.52278600  1
  C  C24  1  0.22891000  0.29289700  0.49928700  1
  C  C25  1  0.17476900  0.37221000  0.54578100  1
  C  C26  1  0.19532800  0.38249800  0.61673300  1
  C  C27  1  0.26557500  0.31391900  0.64024600  1
  C  C28  1  0.31705000  0.23441300  0.59412700  1
  C  C29  1  0.92975700  0.56790600  0.47214500  1
  C  C30  1  0.08996200  0.44209400  0.51956400  1
  C  C31  1  0.79983900  0.62686300  0.37951200  1
  C  C32  1  0.70369000  0.69358200  0.36162600  1
  C  C33  1  0.66718200  0.77478600  0.40729600  1
  C  C34  1  0.70564700  0.78456900  0.47552800  1
  C  C35  1  0.78760800  0.71636500  0.49548000  1
  C  C36  1  0.83830500  0.63781900  0.44792700  1
  C  C37  1  0.73129900  0.98631100  0.72343200  1
  C  C38  1  0.66370300  0.86610900  0.52817800  1
  C  C39  1  0.24156800  0.00762100  0.69426300  1
  C  C40  1  0.38362900  0.16272800  0.62297000  1
  N  N1  1  0.07421800  0.52353300  0.55392200  1
  N  N2  1  0.99518500  0.58549900  0.53060300  1
  N  N3  1  0.94500100  0.48639900  0.43804500  1
  N  N4  1  0.02455300  0.42443400  0.46115200  1
  N  N5  1  0.13869900  0.46218000  0.66717200  1
  N  N6  1  0.86749500  0.54945200  0.32685300  1
  N  N7  1  0.63531900  0.67753100  0.29860700  1
  N  N8  1  0.24993300  0.01048300  0.84280200  1
  N  N9  1  0.20740300  0.86320900  0.03891100  1
  N  N10  1  0.01950300  0.01947400  0.36321600  1
  O  O1  1  0.63126400  0.00663600  0.28212100  1
  O  O2  1  0.63113400  0.84291400  0.31109600  1
  O  O3  1  0.76358500  0.99602200  0.37203600  1
  O  O4  1  0.53852000  0.92398900  0.42155500  1
  O  O5  1  0.32151700  0.96999900  0.31855600  1
  O  O6  1  0.34709000  0.06356600  0.25323800  1
  O  O7  1  0.45990900  0.12152200  0.42441400  1
  O  O8  1  0.26968300  0.08472600  0.47552300  1
  O  O9  1  0.68758100  0.03075000  0.67783300  1
  O  O10  1  0.65489000  0.93666200  0.74142000  1
  O  O11  1  0.53388200  0.89177400  0.56642300  1
  O  O12  1  0.75908900  0.91109800  0.54038900  1
  O  O13  1  0.35780100  0.16914400  0.69142800  1
  O  O14  1  0.37315500  0.99834000  0.71368100  1
  O  O15  1  0.46588900  0.09154200  0.58126700  1
  O  O16  1  0.22427900  0.01747300  0.63020900  1
