# Generated by REPEAT Assigner based on pymatgen
data_DB0-m3_o1_o25_f0_pcu.sym.88
_audit_creation_date              2022-05-24
_audit_creation_method            REPEAT_Assigner
_cell_length_a                    16.012818
_cell_length_b                    10.948350
_cell_length_c                    9.770242
_cell_angle_alpha                 90.004018
_cell_angle_beta                  90.004475
_cell_angle_gamma                 90.006120
_cell_volume                      1712.859667
_symmetry_space_group_name_H-M    P1
_symmetry_Int_Tables_number       1
loop_
    _symmetry_equiv_pos_site_id
    _symmetry_equiv_pos_as_xyz
    1  x,y,z
loop_
    _atom_site_type_symbol
    _atom_site_label
    _atom_site_fract_x
    _atom_site_fract_y
    _atom_site_fract_z
    _atom_type_partial_charge
    O   O1   0.500520  0.316878  0.615212  -0.647896
    O   O2   0.500246  0.680814  0.379085  -0.649576
    O   O3   0.500472  0.316864  0.379017  -0.649130
    O   O4   0.500294  0.680829  0.615280  -0.642806
    C   C1   0.500520  0.259664  0.497116  0.669076
    C   C2   0.500246  0.738029  0.497181  0.675423
    O   O5   0.376000  0.498673  0.615402  -0.719822
    O   O6   0.624767  0.499021  0.378896  -0.736970
    O   O7   0.375909  0.498657  0.378952  -0.714285
    O   O8   0.624857  0.499036  0.615345  -0.701725
    C   C3   0.337178  0.498597  0.497217  0.966717
    C   C4   0.663589  0.499096  0.497081  0.971259
    Zn  Zn1  0.500432  0.498850  0.652934  1.036480
    Zn  Zn2  0.500335  0.498843  0.341363  1.071996
    C   C5   0.972874  0.402927  0.560054  0.112952
    C   C6   0.027892  0.594872  0.434406  0.096608
    C   C7   0.027400  0.399121  0.433447  -0.239216
    C   C8   0.973360  0.598676  0.561006  -0.197655
    H   H1   0.051007  0.315270  0.382870  0.071621
    H   H2   0.949724  0.682501  0.611605  0.062587
    H   H3   0.949561  0.500336  0.261930  0.058682
    H   H4   0.051243  0.497491  0.732508  0.056440
    C   C9   0.247562  0.498235  0.497362  -0.294826
    C   C10  0.753204  0.499477  0.496946  -0.297591
    C   C11  0.027515  0.499394  0.625887  -0.162615
    C   C12  0.973258  0.498400  0.368568  -0.216337
    C   C13  0.080938  0.497300  0.498158  0.455747
    C   C14  0.919829  0.500491  0.496286  0.483873
    C   C15  0.172311  0.497845  0.497652  -0.182816
    C   C16  0.828456  0.499895  0.496698  -0.187337
    C   C17  0.500408  0.061804  0.375022  -0.108374
    C   C18  0.500361  0.935889  0.619276  -0.103890
    H   H5   0.500418  0.109188  0.278017  0.103531
    H   H6   0.500351  0.888505  0.716280  0.103437
    C   C19  0.500311  0.935849  0.375041  -0.098709
    C   C20  0.500458  0.061844  0.619256  -0.102202
    H   H7   0.500261  0.888434  0.278048  0.100619
    H   H8   0.500508  0.109259  0.716249  0.100660
    C   C21  0.500285  0.872069  0.497168  -0.023420
    C   C22  0.500483  0.125624  0.497129  -0.014225
    C   C23  0.551704  0.574180  0.067779  0.005168
    C   C24  0.449064  0.423512  0.926518  -0.014598
    H   H9   0.593005  0.634793  0.122966  0.137636
    H   H10  0.407763  0.362899  0.871331  0.141861
    C   C25  0.551759  0.574182  0.926637  -0.028956
    C   C26  0.449009  0.423510  0.067661  -0.004947
    H   H11  0.593092  0.634806  0.871550  0.142399
    H   H12  0.407676  0.362886  0.122748  0.135212
    N   N1   0.500437  0.498846  0.857660  0.008867
    N   N2   0.500330  0.498846  0.136638  -0.018656
    C   C27  0.938685  0.291539  0.632901  0.223900
    O   O9   0.890873  0.328364  0.744768  -0.577403
    H   H13  0.991417  0.234368  0.669091  -0.034807
    H   H14  0.899376  0.237688  0.561523  0.001113
    H   H15  0.908706  0.273862  0.820150  0.372548
    C   C28  0.062083  0.706198  0.361443  0.253321
    O   O10  0.110035  0.775029  0.452199  -0.553840
    H   H16  0.009441  0.762546  0.323332  -0.041464
    H   H17  0.101276  0.677238  0.273669  -0.000609
    H   H18  0.081490  0.855149  0.456332  0.346971
