# Generated by REPEAT Assigner based on pymatgen
data_DB0-m3_o24_o153_f0_fsc.sym.7
_audit_creation_date              2022-05-24
_audit_creation_method            REPEAT_Assigner
_cell_length_a                    8.522517
_cell_length_b                    9.148322
_cell_length_c                    13.035926
_cell_angle_alpha                 90.588025
_cell_angle_beta                  86.463708
_cell_angle_gamma                 93.228393
_cell_volume                      1012.799907
_symmetry_space_group_name_H-M    P1
_symmetry_Int_Tables_number       1
loop_
    _symmetry_equiv_pos_site_id
    _symmetry_equiv_pos_as_xyz
    1  x,y,z
loop_
    _atom_site_type_symbol
    _atom_site_label
    _atom_site_fract_x
    _atom_site_fract_y
    _atom_site_fract_z
    _atom_type_partial_charge
    C   C1   0.978953  0.000317  0.133271  0.252178
    C   C2   0.111141  0.991900  0.190095  0.047204
    C   C3   0.259872  0.993676  0.141334  -0.184501
    C   C4   0.278595  0.998518  0.036058  -0.307694
    C   C5   0.149361  0.000636  0.977955  0.328287
    C   C6   0.999040  0.001946  0.025593  -0.062010
    C   C7   0.172407  0.001284  0.871717  -0.392082
    C   C8   0.045732  0.005726  0.811261  0.012496
    C   C9   0.895715  0.005682  0.858424  0.380986
    C   C10  0.872478  0.001035  0.963735  -0.363221
    C   C11  0.064849  0.013602  0.704657  0.081997
    C   C12  0.935360  0.032876  0.649941  -0.312637
    C   C13  0.786525  0.025438  0.696281  0.040608
    C   C14  0.765888  0.009360  0.800594  -0.406674
    C   C15  0.831164  0.009002  0.186175  -0.363179
    C   C16  0.815992  0.992196  0.291432  0.039775
    C   C17  0.945985  0.968183  0.343740  -0.175757
    C   C18  0.093489  0.978609  0.295851  -0.149498
    H   H1   0.363647  0.988284  0.184396  0.110497
    H   H2   0.395679  0.998041  0.999142  0.169994
    H   H3   0.951296  0.050002  0.568784  0.155997
    H   H4   0.648069  0.003101  0.836683  0.130439
    H   H5   0.752480  0.996140  0.994109  0.175104
    H   H6   0.290444  0.001235  0.836311  0.142144
    H   H7   0.724956  0.027904  0.149323  0.150460
    H   H8   0.932252  0.948002  0.424626  0.118602
    O   O1   0.599387  0.889737  0.602508  -0.789565
    O   O2   0.605024  0.142278  0.597626  -0.775027
    C   C19  0.653010  0.019372  0.632095  0.977021
    O   O3   0.619583  0.126810  0.384290  -0.742984
    O   O4   0.603377  0.874348  0.389840  -0.703870
    C   C20  0.665622  0.998242  0.352025  0.829652
    O   O5   0.279813  0.114979  0.391706  -0.783173
    O   O6   0.274535  0.862883  0.396410  -0.766134
    C   C21  0.226691  0.985385  0.361310  1.003767
    O   O7   0.259840  0.878573  0.610216  -0.671434
    O   O8   0.276395  0.130705  0.604876  -0.736022
    C   C22  0.215103  0.007165  0.643656  0.788152
    Zn  Zn1  0.445935  0.165563  0.491715  1.076190
    Zn  Zn2  0.433225  0.839491  0.502605  0.935035
    C   C23  0.444194  0.441304  0.583231  0.243889
    C   C24  0.318446  0.534314  0.549810  -0.316746
    H   H9   0.447591  0.386396  0.658447  0.046451
    N   N1   0.429450  0.647531  0.507388  0.646000
    C   C25  0.556481  0.561151  0.540237  -0.396793
    C   C26  0.562073  0.469961  0.443727  0.027739
    C   C27  0.434677  0.563434  0.411198  -0.192080
    C   C28  0.322167  0.443575  0.453959  0.106808
    N   N2   0.449398  0.357508  0.486909  0.144222
    H   H10  0.658301  0.612973  0.578528  0.197847
    H   H11  0.668519  0.440263  0.396594  0.091271
    H   H12  0.430330  0.618358  0.336065  0.103946
    H   H13  0.219822  0.391729  0.416230  0.087755
    Cl  Cl1  0.146945  0.579402  0.625483  -0.051433
