# generated using pymatgen
data_ZnH6(C3O)4
_symmetry_space_group_name_H-M   'P 1'
_cell_length_a   13.21032800
_cell_length_b   13.22967900
_cell_length_c   24.65572800
_cell_angle_alpha   89.98807400
_cell_angle_beta   89.76182300
_cell_angle_gamma   60.04263800
_symmetry_Int_Tables_number   1
_chemical_formula_structural   ZnH6(C3O)4
_chemical_formula_sum   'Zn6 H36 C72 O24'
_cell_volume   3733.30130349
_cell_formula_units_Z   6
loop_
 _symmetry_equiv_pos_site_id
 _symmetry_equiv_pos_as_xyz
  1  'x, y, z'
loop_
 _atom_site_type_symbol
 _atom_site_label
 _atom_site_symmetry_multiplicity
 _atom_site_fract_x
 _atom_site_fract_y
 _atom_site_fract_z
 _atom_site_occupancy
  Zn  Zn1  1  0.90160300  0.08403900  0.48721800  1
  Zn  Zn2  1  0.12878400  0.86717200  0.50273100  1
  Zn  Zn3  1  0.48289600  0.09274300  0.83207400  1
  Zn  Zn4  1  0.47304000  0.87614400  0.81423600  1
  Zn  Zn5  1  0.11324400  0.45429900  0.15309300  1
  Zn  Zn6  1  0.89008900  0.45464600  0.16550100  1
  H  H1  1  0.73384000  0.89870700  0.57006400  1
  H  H2  1  0.06650400  0.88309800  0.65484100  1
  H  H3  1  0.12837100  0.87068000  0.74728900  1
  H  H4  1  0.00977200  0.86195800  0.82195000  1
  H  H5  1  0.82779000  0.86700100  0.80379000  1
  H  H6  1  0.61372500  0.89673000  0.64491200  1
  H  H7  1  0.27017000  0.08931300  0.56756600  1
  H  H8  1  0.89569500  0.17743300  0.63615500  1
  H  H9  1  0.80873200  0.21803000  0.72522100  1
  H  H10  1  0.91796100  0.22357300  0.80428400  1
  H  H11  1  0.11551900  0.18829100  0.79383900  1
  H  H12  1  0.37661100  0.09487700  0.64647000  1
  H  H13  1  0.11095600  0.56977200  0.30220500  1
  H  H14  1  0.71484400  0.77044700  0.24348300  1
  H  H15  1  0.53616800  0.92920800  0.27988300  1
  H  H16  1  0.53750300  0.02486000  0.36477700  1
  H  H17  1  0.71687500  0.96470200  0.41247600  1
  H  H18  1  0.11802400  0.67465700  0.37791000  1
  H  H19  1  0.17667500  0.19510600  0.40972500  1
  H  H20  1  0.11972200  0.88851200  0.34615800  1
  H  H21  1  0.07868900  0.83508900  0.25881200  1
  H  H22  1  0.06484300  0.94878300  0.17781300  1
  H  H23  1  0.09259300  0.11497700  0.18415300  1
  H  H24  1  0.17479800  0.30165700  0.32859900  1
  H  H25  1  0.98456000  0.32206700  0.98397300  1
  H  H26  1  0.23417700  0.11366800  0.13074400  1
  H  H27  1  0.42187700  0.93903100  0.13835500  1
  H  H28  1  0.52488600  0.82726600  0.05723000  1
  H  H29  1  0.44053800  0.89111900  0.96857400  1
  H  H30  1  0.09299800  0.21787200  0.90293900  1
  H  H31  1  0.76596300  0.58516500  0.02063200  1
  H  H32  1  0.97455300  0.77336800  0.07919300  1
  H  H33  1  0.00129400  0.92773600  0.04279100  1
  H  H34  1  0.90584200  0.02518100  0.95812700  1
  H  H35  1  0.78139300  0.97119000  0.91065400  1
  H  H36  1  0.65581800  0.69264700  0.94524500  1
  C  C1  1  0.95379700  0.86513400  0.42335700  1
  C  C2  1  0.92274500  0.91494900  0.57530900  1
  C  C3  1  0.10677500  0.03949800  0.41541000  1
  C  C4  1  0.07713000  0.08139800  0.56819800  1
  C  C5  1  0.31714200  0.08884400  0.74726200  1
  C  C6  1  0.31448800  0.05095900  0.89935100  1
  C  C7  1  0.64433400  0.91757200  0.74873300  1
  C  C8  1  0.64132300  0.87606100  0.89839200  1
  C  C9  1  0.90325000  0.61733200  0.08330900  1
  C  C10  1  0.94076500  0.61124200  0.23832200  1
  C  C11  1  0.07233400  0.29257200  0.08252100  1
  C  C12  1  0.09553700  0.28590800  0.23258500  1
  C  C13  1  0.01134100  0.87872900  0.68591100  1
  C  C14  1  0.04740600  0.87226200  0.73872100  1
  C  C15  1  0.98087000  0.86777400  0.78052900  1
  C  C16  1  0.87693600  0.87167800  0.76974700  1
  C  C17  1  0.83907600  0.87877000  0.71668800  1
  C  C18  1  0.90811000  0.87947400  0.67416400  1
  C  C19  1  0.86898700  0.88803700  0.62099200  1
  C  C20  1  0.76542800  0.88986000  0.61115000  1
  C  C21  1  0.69813400  0.88767500  0.65326100  1
  C  C22  1  0.73192500  0.88707200  0.70598500  1
  C  C23  1  0.94727000  0.17927600  0.66940900  1
  C  C24  1  0.89667000  0.20258900  0.72017500  1
  C  C25  1  0.95783700  0.20553400  0.76446500  1
  C  C26  1  0.07013600  0.18477400  0.75818500  1
  C  C27  1  0.12151100  0.16305000  0.70717900  1
  C  C28  1  0.05958000  0.16091400  0.66212200  1
  C  C29  1  0.11475700  0.13113000  0.61155100  1
  C  C30  1  0.22547800  0.11591400  0.60622300  1
  C  C31  1  0.28555300  0.11995000  0.65074400  1
  C  C32  1  0.23664100  0.13711200  0.70162100  1
  C  C33  1  0.71971700  0.81044200  0.28069400  1
  C  C34  1  0.61752900  0.90137900  0.30089800  1
  C  C35  1  0.61841300  0.95537100  0.34826400  1
  C  C36  1  0.72197600  0.92169700  0.37471000  1
  C  C37  1  0.82702100  0.83285500  0.35404800  1
  C  C38  1  0.82458800  0.77284400  0.30759900  1
  C  C39  1  0.92782500  0.67825100  0.28808200  1
  C  C40  1  0.03009500  0.64430200  0.31559700  1
  C  C41  1  0.03346500  0.70403400  0.35995800  1
  C  C42  1  0.93417400  0.80096200  0.37913100  1
  C  C43  1  0.11392700  0.94125700  0.31169500  1
  C  C44  1  0.09118100  0.90959600  0.26208000  1
  C  C45  1  0.08358500  0.97311500  0.21675700  1
  C  C46  1  0.09968600  0.06782800  0.22084600  1
  C  C47  1  0.12508600  0.09959100  0.27047500  1
  C  C48  1  0.13156400  0.03595200  0.31629800  1
  C  C49  1  0.14724300  0.07231100  0.36677400  1
  C  C50  1  0.16881400  0.16390100  0.37032800  1
  C  C51  1  0.16789400  0.22397300  0.32448100  1
  C  C52  1  0.13962200  0.19656100  0.27497900  1
  C  C53  1  0.27573300  0.06724000  0.09401100  1
  C  C54  1  0.38295800  0.96783300  0.09880900  1
  C  C55  1  0.44066400  0.90541400  0.05340700  1
  C  C56  1  0.39187500  0.94294700  0.00302700  1
  C  C57  1  0.28295400  0.04237100  0.99762600  1
  C  C58  1  0.22380500  0.10465500  0.04358200  1
  C  C59  1  0.11597700  0.20618400  0.03867600  1
  C  C60  1  0.06573700  0.24064800  0.98825000  1
  C  C61  1  0.12716200  0.18196200  0.94246100  1
  C  C62  1  0.23689600  0.08490700  0.94666600  1
  C  C63  1  0.93051500  0.81399900  0.04199600  1
  C  C64  1  0.94557400  0.90253700  0.02182100  1
  C  C65  1  0.89156800  0.95754700  0.97458500  1
  C  C66  1  0.81883200  0.92733900  0.94823600  1
  C  C67  1  0.79886100  0.84103200  0.96887900  1
  C  C68  1  0.86025200  0.77985100  0.01519200  1
  C  C69  1  0.84780000  0.68747900  0.03458900  1
  C  C70  1  0.77562600  0.65778900  0.00743500  1
  C  C71  1  0.71368400  0.71872800  0.96319600  1
  C  C72  1  0.72111200  0.81252000  0.94376000  1
  O  O1  1  0.88364600  0.97699700  0.43268200  1
  O  O2  1  0.03333300  0.84721900  0.56244600  1
  O  O3  1  0.85802100  0.01057500  0.54776400  1
  O  O4  1  0.05394700  0.81100600  0.44884200  1
  O  O5  1  0.17135200  0.93847000  0.43933600  1
  O  O6  1  0.97372000  0.13913900  0.54534800  1
  O  O7  1  0.14954000  0.97327400  0.55395700  1
  O  O8  1  0.99797900  0.10723700  0.43048700  1
  O  O9  1  0.36397100  0.14552100  0.77015300  1
  O  O10  1  0.35356800  0.94912200  0.87559000  1
  O  O11  1  0.35630500  0.11868500  0.88549200  1
  O  O12  1  0.35090900  0.98121900  0.76132500  1
  O  O13  1  0.59494500  0.85399900  0.75735500  1
  O  O14  1  0.60035700  0.98783700  0.88942300  1
  O  O15  1  0.59852200  0.82119200  0.87090300  1
  O  O16  1  0.60958300  0.01474500  0.77582000  1
  O  O17  1  0.01468800  0.57455800  0.09460000  1
  O  O18  1  0.87099200  0.57020300  0.22618600  1
  O  O19  1  0.03859800  0.57392800  0.21142500  1
  O  O20  1  0.84321500  0.57883000  0.10964100  1
  O  O21  1  0.96647600  0.33578500  0.10315400  1
  O  O22  1  0.15772200  0.33040300  0.21289900  1
  O  O23  1  0.98748000  0.32687100  0.21707000  1
  O  O24  1  0.14088700  0.33104100  0.09906300  1
