# generated using pymatgen
data_Zn6H25C43(O8F)3
_symmetry_space_group_name_H-M   'P 1'
_cell_length_a   18.89213100
_cell_length_b   19.16493400
_cell_length_c   19.22806900
_cell_angle_alpha   70.40103200
_cell_angle_beta   70.46310800
_cell_angle_gamma   108.85433000
_symmetry_Int_Tables_number   1
_chemical_formula_structural   Zn6H25C43(O8F)3
_chemical_formula_sum   'Zn6 H25 C43 O24 F3'
_cell_volume   5386.84216861
_cell_formula_units_Z   1
loop_
 _symmetry_equiv_pos_site_id
 _symmetry_equiv_pos_as_xyz
  1  'x, y, z'
loop_
 _atom_site_type_symbol
 _atom_site_label
 _atom_site_symmetry_multiplicity
 _atom_site_fract_x
 _atom_site_fract_y
 _atom_site_fract_z
 _atom_site_occupancy
  Zn  Zn1  1  0.99809000  0.92021600  0.57871900  1
  Zn  Zn2  1  0.99442600  0.05115600  0.43996900  1
  Zn  Zn3  1  0.57828700  0.06802300  0.99299300  1
  Zn  Zn4  1  0.43160200  0.93004700  0.00495600  1
  Zn  Zn5  1  0.43474100  0.50273300  0.55857600  1
  Zn  Zn6  1  0.56945900  0.48579000  0.43650400  1
  H  H1  1  0.87083800  0.99422900  0.75964800  1
  H  H2  1  0.75703900  0.95601600  0.57964900  1
  H  H3  1  0.63661200  0.96094400  0.56614300  1
  H  H4  1  0.53911400  0.98838200  0.66089900  1
  H  H5  1  0.55990200  0.00676100  0.77138400  1
  H  H6  1  0.76103300  0.99666100  0.86831600  1
  H  H7  1  0.61976500  0.74040200  0.52039800  1
  H  H8  1  0.75834600  0.69306400  0.45497400  1
  H  H9  1  0.75291500  0.87076800  0.48007700  1
  H  H10  1  0.80098100  0.73372300  0.54459700  1
  H  H11  1  0.23472100  0.97388500  0.14936800  1
  H  H12  1  0.35164500  0.03866700  0.21724500  1
  H  H13  1  0.14417400  0.01554800  0.24025400  1
  H  H14  1  0.21949600  0.95186800  0.34981100  1
  H  H15  1  0.24828000  0.29838100  0.53502500  1
  H  H16  1  0.21873100  0.09399100  0.56818500  1
  H  H17  1  0.20498200  0.24033700  0.45663300  1
  H  H18  1  0.62702100  0.35342900  0.62594800  1
  H  H19  1  0.44332400  0.29166400  0.75904900  1
  H  H20  1  0.62737800  0.26649900  0.75866800  1
  H  H21  1  0.44017200  0.15856500  0.80948200  1
  H  H22  1  0.38095200  0.64167000  0.36961000  1
  H  H23  1  0.56283000  0.69934500  0.23600100  1
  H  H24  1  0.38226300  0.73140700  0.23715600  1
  H  H25  1  0.56931400  0.83709800  0.18839300  1
  C  C1  1  0.87626800  0.86523200  0.51363600  1
  C  C2  1  0.87573900  0.98908600  0.62341900  1
  C  C3  1  0.11636300  0.10637100  0.50502800  1
  C  C4  1  0.11496500  0.98038400  0.39558400  1
  C  C5  1  0.71678600  0.96916400  0.62235000  1
  C  C6  1  0.64724400  0.97032000  0.61492900  1
  C  C7  1  0.59233900  0.98496800  0.66834900  1
  C  C8  1  0.60403700  0.99383400  0.73234900  1
  C  C9  1  0.67149300  0.98842500  0.74357600  1
  C  C10  1  0.73197700  0.98211600  0.68414000  1
  C  C11  1  0.80540300  0.98666500  0.68871000  1
  C  C12  1  0.81434300  0.99111000  0.75547800  1
  C  C13  1  0.75286200  0.99373400  0.81616600  1
  C  C14  1  0.68116200  0.99194400  0.81140000  1
  C  C15  1  0.68114100  0.74165000  0.50310300  1
  C  C16  1  0.69453700  0.68646500  0.48058100  1
  C  C17  1  0.75138800  0.81016600  0.49684000  1
  C  C18  1  0.80797900  0.79675200  0.51840600  1
  C  C19  1  0.25173500  0.99127200  0.19194400  1
  C  C20  1  0.33054000  0.01202300  0.18162600  1
  C  C21  1  0.18923900  0.99911200  0.25472000  1
  C  C22  1  0.18111600  0.97751200  0.33161000  1
  C  C23  1  0.31082000  0.22808100  0.51882100  1
  C  C24  1  0.30844600  0.29731900  0.51954200  1
  C  C25  1  0.23396800  0.15917900  0.53291300  1
  C  C26  1  0.18712000  0.17540000  0.49738200  1
  C  C27  1  0.49944800  0.11297500  0.88201400  1
  C  C28  1  0.61811900  0.99412700  0.87927600  1
  C  C29  1  0.51042400  0.88491300  0.11594000  1
  C  C30  1  0.39207400  0.00566300  0.11692600  1
  C  C31  1  0.50306400  0.60347900  0.37065100  1
  C  C32  1  0.62577800  0.61887300  0.48487200  1
  C  C33  1  0.50154600  0.38556900  0.62435400  1
  C  C34  1  0.37821000  0.36842200  0.51126000  1
  C  C35  1  0.56778300  0.31353600  0.68666600  1
  C  C36  1  0.49959300  0.32465700  0.69659100  1
  C  C37  1  0.56727300  0.25249700  0.75812000  1
  C  C38  1  0.49747100  0.17674800  0.81552600  1
  C  C39  1  0.44023600  0.68089800  0.30893100  1
  C  C40  1  0.50663300  0.66651100  0.29849200  1
  C  C41  1  0.44206200  0.74425600  0.23810800  1
  C  C42  1  0.51215200  0.82025300  0.18204200  1
  C  C43  1  0.38594000  0.21370500  0.51214400  1
  O  O1  1  0.90885700  0.84443300  0.56276900  1
  O  O2  1  0.90133200  0.94404400  0.46109300  1
  O  O3  1  0.90840300  0.94115700  0.64833700  1
  O  O4  1  0.90292500  0.03865700  0.54311700  1
  O  O5  1  0.09034300  0.02748400  0.55831500  1
  O  O6  1  0.08452700  0.12683600  0.45514600  1
  O  O7  1  0.09056200  0.93359500  0.47561100  1
  O  O8  1  0.08322200  0.02927700  0.37047800  1
  O  O9  1  0.55772700  0.13780800  0.90406900  1
  O  O10  1  0.44259600  0.03315000  0.91605700  1
  O  O11  1  0.64785800  0.04602100  0.90532400  1
  O  O12  1  0.53544100  0.94359000  0.91235600  1
  O  O13  1  0.56766400  0.96476300  0.08141400  1
  O  O14  1  0.45184300  0.86040900  0.09430000  1
  O  O15  1  0.47464100  0.05402200  0.08616500  1
  O  O16  1  0.36205600  0.95256500  0.09212200  1
  O  O17  1  0.44898900  0.58204900  0.44776900  1
  O  O18  1  0.55574400  0.57282000  0.35485000  1
  O  O19  1  0.54513500  0.59694900  0.53215000  1
  O  O20  1  0.64853600  0.58135000  0.44274100  1
  O  O21  1  0.44863400  0.41595600  0.64025500  1
  O  O22  1  0.55532200  0.40649100  0.54726600  1
  O  O23  1  0.35579900  0.40695300  0.55238400  1
  O  O24  1  0.45895300  0.39170900  0.46306500  1
  F  F1  1  0.36512800  0.13218200  0.52676100  1
  F  F2  1  0.40667200  0.22363300  0.57196800  1
  F  F3  1  0.45619100  0.26994000  0.43130000  1
