# Generated by REPEAT Assigner based on pymatgen
data_DB0-m3_o18_o51_f0_fsc.sym.18_sqe
_audit_creation_date              2022-05-24
_audit_creation_method            REPEAT_Assigner
_cell_length_a                    8.537290
_cell_length_b                    13.156856
_cell_length_c                    14.515958
_cell_angle_alpha                 108.641078
_cell_angle_beta                  91.634972
_cell_angle_gamma                 86.508318
_cell_volume                      1542.013993
_symmetry_space_group_name_H-M    P1
_symmetry_Int_Tables_number       1
loop_
    _symmetry_equiv_pos_site_id
    _symmetry_equiv_pos_as_xyz
    1  x,y,z
loop_
    _atom_site_type_symbol
    _atom_site_label
    _atom_site_fract_x
    _atom_site_fract_y
    _atom_site_fract_z
    _atom_type_partial_charge
    C   C1   0.843688  0.702836  0.008466  -0.002610
    C   C2   0.156411  0.297160  0.991536  -0.003056
    C   C3   0.830872  0.800572  0.992068  -0.330515
    C   C4   0.169227  0.199424  0.007934  -0.330126
    C   C5   0.964432  0.855044  0.991221  0.346567
    C   C6   0.035666  0.144952  0.008781  0.345773
    C   C7   0.111533  0.804517  0.994478  -0.315660
    C   C8   0.888566  0.195479  0.005523  -0.314624
    H   H1   0.217539  0.840111  0.984163  0.131573
    H   H2   0.782560  0.159885  0.015838  0.131223
    C   C9   0.122677  0.705835  0.009622  0.001207
    C   C10  0.877421  0.294161  0.990379  0.000179
    C   C11  0.988940  0.659857  0.023097  -0.158075
    C   C12  0.011159  0.340139  0.976905  -0.157396
    C   C13  0.945270  0.964070  0.983721  -0.250367
    C   C14  0.054829  0.035926  0.016281  -0.249550
    H   H3   0.836288  0.986117  0.953344  0.147548
    H   H4   0.163811  0.013879  0.046658  0.147295
    H   H5   0.716176  0.836075  0.983278  0.126870
    H   H6   0.283923  0.163921  0.016723  0.126886
    H   H7   0.998477  0.585036  0.038385  0.133626
    H   H8   0.001621  0.414960  0.961617  0.133635
    O   O1   0.664103  0.626611  0.086301  -0.740395
    O   O2   0.335995  0.373385  0.913700  -0.740502
    O   O3   0.653337  0.584009  0.919272  -0.709330
    O   O4   0.346762  0.415987  0.080729  -0.709369
    C   C15  0.708286  0.639044  0.004963  0.856938
    C   C16  0.291813  0.360953  0.995039  0.856993
    O   O5   0.674816  0.370436  0.913458  -0.738849
    O   O6   0.325283  0.629560  0.086543  -0.738478
    O   O7   0.673857  0.413202  0.080467  -0.708848
    O   O8   0.326241  0.586794  0.919535  -0.708801
    C   C17  0.728918  0.356935  0.994478  0.833654
    C   C18  0.271181  0.643061  0.005523  0.833027
    Zn  Zn1  0.497306  0.468769  0.891853  1.060424
    Zn  Zn2  0.502793  0.531228  0.108149  1.060647
    N   N1   0.494895  0.427872  0.764457  0.122223
    N   N2   0.505204  0.572124  0.235544  0.121612
    C   C19  0.497696  0.276731  0.622517  -0.142574
    C   C20  0.502406  0.723265  0.377485  -0.142337
    C   C21  0.497140  0.321203  0.722360  -0.124676
    C   C22  0.502960  0.678793  0.277642  -0.124310
    C   C23  0.494313  0.495118  0.711432  -0.237773
    C   C24  0.505786  0.504878  0.288569  -0.237211
    C   C25  0.496872  0.455080  0.609643  0.091464
    C   C26  0.503228  0.544916  0.390359  0.090762
    C   C27  0.498011  0.344499  0.565982  0.157853
    C   C28  0.502091  0.655497  0.434019  0.157696
    C   C29  0.498775  0.522121  0.550716  0.054709
    C   C30  0.501326  0.477875  0.449285  0.055572
    C   C31  0.501518  0.367008  0.408832  -0.139754
    C   C32  0.498584  0.632988  0.591170  -0.139230
    C   C33  0.500002  0.302067  0.465924  -0.252316
    C   C34  0.500100  0.697929  0.534078  -0.251974
    H   H9   0.500726  0.216947  0.428332  0.141107
    H   H10  0.499378  0.783049  0.571670  0.140936
    H   H11  0.507225  0.420972  0.248140  0.180728
    H   H12  0.492873  0.579024  0.751862  0.180850
    H   H13  0.500617  0.727272  0.230406  0.156182
    H   H14  0.499483  0.272724  0.769596  0.156441
    H   H15  0.502898  0.325315  0.332246  0.136439
    H   H16  0.497205  0.674680  0.667755  0.136221
    C   C35  0.498947  0.156963  0.574900  0.289651
    C   C36  0.497400  0.093723  0.645932  -0.260832
    H   H17  0.604618  0.107204  0.692288  0.064521
    H   H18  0.389746  0.116295  0.690572  0.067866
    H   H19  0.496683  0.007056  0.604695  0.019389
    H   H20  0.393218  0.137560  0.527744  -0.005027
    H   H21  0.606538  0.130313  0.530656  -0.003501
    C   C37  0.501159  0.843033  0.425102  0.289297
    C   C38  0.502708  0.906273  0.354069  -0.260590
    H   H22  0.610361  0.883698  0.309429  0.067912
    H   H23  0.395490  0.892794  0.307715  0.064490
    H   H24  0.503430  0.992939  0.395307  0.019211
    H   H25  0.393569  0.869684  0.469346  -0.003498
    H   H26  0.606888  0.862434  0.472258  -0.005037
