# Generated by REPEAT Assigner based on pymatgen
data_DB0-m29_o82_o147_f0_pts.sym.12
_audit_creation_date              2022-05-24
_audit_creation_method            REPEAT_Assigner
_cell_length_a                    14.401389
_cell_length_b                    9.368239
_cell_length_c                    15.810322
_cell_angle_alpha                 87.543354
_cell_angle_beta                  91.774957
_cell_angle_gamma                 110.502341
_cell_volume                      1995.820802
_symmetry_space_group_name_H-M    P1
_symmetry_Int_Tables_number       1
loop_
    _symmetry_equiv_pos_site_id
    _symmetry_equiv_pos_as_xyz
    1  x,y,z
loop_
    _atom_site_type_symbol
    _atom_site_label
    _atom_site_fract_x
    _atom_site_fract_y
    _atom_site_fract_z
    _atom_type_partial_charge
    C   C1   0.227171  0.923674  0.887297  -0.126180
    C   C2   0.130141  0.877155  0.857055  0.378191
    C   C3   0.056610  0.896740  0.903864  -0.220602
    C   C4   0.909002  0.048799  0.901132  -0.016771
    C   C5   0.245655  0.973311  0.969837  -0.161586
    C   C6   0.171671  0.997989  0.015368  0.123371
    C   C7   0.078449  0.973083  0.979282  0.033382
    C   C8   0.006906  0.009987  0.023689  0.107654
    C   C9   0.819357  0.045065  0.866342  -0.194802
    C   C10  0.737199  0.009788  0.916187  0.052747
    C   C11  0.918326  0.017817  0.987056  -0.007551
    C   C12  0.840978  0.013710  0.038688  0.116161
    C   C13  0.748045  0.998575  0.003334  -0.033016
    C   C14  0.190415  0.045436  0.097859  -0.165310
    C   C15  0.116331  0.059848  0.144936  0.003210
    C   C16  0.024742  0.040707  0.108841  -0.180471
    C   C17  0.951736  0.055580  0.158232  0.475822
    C   C18  0.859604  0.035699  0.124466  -0.349165
    H   H1   0.981561  0.846971  0.880214  0.110478
    H   H2   0.971817  0.082521  0.859814  0.084083
    H   H3   0.812828  0.062528  0.798716  0.157549
    H   H4   0.260942  0.066006  0.129630  0.101347
    H   H5   0.132549  0.089583  0.210369  0.092185
    H   H6   0.806941  0.052330  0.166289  0.150424
    O   O1   0.596511  0.038724  0.036096  -0.515046
    C   C19  0.662000  0.974298  0.057164  0.571745
    O   O2   0.458602  0.682647  0.111658  -0.431718
    O   O3   0.649804  0.886708  0.125801  -0.488280
    O   O4   0.476701  0.846813  0.216288  -0.536076
    C   C20  0.467382  0.709874  0.192828  0.604433
    Fe  Fe1  0.489869  0.994146  0.119828  1.382102
    O   O5   0.360942  0.897465  0.057533  -0.612234
    O   O6   0.406752  0.143974  0.009725  -0.508201
    C   C21  0.343132  0.003759  0.009862  0.844646
    O   O7   0.520684  0.199879  0.168919  -0.614391
    O   O8   0.391626  0.059961  0.251011  -0.533156
    C   C22  0.460161  0.191105  0.230832  0.650313
    O   O9   0.438755  0.776321  0.715614  -0.547097
    O   O10  0.574278  0.890643  0.635760  -0.449031
    C   C23  0.496229  0.770313  0.654033  0.465982
    O   O11  0.629308  0.066719  0.810747  -0.566966
    O   O12  0.563819  0.861335  0.899679  -0.454705
    C   C24  0.639685  0.980620  0.875451  0.551722
    O   O13  0.290712  0.907193  0.749520  -0.496718
    O   O14  0.498007  0.132938  0.668233  -0.555822
    C   C25  0.460246  0.236253  0.687845  0.584009
    O   O15  0.399796  0.958953  0.859244  -0.504093
    C   C26  0.307902  0.923787  0.831150  0.640265
    O   O16  0.428629  0.234286  0.764968  -0.523948
    Fe  Fe2  0.490375  0.985252  0.763501  1.422302
    C   C27  0.462531  0.496664  0.661965  -0.183504
    C   C28  0.478847  0.626247  0.611818  0.164614
    C   C29  0.485117  0.619968  0.524604  -0.380369
    C   C30  0.516814  0.764663  0.472636  0.556201
    C   C31  0.485838  0.748251  0.380620  -0.234968
    C   C32  0.461663  0.363130  0.627938  -0.034300
    C   C33  0.464717  0.354886  0.540067  -0.069061
    C   C34  0.473122  0.482607  0.488114  0.244523
    C   C35  0.474586  0.475129  0.395420  -0.212134
    C   C36  0.479426  0.601605  0.343059  0.183680
    C   C37  0.472330  0.588441  0.254651  -0.115533
    C   C38  0.466480  0.211559  0.504096  0.062991
    C   C39  0.443793  0.193861  0.410791  -0.145597
    C   C40  0.463620  0.337861  0.359268  0.095424
    C   C41  0.465281  0.330267  0.272187  -0.065131
    C   C42  0.470787  0.454467  0.221162  -0.127824
    H   H7   0.482996  0.844132  0.496756  0.004739
    H   H8   0.413636  0.765185  0.371799  0.082281
    H   H9   0.409059  0.112742  0.534909  0.055155
    H   H10  0.364431  0.123003  0.402780  0.091005
    H   H11  0.545302  0.842739  0.349110  0.087610
    H   H12  0.540842  0.203730  0.516200  0.076255
    H   H13  0.490059  0.130562  0.388534  0.069053
    H   H14  0.460957  0.505519  0.729764  0.178704
    H   H15  0.469092  0.441820  0.153528  0.186230
    O   O17  0.104713  0.808317  0.781056  -0.459607
    H   H16  0.096264  0.888424  0.741910  0.355615
    O   O18  0.619823  0.831903  0.477842  -0.558249
    H   H17  0.644807  0.749140  0.465672  0.340304
    O   O19  0.969255  0.086561  0.242117  -0.508497
    H   H18  0.947371  0.985146  0.271571  0.349205
