# generated using pymatgen
data_FeH16C32(SO2)4
_symmetry_space_group_name_H-M   'P 1'
_cell_length_a   15.82764900
_cell_length_b   20.81322000
_cell_length_c   21.91142700
_cell_angle_alpha   90.55587300
_cell_angle_beta   101.17158000
_cell_angle_gamma   104.21918700
_symmetry_Int_Tables_number   1
_chemical_formula_structural   FeH16C32(SO2)4
_chemical_formula_sum   'Fe2 H32 C64 S8 O16'
_cell_volume   6851.96372823
_cell_formula_units_Z   2
loop_
 _symmetry_equiv_pos_site_id
 _symmetry_equiv_pos_as_xyz
  1  'x, y, z'
loop_
 _atom_site_type_symbol
 _atom_site_label
 _atom_site_symmetry_multiplicity
 _atom_site_fract_x
 _atom_site_fract_y
 _atom_site_fract_z
 _atom_site_occupancy
  Fe  Fe1  1  0.46559200  0.99076200  0.85097100  1
  Fe  Fe2  1  0.48725000  0.99438000  0.13328700  1
  H  H1  1  0.19256400  0.98483300  0.85015800  1
  H  H2  1  0.04844300  0.98322600  0.87534400  1
  H  H3  1  0.16543200  0.00983300  0.06798300  1
  H  H4  1  0.79359800  0.98793700  0.91772800  1
  H  H5  1  0.76299800  0.00799300  0.13523600  1
  H  H6  1  0.90829100  0.01306900  0.11064200  1
  H  H7  1  0.50343900  0.50152700  0.38743900  1
  H  H8  1  0.47133200  0.48649200  0.60403400  1
  H  H9  1  0.61006600  0.77538600  0.44279800  1
  H  H10  1  0.38796500  0.73595700  0.57005600  1
  H  H11  1  0.39606300  0.22124200  0.38268000  1
  H  H12  1  0.40102200  0.77965300  0.18391400  1
  H  H13  1  0.40976600  0.68283100  0.25200000  1
  H  H14  1  0.57781900  0.34100500  0.24965000  1
  H  H15  1  0.59303400  0.25428400  0.17326400  1
  H  H16  1  0.32635000  0.18852400  0.77293600  1
  H  H17  1  0.35174800  0.27761200  0.69794700  1
  H  H18  1  0.49895300  0.65667300  0.77037300  1
  H  H19  1  0.50269000  0.74698500  0.85047700  1
  H  H20  1  0.38868200  0.30630700  0.46275900  1
  H  H21  1  0.59685600  0.35019000  0.52297900  1
  H  H22  1  0.39606900  0.65176200  0.48948100  1
  H  H23  1  0.60350300  0.67966700  0.51399900  1
  H  H24  1  0.65000200  0.24464200  0.64437000  1
  H  H25  1  0.66236100  0.26925100  0.56903500  1
  H  H26  1  0.50634500  0.15613100  0.59024400  1
  H  H27  1  0.57438400  0.21191700  0.47510300  1
  H  H28  1  0.46608500  0.20448700  0.49456100  1
  H  H29  1  0.49897900  0.13130700  0.47592800  1
  H  H30  1  0.67995600  0.15379500  0.54862400  1
  H  H31  1  0.58921400  0.08295400  0.55383600  1
  H  H32  1  0.65414900  0.13089100  0.62365200  1
  C  C1  1  0.18756900  0.98949200  0.89841400  1
  C  C2  1  0.10642300  0.98922500  0.91233600  1
  C  C3  1  0.09948400  0.99792700  0.97322200  1
  C  C4  1  0.17335300  0.00505600  0.02041400  1
  C  C5  1  0.25547700  0.00469600  0.00712400  1
  C  C6  1  0.26272600  0.99869400  0.94506900  1
  C  C7  1  0.01482300  0.99874400  0.98735100  1
  C  C8  1  0.94346300  0.99927800  0.99877700  1
  C  C9  1  0.78481600  0.99185800  0.96517100  1
  C  C10  1  0.70179700  0.99013600  0.97799500  1
  C  C11  1  0.69354900  0.99448100  0.04014900  1
  C  C12  1  0.76863900  0.00457000  0.08701100  1
  C  C13  1  0.85053600  0.00684100  0.07342600  1
  C  C14  1  0.85842100  0.99940000  0.01261400  1
  C  C15  1  0.43560300  0.10199000  0.79344600  1
  C  C16  1  0.34789000  0.00505400  0.92595600  1
  C  C17  1  0.62701900  0.98632900  0.92486900  1
  C  C18  1  0.46096800  0.86420500  0.81210800  1
  C  C19  1  0.51561300  0.12053100  0.18360600  1
  C  C20  1  0.33057300  0.00729900  0.05953800  1
  C  C21  1  0.60792000  0.98525900  0.05946500  1
  C  C22  1  0.50866500  0.90604200  0.22395400  1
  C  C23  1  0.48204500  0.38161300  0.42296900  1
  C  C24  1  0.42984000  0.31881300  0.42847700  1
  C  C25  1  0.55244500  0.34150100  0.55548000  1
  C  C26  1  0.49354900  0.37959600  0.56017900  1
  C  C27  1  0.48530200  0.43436600  0.52501400  1
  C  C28  1  0.49007400  0.43735300  0.46202200  1
  C  C29  1  0.47833000  0.49025000  0.55637600  1
  C  C30  1  0.48136800  0.55036200  0.52896000  1
  C  C31  1  0.49504200  0.55481700  0.46771000  1
  C  C32  1  0.49643500  0.49792100  0.43518400  1
  C  C33  1  0.46498800  0.60167800  0.56339200  1
  C  C34  1  0.42352400  0.64969200  0.53831600  1
  C  C35  1  0.56793600  0.67365200  0.46609200  1
  C  C36  1  0.51318000  0.61422800  0.43784200  1
  C  C37  1  0.57261500  0.72529800  0.42712800  1
  C  C38  1  0.52174400  0.70662200  0.36810700  1
  C  C39  1  0.45002400  0.68118300  0.64223600  1
  C  C40  1  0.41728400  0.69492600  0.58223900  1
  C  C41  1  0.55162800  0.29236400  0.59751100  1
  C  C42  1  0.49124000  0.29184900  0.63657400  1
  C  C43  1  0.48500800  0.29898800  0.34274800  1
  C  C44  1  0.43237400  0.27265200  0.38412400  1
  C  C45  1  0.50843800  0.75114900  0.32260700  1
  C  C46  1  0.45335500  0.72047200  0.69436800  1
  C  C47  1  0.47150400  0.24867000  0.68359100  1
  C  C48  1  0.50209500  0.26114300  0.29644900  1
  C  C49  1  0.49883800  0.84449900  0.25646700  1
  C  C50  1  0.44349900  0.78512700  0.22964800  1
  C  C51  1  0.44922300  0.73271200  0.26640900  1
  C  C52  1  0.55026500  0.28852400  0.25269900  1
  C  C53  1  0.55864200  0.24179900  0.21128600  1
  C  C54  1  0.51870300  0.17794700  0.22331800  1
  C  C55  1  0.44599300  0.16221200  0.75903800  1
  C  C56  1  0.38352700  0.19856000  0.75109500  1
  C  C57  1  0.39823400  0.24732800  0.70998600  1
  C  C58  1  0.48136400  0.70242600  0.75765900  1
  C  C59  1  0.48278700  0.75089600  0.80088600  1
  C  C60  1  0.45913800  0.80552500  0.77460800  1
  C  C61  1  0.61210100  0.24727400  0.59684900  1
  C  C62  1  0.56200300  0.17833500  0.56719800  1
  C  C63  1  0.52334400  0.18203900  0.49876100  1
  C  C64  1  0.62551900  0.13366400  0.57368000  1
  S  S1  1  0.46968200  0.61944000  0.35655300  1
  S  S2  1  0.48923700  0.60758300  0.64723000  1
  S  S3  1  0.43466700  0.35682500  0.62169800  1
  S  S4  1  0.53129200  0.38670100  0.35524700  1
  S  S5  1  0.56312700  0.83824300  0.33207900  1
  S  S6  1  0.46543000  0.17212700  0.28873200  1
  S  S7  1  0.53200400  0.18963100  0.71597100  1
  S  S8  1  0.42947500  0.80028600  0.69102000  1
  O  O1  1  0.50084800  0.07246400  0.80675200  1
  O  O2  1  0.41523800  0.05604600  0.94735300  1
  O  O3  1  0.35918300  0.07630300  0.80919600  1
  O  O4  1  0.35123200  0.96606600  0.87950800  1
  O  O5  1  0.55313600  0.00071900  0.93222100  1
  O  O6  1  0.63659800  0.97265500  0.86842200  1
  O  O7  1  0.46062500  0.92064100  0.78597800  1
  O  O8  1  0.46585700  0.86114800  0.87242500  1
  O  O9  1  0.48936100  0.06010200  0.20157300  1
  O  O10  1  0.53643400  0.12941500  0.12866700  1
  O  O11  1  0.40137200  0.98842000  0.05170900  1
  O  O12  1  0.32352700  0.02334200  0.11603000  1
  O  O13  1  0.57656000  0.95680400  0.24465500  1
  O  O14  1  0.60272500  0.02252800  0.10662700  1
  O  O15  1  0.45155600  0.90938400  0.17260000  1
  O  O16  1  0.54204000  0.93363500  0.03713200  1
