# generated using pymatgen
data_Zn2H18C37(NO2)4
_symmetry_space_group_name_H-M   'P 1'
_cell_length_a   13.39859900
_cell_length_b   8.54906800
_cell_length_c   10.83798000
_cell_angle_alpha   90.00000000
_cell_angle_beta   90.51616300
_cell_angle_gamma   90.00000000
_symmetry_Int_Tables_number   1
_chemical_formula_structural   Zn2H18C37(NO2)4
_chemical_formula_sum   'Zn2 H18 C37 N4 O8'
_cell_volume   1241.39183029
_cell_formula_units_Z   1
loop_
 _symmetry_equiv_pos_site_id
 _symmetry_equiv_pos_as_xyz
  1  'x, y, z'
loop_
 _atom_site_type_symbol
 _atom_site_label
 _atom_site_symmetry_multiplicity
 _atom_site_fract_x
 _atom_site_fract_y
 _atom_site_fract_z
 _atom_site_occupancy
  Zn  Zn1  1  0.11281800  0.48828900  0.52103400  1
  Zn  Zn2  1  0.89042800  0.47894500  0.50972000  1
  H  H1  1  0.96186500  0.59838200  0.90485300  1
  H  H2  1  0.03829300  0.36796700  0.90182100  1
  H  H3  1  0.96510800  0.59931200  0.12902100  1
  H  H4  1  0.04153300  0.36887200  0.12598300  1
  H  H5  1  0.97381300  0.98410500  0.60283400  1
  H  H6  1  0.02978400  0.98312900  0.42795000  1
  H  H7  1  0.75025300  0.48087100  0.31164600  1
  H  H8  1  0.42692300  0.47491000  0.81988800  1
  H  H9  1  0.57205700  0.48563700  0.30530300  1
  H  H10  1  0.41897100  0.49583400  0.31239900  1
  H  H11  1  0.75080500  0.46687400  0.69878100  1
  H  H12  1  0.24311700  0.50084000  0.33083400  1
  H  H13  1  0.26680900  0.39034500  0.79691900  1
  H  H14  1  0.24950100  0.51619300  0.98642800  1
  H  H15  1  0.26258200  0.76044200  0.10333000  1
  H  H16  1  0.27669000  0.01177000  0.99464700  1
  H  H17  1  0.27706400  0.01827700  0.76796900  1
  H  H18  1  0.26362000  0.77752900  0.64952700  1
  C  C1  1  0.98629400  0.98350900  0.69993900  1
  C  C2  1  0.98849400  0.84325500  0.76082900  1
  C  C3  1  0.00061900  0.12274800  0.76004700  1
  C  C4  1  0.98976700  0.84322300  0.88839300  1
  C  C5  1  0.00960800  0.12283000  0.88728100  1
  C  C6  1  0.97681500  0.70607700  0.95302700  1
  C  C7  1  0.02540100  0.26041600  0.95077400  1
  C  C8  1  0.97799100  0.70685500  0.08005400  1
  C  C9  1  0.02658100  0.26118300  0.07780000  1
  C  C10  1  0.00038800  0.98338400  0.95157200  1
  C  C11  1  0.00301200  0.98387900  0.07923500  1
  C  C12  1  0.99379900  0.84444400  0.14353400  1
  C  C13  1  0.01364900  0.12402600  0.14242100  1
  C  C14  1  0.00283900  0.84454400  0.27076200  1
  C  C15  1  0.01498200  0.12395900  0.26998200  1
  C  C16  1  0.01723000  0.98373600  0.33085900  1
  C  C17  1  0.00123500  0.70264700  0.34682400  1
  C  C18  1  0.01008300  0.26605500  0.34587000  1
  C  C19  1  0.99343800  0.70107900  0.68498000  1
  C  C20  1  0.00228400  0.26471400  0.68401000  1
  C  C21  1  0.70994900  0.46973000  0.61238200  1
  C  C22  1  0.70962900  0.47773300  0.39732900  1
  C  C23  1  0.60669800  0.48110800  0.39496800  1
  C  C24  1  0.55342000  0.47996000  0.50464700  1
  C  C25  1  0.60711200  0.47342100  0.61378200  1
  C  C26  1  0.38986500  0.49360100  0.40434800  1
  C  C27  1  0.44920300  0.48572100  0.50944200  1
  C  C28  1  0.40249800  0.48370400  0.62322400  1
  C  C29  1  0.46020100  0.47660700  0.72967800  1
  C  C30  1  0.28787800  0.49752100  0.41416800  1
  C  C31  1  0.29861500  0.48867900  0.62934100  1
  C  C32  1  0.25699000  0.62851100  0.81001900  1
  C  C33  1  0.25598300  0.62588200  0.93751100  1
  C  C34  1  0.26321600  0.76325000  0.00362200  1
  C  C35  1  0.27111400  0.90408500  0.94276000  1
  C  C36  1  0.27142800  0.90762500  0.81567300  1
  C  C37  1  0.26425400  0.77052100  0.74908800  1
  N  N1  1  0.75965800  0.47235900  0.50515200  1
  N  N2  1  0.56019500  0.47191800  0.72281700  1
  N  N3  1  0.24364800  0.49491100  0.52492400  1
  N  N4  1  0.24928600  0.48637900  0.74377000  1
  O  O1  1  0.91485000  0.64949100  0.38502400  1
  O  O2  1  0.92201400  0.31180400  0.38469100  1
  O  O3  1  0.08674500  0.65114000  0.39022100  1
  O  O4  1  0.09376400  0.32438300  0.38920600  1
  O  O5  1  0.08164500  0.65543500  0.64622900  1
  O  O6  1  0.08884200  0.31765700  0.64580900  1
  O  O7  1  0.90965700  0.64280500  0.64156100  1
  O  O8  1  0.91664600  0.31628600  0.64065400  1
