# generated using pymatgen
data_Fe2H17C48N3O20
_symmetry_space_group_name_H-M   'P 1'
_cell_length_a   9.40211600
_cell_length_b   19.82687400
_cell_length_c   15.27802500
_cell_angle_alpha   114.41591200
_cell_angle_beta   94.22482300
_cell_angle_gamma   86.41716900
_symmetry_Int_Tables_number   1
_chemical_formula_structural   Fe2H17C48N3O20
_chemical_formula_sum   'Fe2 H17 C48 N3 O20'
_cell_volume   2584.68528382
_cell_formula_units_Z   1
loop_
 _symmetry_equiv_pos_site_id
 _symmetry_equiv_pos_as_xyz
  1  'x, y, z'
loop_
 _atom_site_type_symbol
 _atom_site_label
 _atom_site_symmetry_multiplicity
 _atom_site_fract_x
 _atom_site_fract_y
 _atom_site_fract_z
 _atom_site_occupancy
  Fe  Fe1  1  0.45224100  0.98118600  0.32860600  1
  Fe  Fe2  1  0.54128600  0.01360500  0.67054200  1
  H  H1  1  0.99439800  0.97187500  0.29174500  1
  H  H2  1  0.67490100  0.99906100  0.09817500  1
  H  H3  1  0.00449800  0.02335600  0.70634700  1
  H  H4  1  0.31564000  0.00285500  0.91124300  1
  H  H5  1  0.24787400  0.98793000  0.04343700  1
  H  H6  1  0.71134500  0.57645900  0.65087400  1
  H  H7  1  0.84398500  0.48689800  0.69710000  1
  H  H8  1  0.29144100  0.42128800  0.35002300  1
  H  H9  1  0.15912700  0.51103900  0.30403400  1
  H  H10  1  0.23354500  0.22988700  0.44854700  1
  H  H11  1  0.42467900  0.29223700  0.77955000  1
  H  H12  1  0.30817000  0.38821200  0.73692200  1
  H  H13  1  0.76353500  0.76752700  0.55115700  1
  H  H14  1  0.58039500  0.70323400  0.21801800  1
  H  H15  1  0.69743900  0.60804600  0.26229100  1
  H  H16  1  0.64274500  0.98461300  0.94702000  1
  H  H17  1  0.67452200  0.07623700  0.01720400  1
  C  C1  1  0.07058400  0.98490500  0.17188700  1
  C  C2  1  0.96517000  0.97790200  0.22557100  1
  C  C3  1  0.82340400  0.98295900  0.19843100  1
  C  C4  1  0.78666400  0.99458800  0.11673800  1
  C  C5  1  0.89054200  0.99902000  0.05946900  1
  C  C6  1  0.03324600  0.99320200  0.08648100  1
  C  C7  1  0.85190300  0.00987100  0.97605700  1
  C  C8  1  0.95620200  0.00867300  0.91481000  1
  C  C9  1  0.09826500  0.00364500  0.94325800  1
  C  C10  1  0.13603400  0.99529200  0.02732500  1
  C  C11  1  0.92346300  0.01398500  0.82676500  1
  C  C12  1  0.03155800  0.01998600  0.77440800  1
  C  C13  1  0.17236700  0.01620500  0.80419000  1
  C  C14  1  0.20533800  0.00694300  0.88797700  1
  C  C15  1  0.71129600  0.97899200  0.25778200  1
  C  C16  1  0.54116300  0.84695600  0.32825700  1
  C  C17  1  0.21816900  0.98920900  0.21252700  1
  C  C18  1  0.35365500  0.11440100  0.46704800  1
  C  C19  1  0.64224300  0.88207200  0.52997300  1
  C  C20  1  0.78020700  0.00468000  0.77948400  1
  C  C21  1  0.45847700  0.14818300  0.66921600  1
  C  C22  1  0.28538300  0.01842100  0.74444500  1
  C  C23  1  0.92871600  0.59022300  0.38681000  1
  C  C24  1  0.77093700  0.61311100  0.50869200  1
  C  C25  1  0.84572700  0.56194300  0.53596400  1
  C  C26  1  0.96355500  0.52449000  0.48728900  1
  C  C27  1  0.00523100  0.53845800  0.41207100  1
  C  C28  1  0.80347200  0.54789800  0.61143900  1
  C  C29  1  0.87920900  0.49683400  0.63785700  1
  C  C30  1  0.99776500  0.45941000  0.58899000  1
  C  C31  1  0.03939100  0.47336100  0.51373800  1
  C  C32  1  0.15703700  0.43579900  0.46491700  1
  C  C33  1  0.19940900  0.44990900  0.38952900  1
  C  C34  1  0.12386300  0.50108900  0.36325700  1
  C  C35  1  0.07413100  0.40751500  0.61409600  1
  C  C36  1  0.23134800  0.38433100  0.49182300  1
  C  C37  1  0.27853200  0.24393500  0.52086700  1
  C  C38  1  0.34785900  0.18928500  0.54333000  1
  C  C39  1  0.40034200  0.20571500  0.63743200  1
  C  C40  1  0.38514000  0.27775300  0.70602600  1
  C  C41  1  0.31810400  0.33226700  0.68230800  1
  C  C42  1  0.26349400  0.31542000  0.58971400  1
  C  C43  1  0.71992100  0.75283300  0.47839900  1
  C  C44  1  0.65020300  0.80682200  0.45477600  1
  C  C45  1  0.60002600  0.78978100  0.36022700  1
  C  C46  1  0.61816500  0.71792400  0.29192400  1
  C  C47  1  0.68543500  0.66396700  0.31665100  1
  C  C48  1  0.73777200  0.68135900  0.40990000  1
  N  N1  1  0.81328400  0.62659900  0.43509500  1
  N  N2  1  0.18898200  0.37082200  0.56538000  1
  N  N3  1  0.70696100  0.02888100  0.95828800  1
  O  O1  1  0.57640000  0.98367400  0.23103400  1
  O  O2  1  0.54770400  0.83583800  0.23778000  1
  O  O3  1  0.74486700  0.97247600  0.33890500  1
  O  O4  1  0.48923000  0.91058600  0.38956500  1
  O  O5  1  0.25940700  0.95068700  0.26290200  1
  O  O6  1  0.29977000  0.04114300  0.21427300  1
  O  O7  1  0.47673200  0.08316700  0.43311000  1
  O  O8  1  0.23454600  0.08152600  0.42638000  1
  O  O9  1  0.51998500  0.91046300  0.56814400  1
  O  O10  1  0.75937700  0.91890400  0.56415100  1
  O  O11  1  0.73358300  0.04687500  0.73530300  1
  O  O12  1  0.70721200  0.94712300  0.76845500  1
  O  O13  1  0.25252800  0.02572900  0.66376000  1
  O  O14  1  0.49923500  0.08228900  0.60711400  1
  O  O15  1  0.41993100  0.01135400  0.76971000  1
  O  O16  1  0.46206000  0.16150200  0.76092400  1
  O  O17  1  0.97199200  0.60606400  0.31575000  1
  O  O18  1  0.65382900  0.64860100  0.55443500  1
  O  O19  1  0.03120000  0.39178300  0.68532900  1
  O  O20  1  0.34787600  0.34843800  0.44564900  1
