# generated using pymatgen
data_Zn3H30(C10O3)5
_symmetry_space_group_name_H-M   'P 1'
_cell_length_a   21.90616400
_cell_length_b   21.85215900
_cell_length_c   22.21122700
_cell_angle_alpha   119.45287300
_cell_angle_beta   119.53658700
_cell_angle_gamma   90.01203000
_symmetry_Int_Tables_number   1
_chemical_formula_structural   Zn3H30(C10O3)5
_chemical_formula_sum   'Zn6 H60 C100 O30'
_cell_volume   7630.90794659
_cell_formula_units_Z   2
loop_
 _symmetry_equiv_pos_site_id
 _symmetry_equiv_pos_as_xyz
  1  'x, y, z'
loop_
 _atom_site_type_symbol
 _atom_site_label
 _atom_site_symmetry_multiplicity
 _atom_site_fract_x
 _atom_site_fract_y
 _atom_site_fract_z
 _atom_site_occupancy
  Zn  Zn1  1  0.42903400  0.99810500  0.49541500  1
  Zn  Zn2  1  0.57035800  0.99877200  0.50171600  1
  Zn  Zn3  1  0.99910500  0.57100800  0.50022900  1
  Zn  Zn4  1  0.99992200  0.43083600  0.49679900  1
  Zn  Zn5  1  0.54386100  0.53874700  0.59434500  1
  Zn  Zn6  1  0.45707200  0.45986600  0.40645000  1
  H  H1  1  0.81963900  0.74834300  0.73371600  1
  H  H2  1  0.16276700  0.26786800  0.23802100  1
  H  H3  1  0.70735400  0.64429400  0.62776900  1
  H  H4  1  0.28194300  0.35852500  0.35600200  1
  H  H5  1  0.72585000  0.37435100  0.07223600  1
  H  H6  1  0.27278300  0.62509700  0.92374400  1
  H  H7  1  0.65702100  0.30703100  0.93181000  1
  H  H8  1  0.34204500  0.69145800  0.06416100  1
  H  H9  1  0.80599700  0.23540500  0.92433500  1
  H  H10  1  0.19367600  0.76401300  0.07237600  1
  H  H11  1  0.76461100  0.30766600  0.93019800  1
  H  H12  1  0.23393400  0.69080100  0.06475900  1
  H  H13  1  0.84048700  0.37362600  0.07130700  1
  H  H14  1  0.15769800  0.62686800  0.92382900  1
  H  H15  1  0.87770300  0.29868500  0.06561800  1
  H  H16  1  0.12237600  0.70316800  0.93135500  1
  H  H17  1  0.76275900  0.14339000  0.93298400  1
  H  H18  1  0.23800500  0.85655800  0.06500100  1
  H  H19  1  0.73798600  0.20308300  0.06726700  1
  H  H20  1  0.26439400  0.79793400  0.93182000  1
  H  H21  1  0.61122500  0.23596800  0.92749600  1
  H  H22  1  0.38849800  0.76277000  0.06932800  1
  H  H23  1  0.68397400  0.30148100  0.07008700  1
  H  H24  1  0.31606200  0.69787200  0.92683900  1
  H  H25  1  0.82160500  0.20313200  0.07066100  1
  H  H26  1  0.18042400  0.79870000  0.92763500  1
  H  H27  1  0.59903200  0.24179900  0.59483700  1
  H  H28  1  0.40123200  0.75464900  0.40302800  1
  H  H29  1  0.38094800  0.05234800  0.33802500  1
  H  H30  1  0.61810800  0.94593300  0.65967500  1
  H  H31  1  0.27884300  0.04502300  0.22124100  1
  H  H32  1  0.72026800  0.95474900  0.77745200  1
  H  H33  1  0.36090500  0.27570400  0.33938900  1
  H  H34  1  0.63824200  0.72489700  0.66320600  1
  H  H35  1  0.59646300  0.35177900  0.59344000  1
  H  H36  1  0.40431400  0.64560600  0.40615800  1
  H  H37  1  0.64262700  0.39652100  0.40406300  1
  H  H38  1  0.36503800  0.59187000  0.61167800  1
  H  H39  1  0.93555900  0.62479100  0.64072000  1
  H  H40  1  0.05792800  0.39343200  0.34785600  1
  H  H41  1  0.93407000  0.73771000  0.74155100  1
  H  H42  1  0.05057500  0.28611700  0.23282600  1
  H  H43  1  0.17105700  0.04759200  0.12805000  1
  H  H44  1  0.09584800  0.08493800  0.02210300  1
  H  H45  1  0.17792000  0.21671700  0.08731100  1
  H  H46  1  0.82692200  0.95486000  0.87377200  1
  H  H47  1  0.90551700  0.91626900  0.97738200  1
  H  H48  1  0.82668400  0.78232500  0.91055100  1
  H  H49  1  0.67938200  0.28686300  0.36615500  1
  H  H50  1  0.69102300  0.19520500  0.24083900  1
  H  H51  1  0.77134000  0.27857200  0.23449500  1
  H  H52  1  0.37086500  0.62170500  0.73530400  1
  H  H53  1  0.34867000  0.73089400  0.84088100  1
  H  H54  1  0.21918700  0.73941700  0.74795600  1
  H  H55  1  0.60294000  0.16005600  0.97095400  1
  H  H56  1  0.51072300  0.02289400  0.87025500  1
  H  H57  1  0.56253500  0.93925300  0.78460700  1
  H  H58  1  0.39895700  0.84060000  0.02891300  1
  H  H59  1  0.49203400  0.97760900  0.13182500  1
  H  H60  1  0.43986600  0.06057600  0.21738700  1
  C  C1  1  0.49735300  0.11109200  0.48540300  1
  C  C2  1  0.50208200  0.88584400  0.51184200  1
  C  C3  1  0.57923700  0.08880000  0.66208700  1
  C  C4  1  0.42016200  0.90813300  0.33501700  1
  C  C5  1  0.75614200  0.63654700  0.62851000  1
  C  C6  1  0.23447300  0.37068500  0.35626000  1
  C  C7  1  0.69244400  0.44389100  0.45065000  1
  C  C8  1  0.31267100  0.54860600  0.55927300  1
  C  C9  1  0.69236500  0.50748600  0.51087000  1
  C  C10  1  0.30831000  0.49091500  0.49022700  1
  C  C11  1  0.81868600  0.56594900  0.56975700  1
  C  C12  1  0.17743000  0.44191000  0.42285300  1
  C  C13  1  0.66611800  0.26890900  0.95244400  1
  C  C14  1  0.33341600  0.73002200  0.04414400  1
  C  C15  1  0.77693900  0.26925500  0.95038600  1
  C  C16  1  0.22239500  0.73009900  0.04580200  1
  C  C17  1  0.82608800  0.31359400  0.04535100  1
  C  C18  1  0.17332500  0.68710700  0.95094900  1
  C  C19  1  0.87099800  0.37889900  0.24472200  1
  C  C20  1  0.12886300  0.62298900  0.75231500  1
  C  C21  1  0.70562500  0.21948600  0.91919900  1
  C  C22  1  0.29424700  0.77964800  0.07783000  1
  C  C23  1  0.71384000  0.31454200  0.04741100  1
  C  C24  1  0.28571300  0.68503900  0.94918300  1
  C  C25  1  0.78578000  0.29679300  0.07755900  1
  C  C26  1  0.21440900  0.70394000  0.91946700  1
  C  C27  1  0.76895200  0.21548800  0.04536600  1
  C  C28  1  0.23255100  0.78550500  0.95287200  1
  C  C29  1  0.72560200  0.16929400  0.95045600  1
  C  C30  1  0.27529600  0.83074200  0.04772400  1
  C  C31  1  0.83254200  0.34190800  0.16920200  1
  C  C32  1  0.16764800  0.65964100  0.82782500  1
  C  C33  1  0.65936400  0.17409000  0.82749300  1
  C  C34  1  0.34027100  0.82411900  0.16954900  1
  C  C35  1  0.62218200  0.13576600  0.75194700  1
  C  C36  1  0.37727000  0.86175600  0.24511000  1
  C  C37  1  0.37904000  0.10330800  0.34166800  1
  C  C38  1  0.62012100  0.89541500  0.65703200  1
  C  C39  1  0.31985200  0.09864100  0.27386500  1
  C  C40  1  0.67930200  0.90096400  0.72550900  1
  C  C41  1  0.31465500  0.16106700  0.27320500  1
  C  C42  1  0.68468200  0.83916200  0.72745900  1
  C  C43  1  0.36947100  0.22815600  0.34107300  1
  C  C44  1  0.62994100  0.77184500  0.66022200  1
  C  C45  1  0.43194000  0.23343700  0.40863400  1
  C  C46  1  0.56779100  0.76553600  0.59163800  1
  C  C47  1  0.43502100  0.17028900  0.40972300  1
  C  C48  1  0.56452000  0.82809000  0.58934000  1
  C  C49  1  0.49463800  0.17402800  0.47788600  1
  C  C50  1  0.50514200  0.82342300  0.52029300  1
  C  C51  1  0.55243500  0.23902100  0.54211600  1
  C  C52  1  0.44771900  0.75812200  0.45636800  1
  C  C53  1  0.55019800  0.30141900  0.54148800  1
  C  C54  1  0.45024200  0.69625500  0.45805100  1
  C  C55  1  0.49065000  0.30021300  0.47599600  1
  C  C56  1  0.50964900  0.69828800  0.52436800  1
  C  C57  1  0.75356100  0.44045800  0.44717900  1
  C  C58  1  0.25128700  0.55373300  0.56202200  1
  C  C59  1  0.81704300  0.50206100  0.50634600  1
  C  C60  1  0.18278300  0.50097500  0.49276600  1
  C  C61  1  0.88148700  0.50060300  0.50124400  1
  C  C62  1  0.11802400  0.50187000  0.49694000  1
  C  C63  1  0.91645900  0.42286900  0.33463700  1
  C  C64  1  0.08278300  0.57900900  0.66239700  1
  C  C65  1  0.62354600  0.50575500  0.50735900  1
  C  C66  1  0.37721400  0.49260900  0.49338500  1
  C  C67  1  0.49362900  0.37149000  0.48390400  1
  C  C68  1  0.50724400  0.62713400  0.51684100  1
  C  C69  1  0.75556700  0.56971100  0.57031500  1
  C  C70  1  0.24044600  0.43502300  0.42254600  1
  C  C71  1  0.88341000  0.62626400  0.63379800  1
  C  C72  1  0.10904200  0.38880300  0.35297600  1
  C  C73  1  0.88366100  0.69096100  0.69276700  1
  C  C74  1  0.10391500  0.32743500  0.28638000  1
  C  C75  1  0.81970800  0.69669000  0.68880600  1
  C  C76  1  0.16670100  0.31755600  0.28899500  1
  C  C77  1  0.25350300  0.15691600  0.19987600  1
  C  C78  1  0.18882700  0.09822400  0.13520700  1
  C  C79  1  0.14984600  0.11713300  0.08064400  1
  C  C80  1  0.19318500  0.18571600  0.11535200  1
  C  C81  1  0.74651700  0.84390300  0.80088400  1
  C  C82  1  0.81054600  0.90336900  0.86576300  1
  C  C83  1  0.85135300  0.88380300  0.91913400  1
  C  C84  1  0.80971700  0.81407000  0.88355500  1
  C  C85  1  0.74779600  0.37188900  0.37813400  1
  C  C86  1  0.70852300  0.30199700  0.34541900  1
  C  C87  1  0.71452600  0.25499100  0.28149400  1
  C  C88  1  0.75654300  0.29921500  0.27909500  1
  C  C89  1  0.26156000  0.61409200  0.64022300  1
  C  C90  1  0.32341100  0.64099800  0.71901100  1
  C  C91  1  0.31217600  0.69668100  0.77316200  1
  C  C92  1  0.24467100  0.70042400  0.72396700  1
  C  C93  1  0.65998300  0.10683300  0.90935000  1
  C  C94  1  0.60667300  0.11158200  0.92595400  1
  C  C95  1  0.55954200  0.04135600  0.87485500  1
  C  C96  1  0.58723300  0.99852200  0.83087400  1
  C  C97  1  0.34147100  0.89325000  0.09012400  1
  C  C98  1  0.39521700  0.88880900  0.07419700  1
  C  C99  1  0.44279200  0.95896100  0.12643200  1
  C  C100  1  0.41491100  0.00144700  0.17035700  1
  O  O1  1  0.44380300  0.08282300  0.48457100  1
  O  O2  1  0.55560800  0.91407600  0.51260600  1
  O  O3  1  0.55386700  0.08665900  0.49418100  1
  O  O4  1  0.44554900  0.91024400  0.50299100  1
  O  O5  1  0.50680300  0.06547300  0.62066600  1
  O  O6  1  0.49259000  0.93143700  0.37646700  1
  O  O7  1  0.61482000  0.06948400  0.62586200  1
  O  O8  1  0.38458400  0.92742100  0.37125900  1
  O  O9  1  0.90770100  0.55295800  0.49902400  1
  O  O10  1  0.09134500  0.44886200  0.49800100  1
  O  O11  1  0.91132000  0.44846200  0.50121500  1
  O  O12  1  0.08759300  0.55332700  0.49564400  1
  O  O13  1  0.93367400  0.49515400  0.37449300  1
  O  O14  1  0.06535500  0.50667500  0.62254500  1
  O  O15  1  0.93838800  0.38867100  0.37264100  1
  O  O16  1  0.06076100  0.61322900  0.62440600  1
  O  O17  1  0.62650100  0.53182800  0.57644500  1
  O  O18  1  0.37455900  0.46718900  0.42457300  1
  O  O19  1  0.56097100  0.47467000  0.43352700  1
  O  O20  1  0.43990500  0.52346300  0.56707300  1
  O  O21  1  0.52771700  0.43230400  0.55986500  1
  O  O22  1  0.47358200  0.56631800  0.44097700  1
  O  O23  1  0.46511300  0.37279400  0.41705000  1
  O  O24  1  0.53550800  0.62578000  0.58366000  1
  O  O25  1  0.25634800  0.21038900  0.18805300  1
  O  O26  1  0.74583200  0.78936200  0.81151100  1
  O  O27  1  0.77685400  0.37058400  0.33761100  1
  O  O28  1  0.21356600  0.65040000  0.64294500  1
  O  O29  1  0.64853000  0.03796000  0.85178800  1
  O  O30  1  0.35307900  0.96187000  0.14834500  1
