# generated using pymatgen
data_CuH15C23(NO2)3
_symmetry_space_group_name_H-M   'P 1'
_cell_length_a   15.61683900
_cell_length_b   15.88199200
_cell_length_c   16.98488800
_cell_angle_alpha   89.99975600
_cell_angle_beta   96.39357000
_cell_angle_gamma   92.77737900
_symmetry_Int_Tables_number   1
_chemical_formula_structural   CuH15C23(NO2)3
_chemical_formula_sum   'Cu2 H30 C46 N6 O12'
_cell_volume   4181.52192093
_cell_formula_units_Z   2
loop_
 _symmetry_equiv_pos_site_id
 _symmetry_equiv_pos_as_xyz
  1  'x, y, z'
loop_
 _atom_site_type_symbol
 _atom_site_label
 _atom_site_symmetry_multiplicity
 _atom_site_fract_x
 _atom_site_fract_y
 _atom_site_fract_z
 _atom_site_occupancy
  Cu  Cu1  1  0.58615800  0.50691500  0.49595700  1
  Cu  Cu2  1  0.41421200  0.50611800  0.49162300  1
  H  H1  1  0.42213100  0.94466700  0.59723100  1
  H  H2  1  0.57904400  0.06854200  0.39098400  1
  H  H3  1  0.56255100  0.06438300  0.62118300  1
  H  H4  1  0.43854200  0.94877300  0.36665200  1
  H  H5  1  0.35067900  0.04367800  0.47040000  1
  H  H6  1  0.65024100  0.96911200  0.51760700  1
  H  H7  1  0.61692100  0.52345700  0.25174100  1
  H  H8  1  0.38891100  0.46299200  0.73569500  1
  H  H9  1  0.61111900  0.51969100  0.11101300  1
  H  H10  1  0.39428100  0.46520800  0.87683200  1
  H  H11  1  0.66197800  0.54512500  0.89493400  1
  H  H12  1  0.33601800  0.48036900  0.09238300  1
  H  H13  1  0.65515000  0.54454100  0.75045600  1
  H  H14  1  0.34241700  0.48424200  0.23666300  1
  H  H15  1  0.87975500  0.40465500  0.44613500  1
  H  H16  1  0.12227600  0.56242100  0.58351600  1
  H  H17  1  0.27755300  0.42468200  0.39098800  1
  H  H18  1  0.72192600  0.61259900  0.57403400  1
  H  H19  1  0.00525900  0.32702600  0.40355400  1
  H  H20  1  0.00819500  0.31547100  0.29852200  1
  H  H21  1  0.97543900  0.41308600  0.33570200  1
  H  H22  1  0.00384100  0.60359800  0.66006600  1
  H  H23  1  0.99266900  0.71519800  0.66973000  1
  H  H24  1  0.01931100  0.67494700  0.57746200  1
  H  H25  1  0.78424700  0.28808800  0.49905200  1
  H  H26  1  0.77302600  0.26061700  0.39475200  1
  H  H27  1  0.68123900  0.24884400  0.45074500  1
  H  H28  1  0.22724800  0.52246700  0.69925000  1
  H  H29  1  0.20806900  0.63432300  0.69823200  1
  H  H30  1  0.31230800  0.59836900  0.73593700  1
  C  C1  1  0.51449900  0.50693500  0.64603800  1
  C  C2  1  0.48608800  0.50540400  0.34153400  1
  C  C3  1  0.50773700  0.66828700  0.49292400  1
  C  C4  1  0.49249800  0.34476200  0.49418600  1
  C  C5  1  0.53450500  0.03679000  0.56351400  1
  C  C6  1  0.46646100  0.97622000  0.42444000  1
  C  C7  1  0.45748600  0.97405300  0.55036000  1
  C  C8  1  0.54347700  0.03896300  0.43762900  1
  C  C9  1  0.51034600  0.75867800  0.49318900  1
  C  C10  1  0.48999300  0.25434700  0.49422300  1
  C  C11  1  0.58227000  0.98731300  0.50692000  1
  C  C12  1  0.41867400  0.02564100  0.48104600  1
  C  C13  1  0.50517600  0.92623800  0.49375700  1
  C  C14  1  0.49573200  0.08676800  0.49421200  1
  C  C15  1  0.50929100  0.83446400  0.49346400  1
  C  C16  1  0.49132900  0.17855900  0.49427400  1
  C  C17  1  0.52102700  0.50537800  0.73277300  1
  C  C18  1  0.48008900  0.50416600  0.25475600  1
  C  C19  1  0.44908500  0.48255100  0.76985800  1
  C  C20  1  0.55447100  0.51390700  0.21775400  1
  C  C21  1  0.45269100  0.48350400  0.85125400  1
  C  C22  1  0.55078400  0.51193200  0.13637300  1
  C  C23  1  0.52939600  0.50684600  0.89682100  1
  C  C24  1  0.47190600  0.49982600  0.09064000  1
  C  C25  1  0.60183900  0.52737900  0.85972300  1
  C  C26  1  0.39771400  0.49001500  0.12765600  1
  C  C27  1  0.59793900  0.52676300  0.77813500  1
  C  C28  1  0.40145600  0.49237600  0.20922400  1
  C  C29  1  0.24207400  0.54151800  0.54408200  1
  C  C30  1  0.75931100  0.44750100  0.46701400  1
  C  C31  1  0.15345400  0.53169100  0.53882500  1
  C  C32  1  0.84808600  0.45343100  0.47427600  1
  C  C33  1  0.10684700  0.48565100  0.47807900  1
  C  C34  1  0.89365100  0.51977300  0.51493500  1
  C  C35  1  0.15222400  0.44619800  0.42353900  1
  C  C36  1  0.84763100  0.57813900  0.55227500  1
  C  C37  1  0.24162200  0.45706600  0.43133000  1
  C  C38  1  0.75823600  0.56917600  0.54393400  1
  C  C39  1  0.11099200  0.39304300  0.35648500  1
  C  C40  1  0.01909200  0.36065200  0.34882300  1
  C  C41  1  0.88802400  0.65094900  0.60011800  1
  C  C42  1  0.98198700  0.66096200  0.62811400  1
  C  C43  1  0.71679800  0.37554700  0.42161000  1
  C  C44  1  0.74049200  0.28787900  0.44294000  1
  C  C45  1  0.28485200  0.59392300  0.61002500  1
  C  C46  1  0.25610200  0.58655400  0.69079200  1
  N  N1  1  0.53583300  0.51010800  0.98054900  1
  N  N2  1  0.46518600  0.49686800  0.00687300  1
  N  N3  1  0.28558100  0.50612400  0.48855600  1
  N  N4  1  0.71478700  0.50749100  0.49917800  1
  N  N5  1  0.01540300  0.47900800  0.47247200  1
  N  N6  1  0.98483200  0.52727800  0.51876400  1
  O  O1  1  0.58514700  0.51077400  0.61083100  1
  O  O2  1  0.41534400  0.50218800  0.37674000  1
  O  O3  1  0.43736400  0.50394300  0.60693300  1
  O  O4  1  0.56313400  0.50917400  0.38069200  1
  O  O5  1  0.58013600  0.62946300  0.49806000  1
  O  O6  1  0.41989600  0.38353300  0.48943500  1
  O  O7  1  0.43221200  0.62849500  0.48839200  1
  O  O8  1  0.56821400  0.38449600  0.49883700  1
  O  O9  1  0.15479700  0.37190700  0.30544600  1
  O  O10  1  0.84195300  0.70489900  0.62047000  1
  O  O11  1  0.66679900  0.38691300  0.36274000  1
  O  O12  1  0.33518500  0.65186700  0.59732700  1
