# generated using pymatgen
data_ZnH14C24(NO2)2
_symmetry_space_group_name_H-M   'P 1'
_cell_length_a   14.38272600
_cell_length_b   8.54710000
_cell_length_c   19.34473500
_cell_angle_alpha   90.00000000
_cell_angle_beta   91.01801800
_cell_angle_gamma   90.00000000
_symmetry_Int_Tables_number   1
_chemical_formula_structural   ZnH14C24(NO2)2
_chemical_formula_sum   'Zn2 H28 C48 N4 O8'
_cell_volume   2377.68447084
_cell_formula_units_Z   2
loop_
 _symmetry_equiv_pos_site_id
 _symmetry_equiv_pos_as_xyz
  1  'x, y, z'
loop_
 _atom_site_type_symbol
 _atom_site_label
 _atom_site_symmetry_multiplicity
 _atom_site_fract_x
 _atom_site_fract_y
 _atom_site_fract_z
 _atom_site_occupancy
  Zn  Zn1  1  0.89701600  0.48676000  0.50739700  1
  Zn  Zn2  1  0.10298400  0.48676000  0.49260300  1
  H  H1  1  0.04425100  0.98678100  0.54732300  1
  H  H2  1  0.95574800  0.98678100  0.45267700  1
  H  H3  1  0.00251100  0.23894500  0.73185100  1
  H  H4  1  0.01191800  0.73637700  0.26962700  1
  H  H5  1  0.99748900  0.23894500  0.26814800  1
  H  H6  1  0.98808200  0.73637700  0.73037300  1
  H  H7  1  0.94387200  0.75558300  0.04568300  1
  H  H8  1  0.94086200  0.21439900  0.95391400  1
  H  H9  1  0.05612700  0.75558300  0.95431700  1
  H  H10  1  0.05913800  0.21439900  0.04608500  1
  H  H11  1  0.94026000  0.75762900  0.17039900  1
  H  H12  1  0.93360800  0.21279000  0.82880000  1
  H  H13  1  0.05974000  0.75762900  0.82960000  1
  H  H14  1  0.06639200  0.21279000  0.17119900  1
  H  H15  1  0.42197800  0.48355800  0.38577400  1
  H  H16  1  0.57802200  0.48355800  0.61422500  1
  H  H17  1  0.64781000  0.39067700  0.37676700  1
  H  H18  1  0.61997300  0.36563800  0.25741500  1
  H  H19  1  0.55113900  0.47135200  0.15044300  1
  H  H20  1  0.46240600  0.71716500  0.15260500  1
  H  H21  1  0.44360700  0.85861600  0.26216600  1
  H  H22  1  0.51275000  0.75465100  0.36943900  1
  H  H23  1  0.35219000  0.39067700  0.62323300  1
  H  H24  1  0.38002700  0.36563800  0.74258500  1
  H  H25  1  0.44886100  0.47135200  0.84955600  1
  H  H26  1  0.53759400  0.71716500  0.84739400  1
  H  H27  1  0.55639300  0.85861600  0.73783400  1
  H  H28  1  0.48725000  0.75465100  0.63056000  1
  C  C1  1  0.01915900  0.12604800  0.63578100  1
  C  C2  1  0.98160200  0.84760800  0.36435700  1
  C  C3  1  0.98084100  0.12604800  0.36421800  1
  C  C4  1  0.01839800  0.84760800  0.63564300  1
  C  C5  1  0.00561200  0.12721100  0.70618000  1
  C  C6  1  0.99886100  0.84702800  0.29449000  1
  C  C7  1  0.99438800  0.12721100  0.29382000  1
  C  C8  1  0.00113800  0.84702800  0.70551000  1
  C  C9  1  0.00049800  0.98677000  0.74232000  1
  C  C10  1  0.99950200  0.98677000  0.25768000  1
  C  C11  1  0.03161000  0.98678200  0.60200900  1
  C  C12  1  0.96839000  0.98678200  0.39799100  1
  C  C13  1  0.97111500  0.85581500  0.07343400  1
  C  C14  1  0.96647400  0.11375700  0.92628800  1
  C  C15  1  0.02888500  0.85581500  0.92656600  1
  C  C16  1  0.03352600  0.11375700  0.07371100  1
  C  C17  1  0.97046600  0.85680600  0.14465100  1
  C  C18  1  0.96331000  0.11272100  0.85494200  1
  C  C19  1  0.02953400  0.85680600  0.85534900  1
  C  C20  1  0.03669000  0.11272100  0.14505800  1
  C  C21  1  0.00383700  0.98490200  0.18142600  1
  C  C22  1  0.99616300  0.98490200  0.81857400  1
  C  C23  1  0.00118900  0.98507200  0.03776100  1
  C  C24  1  0.99881100  0.98507200  0.96223800  1
  C  C25  1  0.01283500  0.70554900  0.59395300  1
  C  C26  1  0.98689800  0.26815300  0.40591700  1
  C  C27  1  0.98716400  0.70554900  0.40604600  1
  C  C28  1  0.01310100  0.26815300  0.59408200  1
  C  C29  1  0.45744500  0.49070000  0.43536600  1
  C  C30  1  0.54255400  0.49070000  0.56463400  1
  C  C31  1  0.40455700  0.49053400  0.49407800  1
  C  C32  1  0.59544300  0.49053400  0.50592200  1
  C  C33  1  0.44646200  0.49404000  0.55878900  1
  C  C34  1  0.55353800  0.49404000  0.44121000  1
  C  C35  1  0.30494000  0.48819800  0.48830900  1
  C  C36  1  0.69505900  0.48819800  0.51169000  1
  C  C37  1  0.56887900  0.55112500  0.32082700  1
  C  C38  1  0.58081300  0.47350200  0.25898400  1
  C  C39  1  0.54221500  0.53282100  0.19871000  1
  C  C40  1  0.49249400  0.67062800  0.19990300  1
  C  C41  1  0.48182200  0.74974400  0.26133800  1
  C  C42  1  0.52027800  0.69057700  0.32168500  1
  C  C43  1  0.43112000  0.55112500  0.67917300  1
  C  C44  1  0.41918600  0.47350200  0.74101600  1
  C  C45  1  0.45778500  0.53282100  0.80129000  1
  C  C46  1  0.50750500  0.67062800  0.80009700  1
  C  C47  1  0.51817800  0.74974400  0.73866200  1
  C  C48  1  0.47972200  0.69057700  0.67831500  1
  N  N1  1  0.77547800  0.48678100  0.51455800  1
  N  N2  1  0.22452100  0.48678100  0.48544200  1
  N  N3  1  0.61023700  0.49222700  0.38225000  1
  N  N4  1  0.38976300  0.49222700  0.61775000  1
  O  O1  1  0.08868100  0.65635700  0.56409500  1
  O  O2  1  0.91122900  0.31738900  0.43582500  1
  O  O3  1  0.91131900  0.65635700  0.43590500  1
  O  O4  1  0.08877000  0.31738900  0.56417500  1
  O  O5  1  0.92985400  0.65007400  0.57901200  1
  O  O6  1  0.07006400  0.32323800  0.42104800  1
  O  O7  1  0.07014600  0.65007400  0.42098800  1
  O  O8  1  0.92993600  0.32323800  0.57895200  1
