# Generated by REPEAT Assigner based on pymatgen
data_DB0-m3_o7_o11_f0_nbo.sym.121
_audit_creation_date              2022-05-24
_audit_creation_method            REPEAT_Assigner
_cell_length_a                    41.436507
_cell_length_b                    35.523337
_cell_length_c                    22.008657
_cell_angle_alpha                 90.000000
_cell_angle_beta                  120.930799
_cell_angle_gamma                 90.000000
_cell_volume                      27788.862533
_symmetry_space_group_name_H-M    P1
_symmetry_Int_Tables_number       1
loop_
    _symmetry_equiv_pos_site_id
    _symmetry_equiv_pos_as_xyz
    1  x,y,z
loop_
    _atom_site_type_symbol
    _atom_site_label
    _atom_site_fract_x
    _atom_site_fract_y
    _atom_site_fract_z
    _atom_type_partial_charge
    O   O1    0.444074  0.525900  0.939418  -0.672695
    O   O2    0.556018  0.524135  0.057608  -0.691250
    O   O3    0.944074  0.025901  0.939418  -0.672701
    O   O4    0.056018  0.024135  0.057608  -0.691210
    O   O5    0.444068  0.461003  0.943145  -0.687763
    O   O6    0.556208  0.459217  0.059614  -0.670037
    O   O7    0.944068  0.961003  0.943145  -0.687778
    O   O8    0.056208  0.959217  0.059614  -0.670009
    C   C1    0.426442  0.493465  0.922894  0.615835
    C   C2    0.573744  0.491764  0.077019  0.617646
    C   C3    0.926442  0.993465  0.922894  0.615821
    C   C4    0.073744  0.991764  0.077019  0.617604
    O   O9    0.502374  0.525881  0.911441  -0.701414
    O   O10   0.496147  0.524217  0.086306  -0.717291
    O   O11   0.002374  0.025881  0.911441  -0.701388
    O   O12   0.996147  0.024217  0.086306  -0.717356
    O   O13   0.503337  0.460874  0.912847  -0.731800
    O   O14   0.498502  0.459252  0.089161  -0.714531
    O   O15   0.003337  0.960874  0.912847  -0.731784
    O   O16   0.998502  0.959252  0.089161  -0.714545
    C   C5    0.503844  0.493308  0.884962  0.772957
    C   C6    0.496316  0.491768  0.114901  0.770748
    C   C7    0.003844  0.993308  0.884962  0.772922
    C   C8    0.996316  0.991768  0.114901  0.770764
    Zn  Zn1   0.500151  0.535201  0.000045  1.318541
    Zn  Zn2   0.000151  0.035201  0.000045  1.318567
    Zn  Zn3   0.500022  0.449925  0.999848  1.333651
    Zn  Zn4   0.000022  0.949925  0.999848  1.333666
    C   C9    0.465643  0.680640  0.461917  -0.217918
    C   C10   0.532569  0.680486  0.534316  -0.219349
    C   C11   0.965643  0.180640  0.461917  -0.217925
    C   C12   0.032569  0.180486  0.534316  -0.219309
    H   H1    0.439429  0.695948  0.433508  0.146520
    H   H2    0.558857  0.695672  0.562703  0.146850
    H   H3    0.939429  0.195948  0.433508  0.146524
    H   H4    0.058857  0.195672  0.562703  0.146842
    C   C13   0.999837  0.392101  0.498314  0.130381
    C   C14   0.499837  0.892101  0.498314  0.130331
    C   C15   0.499269  0.740305  0.498102  -0.255176
    C   C16   0.999269  0.240305  0.498102  -0.255201
    C   C17   0.498963  0.622129  0.498184  0.131549
    C   C18   0.998963  0.122129  0.498184  0.131607
    C   C19   0.522198  0.521329  0.739655  -0.092989
    C   C20   0.477591  0.520422  0.259581  -0.096275
    C   C21   0.022198  0.021329  0.739655  -0.092992
    C   C22   0.977591  0.020422  0.259581  -0.096469
    C   C23   0.494041  0.507821  0.678906  -0.179595
    C   C24   0.505569  0.506771  0.320430  -0.185543
    C   C25   0.994041  0.007821  0.678906  -0.179623
    C   C26   0.005569  0.006771  0.320430  -0.185452
    H   H5    0.546271  0.534354  0.741243  0.140004
    H   H6    0.453649  0.533840  0.257868  0.141519
    H   H7    0.046271  0.034354  0.741243  0.140011
    H   H8    0.953649  0.033840  0.257868  0.141577
    H   H9    0.468082  0.498761  0.675086  0.142754
    H   H10   0.531413  0.497189  0.324375  0.146999
    H   H11   0.968082  0.998761  0.675086  0.142767
    H   H12   0.031413  0.997189  0.324375  0.146998
    C   C27   0.519496  0.522196  0.803464  -0.047220
    C   C28   0.480239  0.520890  0.195681  -0.042675
    C   C29   0.019496  0.022196  0.803464  -0.047204
    C   C30   0.980239  0.020890  0.195681  -0.042607
    C   C31   0.505702  0.492857  0.820529  -0.219969
    C   C32   0.494457  0.491612  0.179348  -0.224938
    C   C33   0.005702  0.992858  0.820529  -0.219948
    C   C34   0.994457  0.991612  0.179348  -0.224926
    H   H13   0.531534  0.545829  0.839439  0.125665
    H   H14   0.467870  0.544243  0.159122  0.127315
    H   H15   0.031534  0.045829  0.839439  0.125647
    H   H16   0.967870  0.044243  0.159122  0.127318
    H   H17   0.497646  0.467413  0.788876  0.144103
    H   H18   0.502992  0.466418  0.211715  0.144907
    H   H19   0.997646  0.967413  0.788876  0.144080
    H   H20   0.002992  0.966418  0.211715  0.144892
    C   C35   0.173273  0.505418  0.721921  -0.249047
    C   C36   0.826898  0.503224  0.277935  -0.245452
    C   C37   0.673273  0.005418  0.721921  -0.249101
    C   C38   0.326898  0.003224  0.277935  -0.245327
    H   H21   0.188449  0.508270  0.778914  0.157525
    H   H22   0.811757  0.504595  0.220752  0.157914
    H   H23   0.688449  0.008270  0.778914  0.157534
    H   H24   0.311757  0.004595  0.220752  0.157890
    C   C39   0.134547  0.507863  0.683969  -0.144629
    C   C40   0.865610  0.505847  0.315760  -0.151926
    C   C41   0.634547  0.007863  0.683969  -0.144604
    C   C42   0.365610  0.005847  0.315760  -0.152041
    H   H25   0.119932  0.512566  0.712194  0.137442
    H   H26   0.880246  0.509183  0.287239  0.138680
    H   H27   0.619932  0.012566  0.712194  0.137447
    H   H28   0.380246  0.009183  0.287239  0.138709
    C   C43   0.114982  0.504514  0.610967  0.071889
    C   C44   0.885132  0.504375  0.388980  0.084586
    C   C45   0.614982  0.004514  0.610967  0.071870
    C   C46   0.385132  0.004375  0.388980  0.084713
    C   C47   0.134598  0.498444  0.576558  -0.169601
    C   C48   0.865485  0.500006  0.423759  -0.171527
    C   C49   0.634598  0.998444  0.576558  -0.169560
    C   C50   0.365485  0.000006  0.423759  -0.171756
    H   H29   0.120008  0.495294  0.519675  0.111217
    H   H30   0.880044  0.498338  0.480856  0.109255
    H   H31   0.620008  0.995294  0.519675  0.111214
    H   H32   0.380044  0.998338  0.480856  0.109316
    C   C51   0.173291  0.495653  0.614763  0.159803
    C   C52   0.826802  0.497037  0.385708  0.163325
    C   C53   0.673291  0.995653  0.614763  0.159753
    C   C54   0.326802  0.997037  0.385708  0.163630
    C   C55   0.192678  0.499284  0.687434  0.214563
    C   C56   0.807461  0.498783  0.312794  0.206679
    C   C57   0.692678  0.999284  0.687434  0.214647
    C   C58   0.307461  0.998783  0.312794  0.206447
    C   C59   0.233025  0.497072  0.727198  -0.074810
    C   C60   0.767127  0.496360  0.273112  -0.068545
    C   C61   0.733025  0.997072  0.727198  -0.074866
    C   C62   0.267127  0.996360  0.273112  -0.068478
    C   C63   0.266916  0.495697  0.760862  -0.251939
    C   C64   0.733244  0.494806  0.239445  -0.259921
    C   C65   0.766916  0.995697  0.760862  -0.251896
    C   C66   0.233244  0.994806  0.239445  -0.259923
    C   C67   0.326210  0.460974  0.822337  -0.180898
    C   C68   0.674078  0.459772  0.180880  -0.183286
    C   C69   0.826210  0.960974  0.822337  -0.180904
    C   C70   0.174078  0.959772  0.180880  -0.183289
    H   H33   0.310594  0.434872  0.808208  0.138097
    H   H34   0.689782  0.433730  0.197457  0.139026
    H   H35   0.810594  0.934872  0.808208  0.138100
    H   H36   0.189782  0.933730  0.197457  0.139026
    C   C71   0.365037  0.460366  0.861777  -0.171051
    C   C72   0.635254  0.458965  0.141333  -0.172582
    C   C73   0.865037  0.960366  0.861777  -0.171047
    C   C74   0.135254  0.958965  0.141333  -0.172569
    H   H37   0.379292  0.433545  0.877997  0.135945
    H   H38   0.621089  0.432055  0.127507  0.135624
    H   H39   0.879292  0.933545  0.877997  0.135945
    H   H40   0.121089  0.932055  0.127507  0.135616
    C   C75   0.385166  0.493719  0.880279  0.124547
    C   C76   0.615015  0.492233  0.119715  0.121302
    C   C77   0.885166  0.993719  0.880279  0.124547
    C   C78   0.115015  0.992233  0.119715  0.121287
    C   C79   0.365979  0.527569  0.858620  -0.177241
    C   C80   0.634084  0.526203  0.138361  -0.168006
    C   C81   0.865979  0.027569  0.858620  -0.177225
    C   C82   0.134084  0.026203  0.138361  -0.167985
    H   H41   0.380884  0.554068  0.872223  0.137097
    H   H42   0.619093  0.552639  0.122287  0.136568
    H   H43   0.880884  0.054068  0.872223  0.137095
    H   H44   0.119093  0.052640  0.122287  0.136560
    C   C83   0.327225  0.528026  0.819266  -0.170270
    C   C84   0.672831  0.526857  0.177831  -0.181762
    C   C85   0.827225  0.028026  0.819266  -0.170274
    C   C86   0.172831  0.026857  0.177831  -0.181769
    H   H45   0.312410  0.554564  0.802733  0.136446
    H   H46   0.687552  0.553482  0.192005  0.138848
    H   H47   0.812410  0.054564  0.802733  0.136446
    H   H48   0.187552  0.053482  0.192005  0.138848
    C   C87   0.307301  0.494803  0.801185  0.301472
    C   C88   0.692867  0.493715  0.199031  0.311791
    C   C89   0.807301  0.994803  0.801185  0.301457
    C   C90   0.192867  0.993715  0.199031  0.311794
    C   C91   0.499155  0.699947  0.498102  0.327442
    C   C92   0.999155  0.199947  0.498102  0.327454
    C   C93   0.465471  0.641836  0.461873  -0.158478
    C   C94   0.532550  0.641686  0.534442  -0.159920
    C   C95   0.965471  0.141836  0.461873  -0.158487
    C   C96   0.032550  0.141686  0.534442  -0.159992
    C   C97   0.999389  0.274202  0.498137  -0.018678
    C   C98   0.499389  0.774202  0.498137  -0.018699
    C   C99   0.999544  0.314556  0.498199  0.221147
    C   C100  0.499544  0.814556  0.498199  0.221204
    H   H49   0.438841  0.627292  0.433119  0.139331
    H   H50   0.559113  0.627029  0.563242  0.141232
    H   H51   0.938841  0.127292  0.433119  0.139337
    H   H52   0.059113  0.127029  0.563242  0.141254
    O   O17   0.533048  0.451004  0.536901  -0.639346
    O   O18   0.468411  0.451093  0.465083  -0.657083
    O   O19   0.033048  0.951004  0.536901  -0.639327
    O   O20   0.968411  0.951093  0.465083  -0.657143
    C   C101  0.500713  0.433410  0.501029  0.617015
    C   C102  0.000713  0.933410  0.501029  0.617075
    O   O21   0.529992  0.506924  0.622361  -0.698122
    O   O22   0.469623  0.508056  0.377001  -0.695848
    O   O23   0.029992  0.006924  0.622361  -0.698152
    O   O24   0.969623  0.008056  0.377001  -0.695910
    O   O25   0.465112  0.507793  0.553630  -0.719932
    O   O26   0.534461  0.505760  0.445692  -0.722194
    O   O27   0.965112  0.007793  0.553630  -0.719953
    O   O28   0.034461  0.005760  0.445692  -0.722214
    C   C103  0.496570  0.507605  0.615176  0.735665
    C   C104  0.503029  0.506964  0.384161  0.737384
    C   C105  0.996570  0.007605  0.615176  0.735733
    C   C106  0.003029  0.006964  0.384161  0.737472
    Zn  Zn5   0.542348  0.507258  0.544452  1.311269
    Zn  Zn6   0.457239  0.507026  0.454858  1.310431
    Zn  Zn7   0.042348  0.007258  0.544452  1.311271
    Zn  Zn8   0.957239  0.007026  0.454858  1.310475
    O   O29   0.531237  0.563199  0.533300  -0.677883
    O   O30   0.466481  0.563293  0.463375  -0.661954
    O   O31   0.031237  0.063199  0.533300  -0.677929
    O   O32   0.966481  0.063293  0.463375  -0.661986
    C   C107  0.498880  0.580865  0.498279  0.600453
    C   C108  0.998880  0.080866  0.498279  0.600460
    O   O33   0.001129  0.450456  0.446937  -0.715652
    O   O34   0.998917  0.450565  0.549797  -0.731507
    O   O35   0.501129  0.950456  0.446937  -0.715733
    O   O36   0.498917  0.950565  0.549797  -0.731577
    C   C109  0.999980  0.433075  0.498353  0.672654
    C   C110  0.499980  0.933075  0.498353  0.672870
    O   O37   0.056427  0.505699  0.501104  -0.686297
    O   O38   0.943680  0.507353  0.498726  -0.682723
    O   O39   0.556427  0.005699  0.501104  -0.686284
    O   O40   0.443680  0.007353  0.498726  -0.682716
    O   O41   0.055835  0.507345  0.605275  -0.675174
    O   O42   0.944277  0.505760  0.394555  -0.674711
    O   O43   0.555835  0.007344  0.605275  -0.675162
    O   O44   0.444277  0.005760  0.394555  -0.674715
    C   C111  0.073759  0.506344  0.570485  0.638350
    C   C112  0.926351  0.506331  0.429352  0.629564
    C   C113  0.573759  0.006343  0.570485  0.638312
    C   C114  0.426351  0.006331  0.429352  0.629554
    Zn  Zn9   0.000253  0.506721  0.431336  1.332707
    Zn  Zn10  0.999857  0.506504  0.568517  1.330018
    Zn  Zn11  0.500253  0.006721  0.431336  1.332715
    Zn  Zn12  0.499857  0.006504  0.568517  1.329999
    O   O45   0.001194  0.562679  0.450250  -0.715548
    O   O46   0.998972  0.562792  0.552725  -0.697842
    O   O47   0.501194  0.062679  0.450250  -0.715611
    O   O48   0.498972  0.062792  0.552725  -0.697852
    C   C115  0.000123  0.580388  0.501496  0.676485
    C   C116  0.500123  0.080388  0.501496  0.676560
    C   C117  0.001635  0.680093  0.448580  -0.254902
    C   C118  0.998965  0.680204  0.554246  -0.253331
    C   C119  0.501635  0.180093  0.448580  -0.254908
    C   C120  0.498965  0.180204  0.554246  -0.253339
    H   H53   0.002715  0.695293  0.407116  0.160508
    H   H54   0.997940  0.695492  0.595685  0.160781
    H   H55   0.502715  0.195293  0.407116  0.160501
    H   H56   0.497940  0.195492  0.595685  0.160787
    C   C121  0.001561  0.641277  0.448484  -0.146358
    C   C122  0.998899  0.641389  0.554406  -0.149375
    C   C123  0.501561  0.141277  0.448484  -0.146371
    C   C124  0.498899  0.141389  0.554406  -0.149384
    H   H57   0.002598  0.626629  0.406501  0.135521
    H   H58   0.997811  0.626829  0.596414  0.135178
    H   H59   0.502598  0.126629  0.406501  0.135543
    H   H60   0.497811  0.126829  0.596414  0.135183
    C   C125  0.000194  0.621681  0.501461  0.088866
    C   C126  0.500194  0.121681  0.501461  0.088837
    C   C127  0.000335  0.699551  0.501398  0.436150
    C   C128  0.500335  0.199551  0.501398  0.436226
    C   C129  0.000406  0.739927  0.501361  -0.415076
    C   C130  0.500406  0.239927  0.501361  -0.415205
    C   C131  0.500464  0.273846  0.501323  0.113910
    C   C132  0.000464  0.773846  0.501323  0.113706
    C   C133  0.467207  0.333708  0.463146  0.200563
    C   C134  0.533910  0.333619  0.539320  0.200508
    C   C135  0.967207  0.833708  0.463146  0.199517
    C   C136  0.033910  0.833619  0.539320  0.200056
    C   C137  0.467212  0.372519  0.462931  -0.291350
    C   C138  0.534027  0.372430  0.539394  -0.291417
    C   C139  0.967212  0.872519  0.462931  -0.290462
    C   C140  0.034027  0.872430  0.539394  -0.290951
    H   H61   0.440736  0.387160  0.432531  0.142112
    H   H62   0.560549  0.387001  0.569734  0.140525
    H   H63   0.940736  0.887160  0.432531  0.141981
    H   H64   0.060548  0.887001  0.569734  0.140450
    C   C141  0.500650  0.392121  0.501125  0.142451
    C   C142  0.000650  0.892121  0.501125  0.141905
    C   C143  0.500528  0.314245  0.501266  0.050612
    C   C144  0.000528  0.814245  0.501266  0.051377
    C   C145  0.966897  0.334054  0.478940  -0.288969
    C   C146  0.032339  0.333787  0.517524  -0.287364
    C   C147  0.466897  0.834054  0.478941  -0.289138
    C   C148  0.532339  0.833787  0.517523  -0.287341
    H   H65   0.941167  0.318915  0.463420  0.129447
    H   H66   0.057954  0.318438  0.532995  0.128255
    H   H67   0.441167  0.818915  0.463421  0.129488
    H   H68   0.557954  0.818438  0.532994  0.128255
    C   C149  0.967033  0.372854  0.479234  0.131054
    C   C150  0.032497  0.372587  0.517344  0.130791
    C   C151  0.467033  0.872853  0.479235  0.131215
    C   C152  0.532497  0.872587  0.517343  0.130690
    S   S1    0.423896  0.308662  0.413601  -0.197833
    C   C153  0.413860  0.312503  0.484492  -0.070080
    H   H69   0.402339  0.340828  0.483465  0.050898
    H   H70   0.439989  0.307757  0.536215  0.018831
    H   H71   0.392976  0.290729  0.477155  0.100194
    S   S2    0.577143  0.308455  0.588944  -0.195895
    C   C154  0.587185  0.312064  0.518034  -0.077431
    H   H72   0.598801  0.340324  0.518969  0.053219
    H   H73   0.561038  0.307342  0.466329  0.020976
    H   H74   0.607994  0.290188  0.525433  0.102082
    S   S3    0.923896  0.808662  0.413601  -0.197672
    C   C155  0.913860  0.812503  0.484492  -0.070077
    H   H75   0.902339  0.840828  0.483465  0.050894
    H   H76   0.939989  0.807757  0.536215  0.018859
    H   H77   0.892976  0.790729  0.477155  0.100182
    S   S4    0.077143  0.808455  0.588944  -0.195851
    C   C156  0.087185  0.812064  0.518034  -0.077496
    H   H78   0.098801  0.840324  0.518968  0.053239
    H   H79   0.061038  0.807342  0.466329  0.021002
    H   H80   0.107994  0.790188  0.525433  0.102094
    S   S5    0.924263  0.398054  0.451287  -0.200330
    C   C157  0.929852  0.395811  0.538567  0.186038
    H   H81   0.922877  0.423617  0.551778  0.040428
    H   H82   0.959440  0.388838  0.578520  -0.034236
    H   H83   0.910957  0.373882  0.539107  -0.039021
    S   S6    0.075449  0.397447  0.545326  -0.203582
    C   C158  0.069863  0.395004  0.458064  0.201754
    H   H84   0.077043  0.422699  0.444843  0.036682
    H   H85   0.040227  0.388214  0.418100  -0.039384
    H   H86   0.088603  0.372883  0.457556  -0.043214
    S   S7    0.424263  0.898054  0.451288  -0.200363
    C   C159  0.429853  0.895811  0.538569  0.185999
    H   H87   0.422877  0.923617  0.551780  0.040418
    H   H88   0.459441  0.888838  0.578522  -0.034219
    H   H89   0.410958  0.873881  0.539109  -0.039012
    S   S8    0.575449  0.897447  0.545324  -0.203560
    C   C160  0.569862  0.895003  0.458062  0.201797
    H   H90   0.577043  0.922698  0.444841  0.036669
    H   H91   0.540226  0.888214  0.418098  -0.039388
    H   H92   0.588602  0.872882  0.457554  -0.043224
    S   S9    0.198194  0.486964  0.569817  -0.211606
    C   C161  0.187530  0.437028  0.562284  0.023367
    H   H93   0.159250  0.431854  0.515321  0.017953
    H   H94   0.188339  0.427162  0.610852  0.010190
    H   H95   0.208981  0.421347  0.556635  0.060976
    S   S10   0.801853  0.490554  0.431195  -0.212472
    C   C162  0.812450  0.440580  0.442752  0.034605
    H   H96   0.840834  0.436009  0.489814  0.012325
    H   H97   0.811356  0.429167  0.394829  0.008231
    H   H98   0.791136  0.425817  0.450153  0.058420
    S   S11   0.698194  0.986965  0.569817  -0.211589
    C   C163  0.687530  0.937028  0.562284  0.023343
    H   H99   0.659250  0.931854  0.515321  0.017956
    H   H100  0.688339  0.927162  0.610852  0.010190
    H   H101  0.708981  0.921347  0.556635  0.060982
    S   S12   0.301853  0.990554  0.431195  -0.212544
    C   C164  0.312450  0.940581  0.442752  0.034451
    H   H102  0.340834  0.936009  0.489814  0.012385
    H   H103  0.311356  0.929167  0.394829  0.008265
    H   H104  0.291136  0.925817  0.450153  0.058465
