# generated using pymatgen
data_CuH24C43(NO3)2
_symmetry_space_group_name_H-M   'P 1'
_cell_length_a   16.03587400
_cell_length_b   14.61146900
_cell_length_c   27.59616400
_cell_angle_alpha   90.00000000
_cell_angle_beta   89.98424000
_cell_angle_gamma   90.00000000
_symmetry_Int_Tables_number   1
_chemical_formula_structural   CuH24C43(NO3)2
_chemical_formula_sum   'Cu2 H48 C86 N4 O12'
_cell_volume   6465.99280430
_cell_formula_units_Z   2
loop_
 _symmetry_equiv_pos_site_id
 _symmetry_equiv_pos_as_xyz
  1  'x, y, z'
loop_
 _atom_site_type_symbol
 _atom_site_label
 _atom_site_symmetry_multiplicity
 _atom_site_fract_x
 _atom_site_fract_y
 _atom_site_fract_z
 _atom_site_occupancy
  Cu  Cu1  1  0.50006800  0.59156300  0.49988100  1
  Cu  Cu2  1  0.49999900  0.40858100  0.49988300  1
  H  H1  1  0.42259100  0.61784200  0.25815300  1
  H  H2  1  0.58159000  0.61488100  0.74186500  1
  H  H3  1  0.29373700  0.48067300  0.12049200  1
  H  H4  1  0.70538700  0.47204100  0.87946900  1
  H  H5  1  0.41813700  0.38533700  0.74171400  1
  H  H6  1  0.57756600  0.38124300  0.25820700  1
  H  H7  1  0.29445900  0.52745000  0.87962300  1
  H  H8  1  0.70633700  0.51825300  0.12036800  1
  H  H9  1  0.29176700  0.52681400  0.96463600  1
  H  H10  1  0.70900700  0.51770100  0.03535500  1
  H  H11  1  0.29099000  0.48131800  0.03547900  1
  H  H12  1  0.70815300  0.47237700  0.96448200  1
  H  H13  1  0.07680200  0.64582400  0.49964200  1
  H  H14  1  0.92322400  0.35433600  0.49978900  1
  H  H15  1  0.92334800  0.64590200  0.49974400  1
  H  H16  1  0.07667800  0.35425800  0.49990200  1
  H  H17  1  0.63132500  0.08421600  0.51190700  1
  H  H18  1  0.36889200  0.91593000  0.48765400  1
  H  H19  1  0.36889700  0.08434200  0.48791000  1
  H  H20  1  0.63122400  0.91579000  0.51204300  1
  H  H21  1  0.56381900  0.71387600  0.35232900  1
  H  H22  1  0.52419600  0.82827800  0.34490700  1
  H  H23  1  0.51334000  0.74737300  0.29622200  1
  H  H24  1  0.40060000  0.85816300  0.38420000  1
  H  H25  1  0.26791600  0.80936300  0.41934200  1
  H  H26  1  0.22240100  0.64931200  0.41207300  1
  H  H27  1  0.31036500  0.53772500  0.36947100  1
  H  H28  1  0.44340600  0.71568400  0.64613000  1
  H  H29  1  0.48603500  0.82872300  0.65380800  1
  H  H30  1  0.49325000  0.74767400  0.70267100  1
  H  H31  1  0.61130600  0.85403600  0.61535900  1
  H  H32  1  0.74372700  0.80056600  0.58180100  1
  H  H33  1  0.78480200  0.63927600  0.59016700  1
  H  H34  1  0.69252300  0.53104200  0.63214500  1
  H  H35  1  0.55620200  0.28495400  0.64575100  1
  H  H36  1  0.51346100  0.17191200  0.65319800  1
  H  H37  1  0.50629000  0.25261000  0.70223100  1
  H  H38  1  0.38821900  0.14705300  0.61466300  1
  H  H39  1  0.25584500  0.20093100  0.58126000  1
  H  H40  1  0.21492200  0.36219000  0.58997900  1
  H  H41  1  0.30729100  0.47000400  0.63216200  1
  H  H42  1  0.43611700  0.28621000  0.35319800  1
  H  H43  1  0.47530600  0.17157800  0.34598300  1
  H  H44  1  0.48604600  0.25196800  0.29703700  1
  H  H45  1  0.59897000  0.14172500  0.38521200  1
  H  H46  1  0.73217700  0.19037600  0.41969900  1
  H  H47  1  0.77833400  0.35006400  0.41156300  1
  H  H48  1  0.69042700  0.46146700  0.36880800  1
  C  C1  1  0.33998100  0.49981800  0.49987100  1
  C  C2  1  0.66004400  0.50032600  0.49985200  1
  C  C3  1  0.50012000  0.49972500  0.40659800  1
  C  C4  1  0.49995000  0.50040900  0.59323500  1
  C  C5  1  0.42741500  0.49291000  0.17635900  1
  C  C6  1  0.57225300  0.49016700  0.82361200  1
  C  C7  1  0.57270400  0.50603500  0.17631500  1
  C  C8  1  0.42755000  0.50958300  0.82366600  1
  C  C9  1  0.54322200  0.43328800  0.27762500  1
  C  C10  1  0.45435400  0.43586200  0.72231900  1
  C  C11  1  0.54322000  0.43256600  0.32761500  1
  C  C12  1  0.45428600  0.43519400  0.67233000  1
  C  C13  1  0.45703000  0.56677400  0.32759000  1
  C  C14  1  0.54546600  0.56539500  0.67241300  1
  C  C15  1  0.45697600  0.56588000  0.27759800  1
  C  C16  1  0.54539100  0.56444900  0.72240200  1
  C  C17  1  0.50008700  0.49954600  0.25242300  1
  C  C18  1  0.49988200  0.50007900  0.74755100  1
  C  C19  1  0.50002700  0.49948200  0.10070000  1
  C  C20  1  0.49993200  0.49971900  0.89927700  1
  C  C21  1  0.42651700  0.49376000  0.12622100  1
  C  C22  1  0.57318000  0.49087500  0.87375000  1
  C  C23  1  0.35236800  0.48734300  0.10153400  1
  C  C24  1  0.64704000  0.48120000  0.89843300  1
  C  C25  1  0.57356000  0.50518500  0.12617700  1
  C  C26  1  0.42666400  0.50866000  0.87380400  1
  C  C27  1  0.50013700  0.49970800  0.35317900  1
  C  C28  1  0.49989400  0.50034800  0.64672200  1
  C  C29  1  0.42497300  0.50426900  0.97470100  1
  C  C30  1  0.57509500  0.50096100  0.02527700  1
  C  C31  1  0.57496000  0.49491800  0.97465000  1
  C  C32  1  0.42488900  0.49810500  0.02532500  1
  C  C33  1  0.49995500  0.49963200  0.94968700  1
  C  C34  1  0.50000400  0.49951300  0.05028900  1
  C  C35  1  0.35175300  0.51595300  0.94825100  1
  C  C36  1  0.64867600  0.50940500  0.05173400  1
  C  C37  1  0.35282300  0.51822900  0.89854100  1
  C  C38  1  0.64768800  0.51160800  0.10144500  1
  C  C39  1  0.35133300  0.48960300  0.05182400  1
  C  C40  1  0.64815400  0.48330300  0.94814300  1
  C  C41  1  0.95705600  0.58183600  0.49973800  1
  C  C42  1  0.04297000  0.41832400  0.49982700  1
  C  C43  1  0.04304000  0.58179200  0.49970000  1
  C  C44  1  0.95698600  0.41836800  0.49978200  1
  C  C45  1  0.91405100  0.50012400  0.49975600  1
  C  C46  1  0.08597500  0.50003600  0.49976200  1
  C  C47  1  0.82460300  0.50017500  0.49977000  1
  C  C48  1  0.17542200  0.49998300  0.49978200  1
  C  C49  1  0.25054200  0.49991200  0.49981700  1
  C  C50  1  0.74948300  0.50024100  0.49980000  1
  C  C51  1  0.57361700  0.95285100  0.50667300  1
  C  C52  1  0.42653500  0.04728600  0.49315200  1
  C  C53  1  0.42652400  0.95292700  0.49304200  1
  C  C54  1  0.57366400  0.04721500  0.50664200  1
  C  C55  1  0.50005500  0.90574200  0.49983400  1
  C  C56  1  0.50011000  0.09439900  0.49992500  1
  C  C57  1  0.50001800  0.80759100  0.49980200  1
  C  C58  1  0.50012500  0.19255100  0.49996100  1
  C  C59  1  0.40537700  0.63497200  0.35235600  1
  C  C60  1  0.43096100  0.72532300  0.35624500  1
  C  C61  1  0.51295900  0.75528000  0.33616700  1
  C  C62  1  0.38125000  0.78766100  0.38044200  1
  C  C63  1  0.30647300  0.76036900  0.40038100  1
  C  C64  1  0.28098500  0.67069300  0.39633500  1
  C  C65  1  0.33036900  0.60815300  0.37241200  1
  C  C66  1  0.59963000  0.63150600  0.64788600  1
  C  C67  1  0.57661400  0.72259200  0.64346200  1
  C  C68  1  0.49495400  0.75541600  0.66272500  1
  C  C69  1  0.62866000  0.78299600  0.61955300  1
  C  C70  1  0.70329500  0.75307200  0.60051200  1
  C  C71  1  0.72629300  0.66268800  0.60516800  1
  C  C72  1  0.67450700  0.60203900  0.62874300  1
  C  C73  1  0.40005300  0.36930200  0.64770600  1
  C  C74  1  0.42298700  0.27822400  0.64308500  1
  C  C75  1  0.50460400  0.24516100  0.66227000  1
  C  C76  1  0.37091200  0.21807100  0.61903500  1
  C  C77  1  0.29631500  0.24822900  0.60006900  1
  C  C78  1  0.27340300  0.33860100  0.60491900  1
  C  C79  1  0.32523300  0.39900900  0.62861600  1
  C  C80  1  0.59488200  0.36444100  0.35240900  1
  C  C81  1  0.56897000  0.27427600  0.35674100  1
  C  C82  1  0.48671300  0.24444200  0.33700300  1
  C  C83  1  0.61861000  0.21205600  0.38106000  1
  C  C84  1  0.69367800  0.23926700  0.40063600  1
  C  C85  1  0.71953000  0.32873900  0.39610200  1
  C  C86  1  0.67018300  0.39117500  0.37209200  1
  N  N1  1  0.50006900  0.49948200  0.20066200  1
  N  N2  1  0.49989400  0.49993400  0.79931300  1
  N  N3  1  0.50011800  0.27171200  0.49996900  1
  N  N4  1  0.49999500  0.72843100  0.49978800  1
  O  O1  1  0.37888900  0.57848400  0.50114000  1
  O  O2  1  0.62113700  0.42171500  0.49773500  1
  O  O3  1  0.62124800  0.57899000  0.50203500  1
  O  O4  1  0.37877600  0.42109200  0.49860900  1
  O  O5  1  0.50382300  0.57822200  0.42950500  1
  O  O6  1  0.49789500  0.42190100  0.57028100  1
  O  O7  1  0.50209300  0.57893800  0.57031200  1
  O  O8  1  0.49632100  0.42123100  0.42947800  1
  O  O9  1  0.35564700  0.48362900  0.20103700  1
  O  O10  1  0.64363300  0.47782300  0.79892900  1
  O  O11  1  0.35615200  0.52203800  0.79904000  1
  O  O12  1  0.64449300  0.51532600  0.20095000  1
