# generated using pymatgen
data_CuH15C18NO9
_symmetry_space_group_name_H-M   'P 1'
_cell_length_a   12.60622000
_cell_length_b   14.02730600
_cell_length_c   15.95564000
_cell_angle_alpha   90.02301500
_cell_angle_beta   93.59819400
_cell_angle_gamma   98.21491200
_symmetry_Int_Tables_number   1
_chemical_formula_structural   CuH15C18NO9
_chemical_formula_sum   'Cu2 H30 C36 N2 O18'
_cell_volume   2786.87568407
_cell_formula_units_Z   2
loop_
 _symmetry_equiv_pos_site_id
 _symmetry_equiv_pos_as_xyz
  1  'x, y, z'
loop_
 _atom_site_type_symbol
 _atom_site_label
 _atom_site_symmetry_multiplicity
 _atom_site_fract_x
 _atom_site_fract_y
 _atom_site_fract_z
 _atom_site_occupancy
  Cu  Cu1  1  0.39292600  0.49455600  0.49537600  1
  Cu  Cu2  1  0.60717200  0.50672300  0.50593400  1
  H  H1  1  0.61365000  0.29728200  0.01254900  1
  H  H2  1  0.52993700  0.29436100  0.10067600  1
  H  H3  1  0.73843900  0.33951700  0.09572700  1
  H  H4  1  0.38144000  0.70125500  0.98851700  1
  H  H5  1  0.33524400  0.63269900  0.89400600  1
  H  H6  1  0.48299500  0.78357500  0.91644700  1
  H  H7  1  0.34874900  0.28212100  0.98686000  1
  H  H8  1  0.43279600  0.28873000  0.89875200  1
  H  H9  1  0.23026600  0.31035700  0.90398000  1
  H  H10  1  0.65589100  0.71696900  0.01466700  1
  H  H11  1  0.69026900  0.65309200  0.10857800  1
  H  H12  1  0.56808600  0.78850600  0.08743700  1
  H  H13  1  0.76992100  0.51854300  0.00755300  1
  H  H14  1  0.73183000  0.58037400  0.91345700  1
  H  H15  1  0.78663600  0.40789100  0.93129700  1
  H  H16  1  0.23061400  0.48768500  0.99378100  1
  H  H17  1  0.28020600  0.55460100  0.08845700  1
  H  H18  1  0.19386800  0.37402400  0.06902100  1
  H  H19  1  0.28635700  0.01703900  0.49113700  1
  H  H20  1  0.33495500  0.91615300  0.54247700  1
  H  H21  1  0.29288200  0.95739500  0.37478600  1
  H  H22  1  0.71327700  0.98384600  0.51619000  1
  H  H23  1  0.66318300  0.08481200  0.56220000  1
  H  H24  1  0.75220600  0.09814600  0.43273200  1
  H  H25  1  0.98146200  0.64230900  0.61403000  1
  H  H26  1  0.09696100  0.64898200  0.55192400  1
  H  H27  1  0.15685900  0.59673600  0.66421300  1
  H  H28  1  0.01912100  0.36477200  0.38196700  1
  H  H29  1  0.90997100  0.43524600  0.37378200  1
  H  H30  1  0.83684300  0.30663600  0.42336500  1
  C  C1  1  0.48387600  0.31617000  0.49975500  1
  C  C2  1  0.51623000  0.68511100  0.50148200  1
  C  C3  1  0.50036700  0.50073200  0.33982400  1
  C  C4  1  0.49973100  0.50055800  0.66148800  1
  C  C5  1  0.44351500  0.42067500  0.97048300  1
  C  C6  1  0.55653100  0.58063900  0.03082500  1
  C  C7  1  0.54280000  0.42637700  0.03013400  1
  C  C8  1  0.45734700  0.57494300  0.97118000  1
  C  C9  1  0.50028000  0.50073100  0.24988300  1
  C  C10  1  0.49981700  0.50056000  0.75142900  1
  C  C11  1  0.40088600  0.49495400  0.02318000  1
  C  C12  1  0.59920300  0.50628300  0.97813100  1
  C  C13  1  0.50012200  0.50068000  0.08259900  1
  C  C14  1  0.49997100  0.50061000  0.91871300  1
  C  C15  1  0.50020800  0.50071400  0.17435700  1
  C  C16  1  0.49988700  0.50057700  0.82695500  1
  C  C17  1  0.52561400  0.78827300  0.50151300  1
  C  C18  1  0.47447100  0.21301400  0.49867000  1
  C  C19  1  0.54379500  0.97848700  0.50082500  1
  C  C20  1  0.45638800  0.02281900  0.49567300  1
  C  C21  1  0.46645600  0.12636400  0.49745800  1
  C  C22  1  0.53366200  0.87493000  0.50130100  1
  C  C23  1  0.02473000  0.47105300  0.47814000  1
  C  C24  1  0.97513900  0.52756700  0.52554500  1
  C  C25  1  0.85990300  0.52117400  0.51903100  1
  C  C26  1  0.14010700  0.47908200  0.48317900  1
  C  C27  1  0.59033700  0.34010400  0.06503500  1
  C  C28  1  0.40663700  0.65947000  0.93612300  1
  C  C29  1  0.37999200  0.32802500  0.93477400  1
  C  C30  1  0.62294300  0.67189500  0.06667200  1
  C  C31  1  0.71334200  0.51436000  0.95115200  1
  C  C32  1  0.28702700  0.49000800  0.05017400  1
  C  C33  1  0.34624200  0.96648700  0.48910900  1
  C  C34  1  0.65395000  0.03482200  0.50748700  1
  C  C35  1  0.03760500  0.59951800  0.58551400  1
  C  C36  1  0.96225800  0.39908800  0.41818200  1
  N  N1  1  0.23280500  0.48522400  0.48734500  1
  N  N2  1  0.76728900  0.51601100  0.51400200  1
  O  O1  1  0.39584300  0.35576700  0.49840000  1
  O  O2  1  0.60427300  0.64551300  0.50290300  1
  O  O3  1  0.58000000  0.36615600  0.50155500  1
  O  O4  1  0.42009300  0.63512600  0.49972700  1
  O  O5  1  0.40860100  0.49883800  0.37438000  1
  O  O6  1  0.59148100  0.50243100  0.62692700  1
  O  O7  1  0.59218300  0.50253800  0.38336900  1
  O  O8  1  0.40792700  0.49875400  0.61794000  1
  O  O9  1  0.68074700  0.37126300  0.11812700  1
  O  O10  1  0.48073100  0.71882300  0.89111500  1
  O  O11  1  0.29424900  0.34907100  0.88191600  1
  O  O12  1  0.55875100  0.72336700  0.11218400  1
  O  O13  1  0.72485700  0.43390400  0.90305500  1
  O  O14  1  0.26094900  0.40743600  0.09753500  1
  O  O15  1  0.32948100  0.91538700  0.41329500  1
  O  O16  1  0.67299000  0.08635600  0.43388500  1
  O  O17  1  0.09011500  0.55226600  0.64901500  1
  O  O18  1  0.90000000  0.32823100  0.46228400  1
