# Generated by REPEAT Assigner based on pymatgen
data_DB0-m2_o1_o25_f0_nbo.sym.57
_audit_creation_date              2022-05-24
_audit_creation_method            REPEAT_Assigner
_cell_length_a                    37.884600
_cell_length_b                    21.571182
_cell_length_c                    21.483502
_cell_angle_alpha                 90.000000
_cell_angle_beta                  56.845111
_cell_angle_gamma                 90.000000
_cell_volume                      14698.345138
_symmetry_space_group_name_H-M    P1
_symmetry_Int_Tables_number       1
loop_
    _symmetry_equiv_pos_site_id
    _symmetry_equiv_pos_as_xyz
    1  x,y,z
loop_
    _atom_site_type_symbol
    _atom_site_label
    _atom_site_fract_x
    _atom_site_fract_y
    _atom_site_fract_z
    _atom_type_partial_charge
    O   O1    0.008420  0.449813  0.402332  -0.633023
    O   O2    0.991580  0.449813  0.597669  -0.633076
    O   O3    0.508420  0.949813  0.402332  -0.633035
    O   O4    0.491580  0.949813  0.597669  -0.633085
    O   O5    0.985630  0.552377  0.425985  -0.653125
    O   O6    0.014370  0.552377  0.574016  -0.653130
    O   O7    0.485630  0.052377  0.425985  -0.653116
    O   O8    0.514370  0.052377  0.574016  -0.653112
    C   C1    0.995941  0.501000  0.386284  0.776835
    C   C2    0.004058  0.501000  0.613717  0.776802
    C   C3    0.495941  0.001000  0.386284  0.776842
    C   C4    0.504058  0.001000  0.613717  0.776786
    O   O9    0.939316  0.449866  0.546122  -0.616198
    O   O10   0.060683  0.449866  0.453879  -0.616168
    O   O11   0.439316  0.949866  0.546122  -0.616210
    O   O12   0.560683  0.949866  0.453879  -0.616177
    O   O13   0.940469  0.552376  0.578733  -0.611546
    O   O14   0.059531  0.552376  0.421268  -0.611514
    O   O15   0.440469  0.052376  0.578733  -0.611529
    O   O16   0.559531  0.052376  0.421268  -0.611495
    C   C5    0.920235  0.501205  0.582678  0.818986
    C   C6    0.079765  0.501204  0.417323  0.818852
    C   C7    0.420235  0.001205  0.582678  0.818976
    C   C8    0.579765  0.001204  0.417323  0.818842
    Cu  Cu1   0.000000  0.440457  0.500001  1.001181
    Cu  Cu2   0.500000  0.940457  0.500001  1.001070
    Cu  Cu3   0.000000  0.561749  0.500001  1.023297
    Cu  Cu4   0.500000  0.061749  0.500001  1.023392
    C   C9    0.736606  0.476871  0.716664  -0.113216
    C   C10   0.263394  0.476871  0.283338  -0.113375
    C   C11   0.236606  0.976871  0.716664  -0.113265
    C   C12   0.763394  0.976871  0.283338  -0.113372
    C   C13   0.763071  0.535022  0.697367  -0.225281
    C   C14   0.236929  0.535022  0.302635  -0.225176
    C   C15   0.263071  0.035022  0.697367  -0.225271
    C   C16   0.736929  0.035022  0.302635  -0.225187
    H   H1    0.774656  0.564832  0.647799  0.086737
    H   H2    0.225344  0.564832  0.352203  0.086724
    H   H3    0.274656  0.064832  0.647799  0.086736
    H   H4    0.725344  0.064832  0.352203  0.086726
    H   H5    0.722260  0.603150  0.797046  0.061655
    H   H6    0.277740  0.603151  0.202957  0.061662
    H   H7    0.222260  0.103150  0.797046  0.061660
    H   H8    0.777740  0.103151  0.202957  0.061660
    C   C17   0.875037  0.501514  0.629121  -0.162852
    C   C18   0.124962  0.501514  0.370881  -0.162760
    C   C19   0.375037  0.001514  0.629121  -0.162870
    C   C20   0.624962  0.001514  0.370881  -0.162778
    C   C21   0.625158  0.497188  0.879967  -0.115916
    C   C22   0.374842  0.497188  0.120035  -0.115880
    C   C23   0.125158  0.997188  0.879967  -0.115939
    C   C24   0.874842  0.997188  0.120035  -0.115916
    C   C25   0.765219  0.442392  0.733900  -0.177049
    C   C26   0.234781  0.442392  0.266101  -0.177005
    C   C27   0.265219  0.942392  0.733900  -0.177040
    C   C28   0.734781  0.942392  0.266101  -0.177015
    C   C29   0.790993  0.501218  0.715944  0.603507
    C   C30   0.209007  0.501218  0.284057  0.603494
    C   C31   0.290993  0.001218  0.715944  0.603511
    C   C32   0.709007  0.001218  0.284057  0.603504
    C   C33   0.737620  0.463576  0.814766  -0.075345
    C   C34   0.262380  0.463577  0.185235  -0.075332
    C   C35   0.237620  0.963576  0.814766  -0.075325
    C   C36   0.762380  0.963577  0.185235  -0.075306
    C   C37   0.709364  0.497554  0.796527  0.616883
    C   C38   0.290636  0.497554  0.203474  0.617016
    C   C39   0.209364  0.997554  0.796527  0.616893
    C   C40   0.790636  0.997554  0.203474  0.616982
    C   C41   0.764070  0.522025  0.796006  -0.284272
    C   C42   0.235929  0.522026  0.203996  -0.284344
    C   C43   0.264070  0.022025  0.796006  -0.284285
    C   C44   0.735929  0.022026  0.203996  -0.284371
    C   C45   0.735427  0.555942  0.778089  -0.130193
    C   C46   0.264573  0.555942  0.221913  -0.130252
    C   C47   0.235427  0.055942  0.778089  -0.130196
    C   C48   0.764573  0.055942  0.221913  -0.130227
    C   C49   0.837087  0.501710  0.668257  -0.324033
    C   C50   0.162913  0.501710  0.331745  -0.324074
    C   C51   0.337087  0.001710  0.668257  -0.324020
    C   C52   0.662913  0.001710  0.331745  -0.324056
    C   C53   0.663160  0.498051  0.842606  -0.380229
    C   C54   0.336839  0.498051  0.157395  -0.380314
    C   C55   0.163160  0.998051  0.842606  -0.380239
    C   C56   0.836839  0.998051  0.157395  -0.380285
    H   H9    0.778797  0.395587  0.713560  0.064927
    H   H10   0.221203  0.395587  0.286441  0.064919
    H   H11   0.278797  0.895587  0.713560  0.064924
    H   H12   0.721203  0.895587  0.286441  0.064919
    C   C57   0.028091  0.525186  0.255775  -0.123060
    C   C58   0.971908  0.525185  0.744226  -0.123156
    C   C59   0.528091  0.025186  0.255775  -0.123143
    C   C60   0.471908  0.025185  0.744226  -0.123155
    H   H13   0.054105  0.545078  0.256345  0.127696
    H   H14   0.945894  0.545076  0.743657  0.127733
    H   H15   0.554105  0.045078  0.256345  0.127701
    H   H16   0.445894  0.045076  0.743657  0.127735
    C   C61   0.029564  0.523275  0.190446  -0.133616
    C   C62   0.970435  0.523274  0.809556  -0.133699
    C   C63   0.529564  0.023275  0.190446  -0.133439
    C   C64   0.470435  0.023274  0.809556  -0.133695
    H   H17   0.056661  0.542536  0.140766  0.128672
    H   H18   0.943338  0.542534  0.859236  0.128718
    H   H19   0.556661  0.042536  0.140766  0.128638
    H   H20   0.443338  0.042534  0.859236  0.128722
    C   C65   0.996724  0.497171  0.189180  -0.025171
    C   C66   0.003276  0.497170  0.810821  -0.025160
    C   C67   0.496724  0.997171  0.189180  -0.025350
    C   C68   0.503276  0.997170  0.810821  -0.025173
    C   C69   0.962384  0.473338  0.253875  -0.150656
    C   C70   0.037616  0.473339  0.746126  -0.150629
    C   C71   0.462384  0.973338  0.253875  -0.150544
    C   C72   0.537616  0.973339  0.746126  -0.150629
    H   H21   0.936785  0.452895  0.252664  0.126316
    H   H22   0.063216  0.452896  0.747337  0.126277
    H   H23   0.436785  0.952895  0.252664  0.126300
    H   H24   0.563216  0.952896  0.747337  0.126280
    C   C73   0.960735  0.474636  0.319875  0.056951
    C   C74   0.039265  0.474637  0.680126  0.056825
    C   C75   0.460735  0.974636  0.319875  0.056876
    C   C76   0.539265  0.974637  0.680126  0.056823
    C   C77   0.994195  0.500825  0.320190  -0.093565
    C   C78   0.005805  0.500825  0.679811  -0.093386
    C   C79   0.494195  0.000825  0.320190  -0.093532
    C   C80   0.505805  0.000825  0.679811  -0.093390
    O   O17   0.489040  0.406117  0.958926  -0.587663
    O   O18   0.510959  0.406117  0.041076  -0.587658
    O   O19   0.989040  0.906117  0.958926  -0.587675
    O   O20   0.010959  0.906117  0.041076  -0.587652
    C   C81   0.500000  0.377001  0.000001  0.682335
    C   C82   0.000000  0.877001  0.000001  0.682228
    O   O21   0.560524  0.478233  0.890851  -0.610107
    O   O22   0.439476  0.478233  0.109151  -0.610160
    O   O23   0.060524  0.978233  0.890851  -0.610200
    O   O24   0.939476  0.978233  0.109151  -0.610172
    O   O25   0.559908  0.511396  0.994473  -0.618426
    O   O26   0.440092  0.511396  0.005528  -0.618404
    O   O27   0.059908  0.011396  0.994473  -0.618460
    O   O28   0.940092  0.011396  0.005528  -0.618405
    C   C83   0.579909  0.495471  0.923705  0.787131
    C   C84   0.420091  0.495471  0.076297  0.787148
    C   C85   0.079909  0.995471  0.923705  0.787249
    C   C86   0.920091  0.995471  0.076297  0.787177
    Cu  Cu5   0.500350  0.494693  0.938777  0.981989
    Cu  Cu6   0.499650  0.494693  0.061225  0.982029
    Cu  Cu7   0.000350  0.994693  0.938777  0.982009
    Cu  Cu8   0.999650  0.994693  0.061225  0.982008
    O   O29   0.511579  0.583240  0.937479  -0.604229
    O   O30   0.488421  0.583239  0.062523  -0.604207
    O   O31   0.011579  0.083240  0.937479  -0.604204
    O   O32   0.988421  0.083239  0.062523  -0.604193
    C   C87   0.500000  0.612241  0.000001  0.731884
    C   C88   0.000000  0.112241  0.000001  0.731851
    O   O33   0.034432  0.406167  0.985350  -0.597623
    O   O34   0.965568  0.406167  0.014652  -0.597566
    O   O35   0.534432  0.906167  0.985350  -0.597653
    O   O36   0.465568  0.906167  0.014652  -0.597580
    C   C89   0.000000  0.376958  0.000001  0.730712
    C   C90   0.500000  0.876958  0.000001  0.730742
    O   O37   0.033344  0.512088  0.057604  -0.587017
    O   O38   0.966656  0.512088  0.942397  -0.587042
    O   O39   0.533344  0.012088  0.057604  -0.587045
    O   O40   0.466656  0.012088  0.942397  -0.587038
    O   O41   0.963999  0.477161  0.122366  -0.590350
    O   O42   0.036001  0.477161  0.877635  -0.590330
    O   O43   0.463999  0.977161  0.122366  -0.590348
    O   O44   0.536001  0.977161  0.877635  -0.590349
    C   C91   0.998109  0.495260  0.119738  0.676904
    C   C92   0.001891  0.495260  0.880264  0.676949
    C   C93   0.498109  0.995260  0.119738  0.676958
    C   C94   0.501891  0.995260  0.880264  0.676954
    Cu  Cu9   0.041112  0.494540  0.961655  0.943243
    Cu  Cu10  0.958888  0.494540  0.038347  0.943290
    Cu  Cu11  0.541112  0.994540  0.961655  0.943205
    Cu  Cu12  0.458888  0.994540  0.038347  0.943307
    O   O45   0.034926  0.582894  0.949921  -0.602278
    O   O46   0.965074  0.582894  0.050080  -0.602236
    O   O47   0.534926  0.082894  0.949921  -0.602299
    O   O48   0.465074  0.082894  0.050080  -0.602236
    C   C95   0.000000  0.612052  0.000001  0.739584
    C   C96   0.500000  0.112052  0.000001  0.739616
    C   C97   0.466516  0.276214  0.059000  0.183338
    C   C98   0.533483  0.276214  0.941001  0.183356
    C   C99   0.966516  0.776214  0.059000  0.183248
    C   C100  0.033483  0.776214  0.941001  0.183211
    C   C101  0.967437  0.712090  0.058752  -0.240003
    C   C102  0.032563  0.712090  0.941249  -0.239981
    C   C103  0.467437  0.212090  0.058752  -0.240037
    C   C104  0.532563  0.212090  0.941249  -0.240022
    H   H25   0.942396  0.686513  0.105056  0.153314
    H   H26   0.057604  0.686513  0.894945  0.153319
    H   H27   0.442396  0.186513  0.105056  0.153321
    H   H28   0.557604  0.186513  0.894945  0.153325
    C   C105  0.000000  0.680019  0.000001  -0.051205
    C   C106  0.500000  0.180019  0.000001  -0.051210
    C   C107  0.500000  0.308865  0.000001  -0.312589
    C   C108  0.000000  0.808865  0.000001  -0.312415
    C   C109  0.537540  0.712593  0.973392  0.192019
    C   C110  0.462460  0.712593  0.026610  0.192016
    C   C111  0.037540  0.212593  0.973392  0.192025
    C   C112  0.962460  0.212593  0.026610  0.192026
    C   C113  0.036974  0.276740  0.973988  -0.231466
    C   C114  0.963026  0.276740  0.026014  -0.231466
    C   C115  0.536974  0.776740  0.973988  -0.231457
    C   C116  0.463026  0.776740  0.026014  -0.231465
    H   H29   0.065863  0.302115  0.953287  0.146393
    H   H30   0.934137  0.302115  0.046715  0.146365
    H   H31   0.565863  0.802115  0.953287  0.146394
    H   H32   0.434137  0.802115  0.046715  0.146371
    C   C117  0.000000  0.308881  0.000001  -0.057619
    C   C118  0.500000  0.808881  0.000001  -0.057643
    C   C119  0.500000  0.680161  0.000001  -0.357321
    C   C120  0.000000  0.180161  0.000001  -0.357336
    C   C121  0.922880  0.448065  0.389215  0.381799
    C   C122  0.882937  0.481486  0.407903  -0.458280
    C   C123  0.919077  0.379109  0.379895  -0.341356
    H   H33   0.925192  0.453549  0.437896  -0.004603
    H   H34   0.874331  0.469789  0.367618  0.103643
    H   H35   0.887809  0.532225  0.407338  0.086866
    H   H36   0.856698  0.467482  0.464305  0.114646
    H   H37   0.910976  0.370404  0.338305  0.080639
    H   H38   0.893955  0.359287  0.433993  0.081971
    H   H39   0.949432  0.356138  0.361766  0.057313
    C   C124  0.077121  0.448067  0.610786  0.382024
    C   C125  0.117063  0.481489  0.592098  -0.458332
    C   C126  0.080924  0.379112  0.620105  -0.341384
    H   H40   0.074809  0.453551  0.562104  -0.004680
    H   H41   0.125669  0.469793  0.632383  0.103653
    H   H42   0.112191  0.532229  0.592663  0.086874
    H   H43   0.143302  0.467486  0.535696  0.114641
    H   H44   0.089025  0.370407  0.661695  0.080631
    H   H45   0.106046  0.359290  0.566007  0.081962
    H   H46   0.050569  0.356140  0.638234  0.057325
    C   C127  0.422880  0.948065  0.389215  0.381844
    C   C128  0.382937  0.981486  0.407903  -0.458295
    C   C129  0.419077  0.879109  0.379895  -0.341362
    H   H47   0.425192  0.953549  0.437896  -0.004611
    H   H48   0.374331  0.969789  0.367618  0.103643
    H   H49   0.387809  0.032225  0.407338  0.086869
    H   H50   0.356698  0.967482  0.464305  0.114650
    H   H51   0.410976  0.870404  0.338305  0.080636
    H   H52   0.393955  0.859287  0.433993  0.081971
    H   H53   0.449432  0.856138  0.361766  0.057316
    C   C130  0.577121  0.948067  0.610786  0.382038
    C   C131  0.617063  0.981489  0.592098  -0.458339
    C   C132  0.580924  0.879112  0.620105  -0.341378
    H   H54   0.574809  0.953551  0.562104  -0.004677
    H   H55   0.625669  0.969793  0.632383  0.103649
    H   H56   0.612191  0.032229  0.592663  0.086875
    H   H57   0.643302  0.967486  0.535696  0.114646
    H   H58   0.589025  0.870407  0.661695  0.080626
    H   H59   0.606046  0.859290  0.566007  0.081961
    H   H60   0.550569  0.856140  0.638234  0.057327
    C   C133  0.428754  0.308374  0.123088  0.328398
    C   C134  0.388416  0.285877  0.131245  -0.425008
    C   C135  0.426792  0.297324  0.194697  -0.323894
    H   H61   0.429743  0.358911  0.114994  0.020347
    H   H62   0.381123  0.237272  0.150855  0.091992
    H   H63   0.391444  0.290080  0.077073  0.074832
    H   H64   0.361892  0.314985  0.172831  0.117265
    H   H65   0.420199  0.247974  0.211540  0.074800
    H   H66   0.401345  0.326242  0.239497  0.065237
    H   H67   0.457318  0.310764  0.186495  0.056231
    C   C136  0.571246  0.308374  0.876913  0.328342
    C   C137  0.611584  0.285877  0.868756  -0.425070
    C   C138  0.573208  0.297324  0.805304  -0.323897
    H   H68   0.570256  0.358911  0.885007  0.020373
    H   H69   0.618876  0.237273  0.849146  0.092008
    H   H70   0.608556  0.290080  0.922928  0.074854
    H   H71   0.638108  0.314985  0.827170  0.117289
    H   H72   0.579801  0.247973  0.788461  0.074806
    H   H73   0.598654  0.326242  0.760504  0.065243
    H   H74   0.542681  0.310764  0.813506  0.056225
    C   C139  0.928754  0.808374  0.123088  0.328428
    C   C140  0.888416  0.785877  0.131245  -0.425034
    C   C141  0.926792  0.797324  0.194697  -0.323903
    H   H75   0.929743  0.858911  0.114994  0.020359
    H   H76   0.881123  0.737272  0.150855  0.091998
    H   H77   0.891444  0.790080  0.077073  0.074837
    H   H78   0.861891  0.814985  0.172831  0.117266
    H   H79   0.920199  0.747974  0.211540  0.074803
    H   H80   0.901345  0.826242  0.239497  0.065236
    H   H81   0.957318  0.810764  0.186495  0.056237
    C   C142  0.071246  0.808374  0.876913  0.328458
    C   C143  0.111584  0.785877  0.868756  -0.425077
    C   C144  0.073208  0.797324  0.805304  -0.323911
    H   H82   0.070256  0.858911  0.885007  0.020347
    H   H83   0.118876  0.737273  0.849146  0.092011
    H   H84   0.108556  0.790080  0.922928  0.074855
    H   H85   0.138108  0.814985  0.827170  0.117274
    H   H86   0.079801  0.747973  0.788461  0.074800
    H   H87   0.098654  0.826242  0.760504  0.065243
    H   H88   0.042681  0.810764  0.813506  0.056235
    C   C145  0.578921  0.679874  0.944484  0.385726
    C   C146  0.610245  0.695381  0.863142  -0.435618
    C   C147  0.596934  0.697065  0.990293  -0.409164
    H   H89   0.575541  0.629086  0.947716  0.016025
    H   H90   0.620524  0.744384  0.856116  0.098774
    H   H91   0.595390  0.686835  0.831537  0.076341
    H   H92   0.638291  0.665038  0.840901  0.104862
    H   H93   0.608212  0.745671  0.980034  0.091383
    H   H94   0.623878  0.666051  0.974939  0.094533
    H   H95   0.572291  0.690807  0.050133  0.075500
    C   C148  0.421079  0.679874  0.055518  0.385792
    C   C149  0.389755  0.695381  0.136860  -0.435637
    C   C150  0.403066  0.697064  0.009709  -0.409174
    H   H96   0.424459  0.629086  0.052286  0.015984
    H   H97   0.379475  0.744384  0.143886  0.098785
    H   H98   0.404610  0.686835  0.168465  0.076341
    H   H99   0.361709  0.665038  0.159101  0.104860
    H   H100  0.391788  0.745671  0.019967  0.091378
    H   H101  0.376122  0.666051  0.025063  0.094536
    H   H102  0.427709  0.690806  0.949868  0.075504
    C   C151  0.078921  0.179874  0.944484  0.385745
    C   C152  0.110245  0.195381  0.863142  -0.435638
    C   C153  0.096934  0.197065  0.990293  -0.409142
    H   H103  0.075541  0.129086  0.947716  0.016011
    H   H104  0.120524  0.244384  0.856116  0.098782
    H   H105  0.095390  0.186835  0.831537  0.076343
    H   H106  0.138291  0.165038  0.840901  0.104860
    H   H107  0.108212  0.245671  0.980034  0.091375
    H   H108  0.123878  0.166051  0.974939  0.094525
    H   H109  0.072291  0.190807  0.050133  0.075497
    C   C154  0.921079  0.179874  0.055518  0.385788
    C   C155  0.889755  0.195381  0.136860  -0.435626
    C   C156  0.903066  0.197064  0.009709  -0.409178
    H   H110  0.924459  0.129086  0.052286  0.015981
    H   H111  0.879475  0.244384  0.143886  0.098783
    H   H112  0.904610  0.186835  0.168465  0.076339
    H   H113  0.861709  0.165038  0.159101  0.104856
    H   H114  0.891788  0.245671  0.019967  0.091381
    H   H115  0.876122  0.166051  0.025063  0.094536
    H   H116  0.927709  0.190806  0.949868  0.075501
    C   C157  0.723148  0.451349  0.666555  0.479049
    C   C158  0.696523  0.393432  0.699619  -0.442946
    C   C159  0.698767  0.499658  0.653318  -0.427183
    H   H117  0.751967  0.439067  0.612267  -0.067200
    H   H118  0.665639  0.405394  0.750144  0.139637
    H   H119  0.713071  0.359428  0.713598  0.065707
    H   H120  0.691116  0.372243  0.658500  0.101277
    H   H121  0.670315  0.514427  0.706697  0.099585
    H   H122  0.688951  0.479599  0.617533  0.097141
    H   H123  0.719002  0.540540  0.624717  0.079016
    C   C160  0.276851  0.451348  0.333446  0.479108
    C   C161  0.303477  0.393432  0.300382  -0.443007
    C   C162  0.301233  0.499657  0.346684  -0.427213
    H   H124  0.248033  0.439066  0.387734  -0.067192
    H   H125  0.334360  0.405394  0.249857  0.139673
    H   H126  0.286928  0.359428  0.286403  0.065715
    H   H127  0.308883  0.372242  0.341501  0.101291
    H   H128  0.329685  0.514427  0.293305  0.099600
    H   H129  0.311048  0.479598  0.382469  0.097154
    H   H130  0.280998  0.540539  0.375285  0.079014
    C   C163  0.223148  0.951349  0.666555  0.479103
    C   C164  0.196523  0.893432  0.699619  -0.442999
    C   C165  0.198767  0.999658  0.653318  -0.427218
    H   H131  0.251967  0.939067  0.612267  -0.067205
    H   H132  0.165639  0.905394  0.750144  0.139666
    H   H133  0.213071  0.859428  0.713598  0.065724
    H   H134  0.191116  0.872243  0.658500  0.101282
    H   H135  0.170315  0.014427  0.706697  0.099604
    H   H136  0.188951  0.979599  0.617533  0.097149
    H   H137  0.219002  0.040540  0.624717  0.079020
    C   C166  0.776851  0.951348  0.333446  0.479129
    C   C167  0.803477  0.893432  0.300382  -0.443011
    C   C168  0.801233  0.999657  0.346684  -0.427219
    H   H138  0.748033  0.939066  0.387734  -0.067199
    H   H139  0.834360  0.905394  0.249857  0.139675
    H   H140  0.786928  0.859428  0.286403  0.065716
    H   H141  0.808883  0.872242  0.341501  0.101291
    H   H142  0.829685  0.014427  0.293305  0.099605
    H   H143  0.811048  0.979598  0.382469  0.097156
    H   H144  0.780998  0.040539  0.375285  0.079012
    C   C169  0.780417  0.558020  0.836549  0.613341
    C   C170  0.745480  0.569167  0.917314  -0.498578
    C   C171  0.818058  0.526927  0.830944  -0.502922
    H   H145  0.791081  0.603983  0.809351  -0.076194
    H   H146  0.736484  0.525521  0.949450  0.120806
    H   H147  0.717451  0.588859  0.920715  0.086275
    H   H148  0.756558  0.602723  0.942154  0.111505
    H   H149  0.821681  0.478669  0.811000  0.116079
    H   H150  0.814307  0.527231  0.885863  0.102766
    H   H151  0.847034  0.552996  0.790794  0.112936
    C   C172  0.219583  0.558021  0.163453  0.613433
    C   C173  0.254520  0.569168  0.082688  -0.498628
    C   C174  0.181942  0.526928  0.169058  -0.503110
    H   H152  0.208918  0.603983  0.190652  -0.076193
    H   H153  0.263516  0.525523  0.050551  0.120826
    H   H154  0.282549  0.588860  0.079287  0.086288
    H   H155  0.243442  0.602724  0.057848  0.111512
    H   H156  0.178319  0.478670  0.189001  0.116131
    H   H157  0.185693  0.527233  0.114138  0.102822
    H   H158  0.152966  0.552997  0.209208  0.112980
    C   C175  0.280417  0.058020  0.836549  0.613336
    C   C176  0.245480  0.069167  0.917314  -0.498573
    C   C177  0.318058  0.026927  0.830944  -0.502912
    H   H159  0.291081  0.103983  0.809351  -0.076193
    H   H160  0.236484  0.025521  0.949450  0.120804
    H   H161  0.217451  0.088859  0.920715  0.086278
    H   H162  0.256558  0.102723  0.942154  0.111503
    H   H163  0.321681  0.978669  0.811000  0.116077
    H   H164  0.314307  0.027231  0.885863  0.102764
    H   H165  0.347034  0.052996  0.790794  0.112933
    C   C178  0.719583  0.058021  0.163453  0.613443
    C   C179  0.754520  0.069168  0.082688  -0.498628
    C   C180  0.681942  0.026928  0.169058  -0.503109
    H   H166  0.708918  0.103983  0.190652  -0.076194
    H   H167  0.763516  0.025523  0.050551  0.120828
    H   H168  0.782549  0.088860  0.079287  0.086288
    H   H169  0.743442  0.102724  0.057848  0.111511
    H   H170  0.678319  0.978670  0.189001  0.116132
    H   H171  0.685693  0.027233  0.114138  0.102817
    H   H172  0.652966  0.052997  0.209208  0.112979
    C   C181  0.720702  0.419102  0.880880  0.475733
    C   C182  0.698032  0.364684  0.872748  -0.413223
    C   C183  0.756025  0.393004  0.886685  -0.373620
    H   H173  0.698022  0.444084  0.932936  -0.075905
    H   H174  0.720647  0.336135  0.824024  0.090968
    H   H175  0.672661  0.381009  0.866182  0.073901
    H   H176  0.683429  0.335475  0.923418  0.106692
    H   H177  0.783263  0.379956  0.830875  0.075885
    H   H178  0.744756  0.351196  0.922502  0.075788
    H   H179  0.765741  0.427189  0.912794  0.071331
    C   C184  0.279298  0.419103  0.119121  0.475876
    C   C185  0.301968  0.364685  0.127252  -0.413236
    C   C186  0.243975  0.393005  0.113315  -0.373784
    H   H180  0.301978  0.444085  0.067066  -0.075953
    H   H181  0.279353  0.336135  0.175977  0.090954
    H   H182  0.327339  0.381009  0.133819  0.073885
    H   H183  0.316571  0.335476  0.076582  0.106701
    H   H184  0.216737  0.379957  0.169125  0.075902
    H   H185  0.255244  0.351198  0.077498  0.075847
    H   H186  0.234259  0.427190  0.087207  0.071360
    C   C187  0.220702  0.919102  0.880880  0.475715
    C   C188  0.198032  0.864684  0.872748  -0.413191
    C   C189  0.256025  0.893004  0.886685  -0.373616
    H   H187  0.198022  0.944084  0.932936  -0.075902
    H   H188  0.220647  0.836135  0.824024  0.090963
    H   H189  0.172661  0.881009  0.866182  0.073888
    H   H190  0.183429  0.835475  0.923418  0.106687
    H   H191  0.283263  0.879956  0.830875  0.075883
    H   H192  0.244756  0.851196  0.922502  0.075789
    H   H193  0.265741  0.927189  0.912794  0.071329
    C   C190  0.779298  0.919103  0.119121  0.475867
    C   C191  0.801968  0.864685  0.127252  -0.413219
    C   C192  0.743975  0.893005  0.113315  -0.373779
    H   H194  0.801978  0.944085  0.067066  -0.075957
    H   H195  0.779353  0.836135  0.175977  0.090951
    H   H196  0.827339  0.881009  0.133819  0.073880
    H   H197  0.816571  0.835476  0.076582  0.106698
    H   H198  0.716737  0.879957  0.169125  0.075902
    H   H199  0.755244  0.851198  0.077498  0.075846
    H   H200  0.734259  0.927190  0.087207  0.071358
