# Generated by REPEAT Assigner based on pymatgen
data_DB0-m3_o7_o23_f0_nbo.sym.91
_audit_creation_date              2022-05-24
_audit_creation_method            REPEAT_Assigner
_cell_length_a                    47.835880
_cell_length_b                    35.544044
_cell_length_c                    31.993956
_cell_angle_alpha                 90.000000
_cell_angle_beta                  132.157930
_cell_angle_gamma                 90.000000
_cell_volume                      40325.629226
_symmetry_space_group_name_H-M    P1
_symmetry_Int_Tables_number       1
loop_
    _symmetry_equiv_pos_site_id
    _symmetry_equiv_pos_as_xyz
    1  x,y,z
loop_
    _atom_site_type_symbol
    _atom_site_label
    _atom_site_fract_x
    _atom_site_fract_y
    _atom_site_fract_z
    _atom_type_partial_charge
    O   O1    0.056154  0.030037  0.554624  -0.670228
    O   O2    0.943751  0.031982  0.443335  -0.649782
    O   O3    0.556154  0.530037  0.554624  -0.670229
    O   O4    0.443751  0.531982  0.443335  -0.649739
    O   O5    0.056326  0.965153  0.556722  -0.653579
    O   O6    0.943849  0.967097  0.445395  -0.672483
    O   O7    0.556326  0.465153  0.556722  -0.653543
    O   O8    0.443849  0.467097  0.445395  -0.672501
    C   C1    0.073829  0.997630  0.573063  0.560302
    C   C2    0.926211  0.999535  0.426972  0.559898
    C   C3    0.573829  0.497630  0.573063  0.560279
    C   C4    0.426211  0.499535  0.426972  0.559855
    O   O9    0.998528  0.031826  0.436072  -0.715843
    O   O10   0.999858  0.030270  0.562042  -0.731427
    O   O11   0.498528  0.531826  0.436072  -0.715841
    O   O12   0.499858  0.530270  0.562042  -0.731394
    O   O13   0.000194  0.966868  0.438014  -0.728718
    O   O14   0.001501  0.965310  0.563942  -0.712448
    O   O15   0.500194  0.466868  0.438014  -0.728702
    O   O16   0.501501  0.465310  0.563942  -0.712457
    C   C5    0.999183  0.999281  0.417379  0.841907
    C   C6    0.000858  0.997836  0.582656  0.842477
    C   C7    0.499183  0.499281  0.417379  0.841888
    C   C8    0.500858  0.497836  0.582656  0.842451
    Zn  Zn1   0.000132  0.041184  0.500134  1.343747
    Zn  Zn2   0.500132  0.541184  0.500134  1.343722
    Zn  Zn3   0.999908  0.955960  0.499900  1.338662
    Zn  Zn4   0.499908  0.455960  0.499900  1.338643
    C   C9    0.020626  0.030620  0.296081  -0.520347
    C   C10   0.979266  0.029820  0.703663  -0.511877
    C   C11   0.520626  0.530620  0.296081  -0.520287
    C   C12   0.479266  0.529820  0.703663  -0.511787
    C   C13   0.013940  0.961441  0.285193  0.612001
    C   C14   0.986198  0.960678  0.715105  0.606091
    C   C15   0.513940  0.461441  0.285193  0.611935
    C   C16   0.486198  0.460678  0.715105  0.606233
    C   C17   0.019247  0.969156  0.243763  -0.459013
    C   C18   0.980847  0.968542  0.756452  -0.464176
    C   C19   0.519247  0.469156  0.243763  -0.458985
    C   C20   0.480847  0.468542  0.756452  -0.464086
    H   H1    0.043580  0.041445  0.257664  -0.064022
    H   H2    0.956257  0.040778  0.741971  -0.067744
    H   H3    0.543580  0.541445  0.257664  -0.064050
    H   H4    0.456257  0.540778  0.741971  -0.067745
    H   H5    0.050770  0.024538  0.332635  0.097731
    H   H6    0.949146  0.023611  0.667147  0.096629
    H   H7    0.550770  0.524538  0.332635  0.097721
    H   H8    0.449146  0.523611  0.667147  0.096609
    H   H9    0.042043  0.957365  0.327933  -0.052231
    H   H10   0.958115  0.956448  0.672392  -0.050016
    H   H11   0.542043  0.457365  0.327933  -0.052219
    H   H12   0.458115  0.456448  0.672392  -0.050048
    H   H13   0.049580  0.974029  0.267719  0.056678
    H   H14   0.950495  0.973335  0.732442  0.058825
    H   H15   0.549580  0.474029  0.267719  0.056680
    H   H16   0.450495  0.473335  0.732442  0.058741
    H   H17   0.009872  0.945336  0.214682  0.197159
    H   H18   0.990297  0.944827  0.785719  0.198685
    H   H19   0.509872  0.445336  0.214682  0.197157
    H   H20   0.490297  0.444827  0.785719  0.198645
    C   C21   0.997820  0.001403  0.124551  -0.310954
    C   C22   0.002134  0.001155  0.875387  -0.317369
    C   C23   0.497820  0.501403  0.124551  -0.310976
    C   C24   0.502134  0.501155  0.875387  -0.317374
    C   C25   0.996703  0.997519  0.286287  0.273757
    C   C26   0.003309  0.996752  0.713729  0.258294
    C   C27   0.496703  0.497519  0.286287  0.273770
    C   C28   0.503309  0.496752  0.713729  0.258270
    C   C29   0.015406  0.038531  0.244105  0.619765
    C   C30   0.984445  0.037913  0.755566  0.631334
    C   C31   0.515406  0.538531  0.244105  0.619823
    C   C32   0.484445  0.537913  0.755566  0.631324
    C   C33   0.996604  0.003186  0.206983  0.018243
    C   C34   0.003369  0.002699  0.792968  0.010120
    C   C35   0.496604  0.503186  0.206983  0.018126
    C   C36   0.503369  0.502699  0.792968  0.010149
    C   C37   0.956564  0.998799  0.183060  -0.217587
    C   C38   0.043428  0.998396  0.816939  -0.225251
    C   C39   0.456564  0.498799  0.183060  -0.217526
    C   C40   0.543428  0.498396  0.816939  -0.225245
    C   C41   0.956787  0.003538  0.230249  -0.110807
    C   C42   0.043199  0.002971  0.769725  -0.104474
    C   C43   0.456787  0.503538  0.230249  -0.110858
    C   C44   0.543199  0.502971  0.769725  -0.104482
    C   C45   0.997306  0.002254  0.161759  0.017299
    C   C46   0.002660  0.001913  0.838187  0.027191
    C   C47   0.497306  0.502254  0.161759  0.017358
    C   C48   0.502660  0.501913  0.838187  0.027193
    C   C49   0.997706  0.998350  0.333221  -0.132386
    C   C50   0.002312  0.997399  0.666796  -0.122925
    C   C51   0.497706  0.498350  0.333221  -0.132400
    C   C52   0.502312  0.497399  0.666796  -0.122994
    C   C53   0.998474  0.999010  0.371719  -0.219960
    C   C54   0.001551  0.997863  0.628301  -0.223492
    C   C55   0.498474  0.499010  0.371719  -0.219938
    C   C56   0.501551  0.497863  0.628301  -0.223443
    H   H21   0.947534  0.032450  0.228991  0.035582
    H   H22   0.052350  0.031887  0.770758  0.033944
    H   H23   0.447534  0.532450  0.228991  0.035594
    H   H24   0.552350  0.531887  0.770758  0.033947
    H   H25   0.936603  0.983507  0.224057  0.045043
    H   H26   0.063459  0.982964  0.776086  0.045294
    H   H27   0.436603  0.483507  0.224057  0.045054
    H   H28   0.563459  0.482964  0.776086  0.045295
    H   H29   0.937147  0.019643  0.149642  0.115871
    H   H30   0.062768  0.019358  0.850194  0.118742
    H   H31   0.437147  0.519643  0.149642  0.115860
    H   H32   0.562768  0.519358  0.850194  0.118736
    H   H33   0.012311  0.054804  0.307446  0.172993
    H   H34   0.987503  0.053964  0.692118  0.170445
    H   H35   0.512311  0.554804  0.307446  0.172973
    H   H36   0.487503  0.553964  0.692118  0.170428
    H   H37   0.946087  0.970291  0.164582  0.088960
    H   H38   0.054004  0.969954  0.835643  0.091537
    H   H39   0.446087  0.470291  0.164582  0.088955
    H   H40   0.554004  0.469954  0.835643  0.091527
    C   C57   0.326481  0.000432  0.863499  -0.224133
    C   C58   0.673545  0.999334  0.136554  -0.226840
    C   C59   0.826481  0.500432  0.863499  -0.224133
    C   C60   0.173545  0.499334  0.136554  -0.226826
    H   H41   0.311064  0.000937  0.877167  0.162141
    H   H42   0.688958  0.998528  0.122888  0.162652
    H   H43   0.811064  0.500937  0.877167  0.162145
    H   H44   0.188958  0.498528  0.122888  0.162653
    C   C61   0.365295  0.000902  0.902715  -0.126699
    C   C62   0.634729  0.999579  0.097323  -0.123496
    C   C63   0.865295  0.500902  0.902715  -0.126749
    C   C64   0.134729  0.499579  0.097323  -0.123543
    H   H45   0.379806  0.001756  0.946953  0.137811
    H   H46   0.620214  0.998934  0.053077  0.136919
    H   H47   0.879806  0.501756  0.946953  0.137828
    H   H48   0.120214  0.498934  0.053077  0.136932
    C   C65   0.385028  0.000240  0.885242  0.047839
    C   C66   0.615001  0.000600  0.114794  0.044098
    C   C67   0.885028  0.500240  0.885242  0.047948
    C   C68   0.115001  0.500600  0.114794  0.044226
    C   C69   0.365588  0.999137  0.828280  -0.132290
    C   C70   0.634448  0.001395  0.171768  -0.131592
    C   C71   0.865588  0.499137  0.828280  -0.132325
    C   C72   0.134448  0.501395  0.171768  -0.131644
    H   H49   0.380332  0.998589  0.813532  0.130168
    H   H50   0.619708  0.002193  0.186515  0.130945
    H   H51   0.880332  0.498589  0.813532  0.130181
    H   H52   0.119708  0.502193  0.186515  0.130955
    C   C73   0.326771  0.998671  0.789241  -0.189579
    C   C74   0.673267  0.001146  0.210823  -0.190823
    C   C75   0.826771  0.498671  0.789241  -0.189579
    C   C76   0.173267  0.501146  0.210823  -0.190794
    H   H53   0.311584  0.997796  0.744725  0.143134
    H   H54   0.688459  0.001760  0.255349  0.143229
    H   H55   0.811584  0.497796  0.744725  0.143137
    H   H56   0.188459  0.501760  0.255349  0.143227
    C   C77   0.307298  0.999297  0.806888  0.283329
    C   C78   0.692736  0.000100  0.193179  0.285583
    C   C79   0.807298  0.499297  0.806888  0.283326
    C   C80   0.192736  0.500100  0.193179  0.285527
    C   C81   0.266987  0.998819  0.766270  -0.190847
    C   C82   0.733048  0.999857  0.233810  -0.191469
    C   C83   0.766987  0.498819  0.766270  -0.190848
    C   C84   0.233048  0.499857  0.233810  -0.191395
    C   C85   0.233100  0.998480  0.732174  -0.137912
    C   C86   0.766937  0.999703  0.267907  -0.136662
    C   C87   0.733100  0.498480  0.732174  -0.137903
    C   C88   0.266937  0.499703  0.267907  -0.136775
    C   C89   0.173641  0.964542  0.673610  -0.156544
    C   C90   0.826550  0.966043  0.328693  -0.162216
    C   C91   0.673641  0.464542  0.673610  -0.156588
    C   C92   0.326550  0.466043  0.328693  -0.162388
    H   H57   0.189089  0.938338  0.689933  0.128949
    H   H58   0.811221  0.939769  0.314132  0.130430
    H   H59   0.689089  0.438338  0.689933  0.128961
    H   H60   0.311221  0.439769  0.314132  0.130489
    C   C93   0.134817  0.964254  0.634817  -0.190660
    C   C94   0.865374  0.965922  0.367476  -0.180718
    C   C95   0.634817  0.464254  0.634817  -0.190633
    C   C96   0.365374  0.465922  0.367476  -0.180760
    H   H61   0.120321  0.937534  0.621230  0.137109
    H   H62   0.879988  0.939260  0.382838  0.134330
    H   H63   0.620321  0.437534  0.621230  0.137103
    H   H64   0.379988  0.439260  0.382838  0.134369
    C   C97   0.115051  0.997785  0.614019  0.168170
    C   C98   0.884988  0.999537  0.386025  0.167454
    C   C99   0.615051  0.497785  0.614019  0.168151
    C   C100  0.384988  0.499537  0.386025  0.167510
    C   C101  0.134462  0.031514  0.632297  -0.175794
    C   C102  0.865425  0.033187  0.365510  -0.186290
    C   C103  0.634462  0.531514  0.632297  -0.175764
    C   C104  0.365425  0.533187  0.365510  -0.186275
    H   H65   0.119705  0.058096  0.616724  0.136001
    H   H66   0.880064  0.059830  0.379298  0.138749
    H   H67   0.619705  0.558096  0.616724  0.136000
    H   H68   0.380064  0.559830  0.379298  0.138749
    C   C105  0.173273  0.031640  0.671079  -0.166037
    C   C106  0.826613  0.033146  0.326745  -0.156566
    C   C107  0.673273  0.531640  0.671079  -0.166047
    C   C108  0.326613  0.533146  0.326745  -0.156644
    H   H69   0.188431  0.058011  0.685416  0.131004
    H   H70   0.811335  0.059450  0.310657  0.128944
    H   H71   0.688431  0.558011  0.685416  0.131000
    H   H72   0.311335  0.559450  0.310657  0.128952
    C   C109  0.192787  0.998201  0.691689  0.246382
    C   C110  0.807251  0.999619  0.308382  0.243013
    C   C111  0.692787  0.498201  0.691689  0.246392
    C   C112  0.307251  0.499619  0.308382  0.243220
    O   O17   0.031621  0.056629  0.031137  -0.667305
    O   O18   0.966567  0.056831  0.966793  -0.646507
    O   O19   0.531621  0.556629  0.031137  -0.667325
    O   O20   0.466567  0.556831  0.966793  -0.646513
    C   C113  0.999137  0.074339  0.998948  0.542955
    C   C114  0.499137  0.574339  0.998948  0.542969
    O   O21   0.030973  0.999932  0.093745  -0.750219
    O   O22   0.968956  0.001503  0.906168  -0.751610
    O   O23   0.530973  0.499932  0.093745  -0.750196
    O   O24   0.468956  0.501503  0.906168  -0.751578
    O   O25   0.965890  0.001670  0.027717  -0.770909
    O   O26   0.034039  0.999771  0.972198  -0.770153
    O   O27   0.465890  0.501670  0.027717  -0.770902
    O   O28   0.534039  0.499771  0.972198  -0.770141
    C   C115  0.998245  0.000788  0.080033  0.930538
    C   C116  0.001683  0.000622  0.919880  0.933868
    C   C117  0.498245  0.500788  0.080033  0.930514
    C   C118  0.501683  0.500622  0.919880  0.933827
    Zn  Zn5   0.042679  0.000714  0.043492  1.360708
    Zn  Zn6   0.957270  0.000610  0.956443  1.361666
    Zn  Zn7   0.542679  0.500714  0.043492  1.360684
    Zn  Zn8   0.457270  0.500610  0.956443  1.361643
    O   O29   0.033374  0.944494  0.033150  -0.642808
    O   O30   0.968337  0.944696  0.968790  -0.664299
    O   O31   0.533374  0.444494  0.033150  -0.642761
    O   O32   0.468337  0.444696  0.968790  -0.664266
    C   C119  0.000812  0.926977  0.000985  0.528776
    C   C120  0.500812  0.426977  0.000985  0.528777
    O   O33   0.500965  0.944487  0.963907  -0.686052
    O   O34   0.499121  0.944627  0.034107  -0.703269
    O   O35   0.000965  0.444487  0.963907  -0.686072
    O   O36   0.999121  0.444627  0.034107  -0.703265
    C   C121  0.500023  0.926942  0.999017  0.656233
    C   C122  0.000023  0.426942  0.999017  0.656423
    O   O37   0.443984  0.999797  0.908636  -0.692684
    O   O38   0.556046  0.001544  0.091392  -0.695572
    O   O39   0.943984  0.499797  0.908636  -0.692694
    O   O40   0.056046  0.501544  0.091392  -0.695562
    O   O41   0.443700  0.001435  0.980414  -0.718247
    O   O42   0.556327  0.999862  0.019612  -0.717956
    O   O43   0.943700  0.501435  0.980414  -0.718255
    O   O44   0.056327  0.499862  0.019612  -0.717948
    C   C123  0.426249  0.000540  0.926798  0.692482
    C   C124  0.573780  0.000711  0.073230  0.696252
    C   C125  0.926249  0.500540  0.926798  0.692384
    C   C126  0.073780  0.500711  0.073230  0.696129
    Zn  Zn9   0.500033  0.000714  0.952722  1.328689
    Zn  Zn10  0.499995  0.000537  0.047290  1.330776
    Zn  Zn11  0.000033  0.500714  0.952722  1.328708
    Zn  Zn12  0.999995  0.500537  0.047290  1.330764
    O   O45   0.500893  0.056624  0.965892  -0.703030
    O   O46   0.499077  0.056765  0.036118  -0.686685
    O   O47   0.000893  0.556624  0.965892  -0.703062
    O   O48   0.999077  0.556765  0.036118  -0.686682
    C   C127  0.500004  0.074313  0.000994  0.655557
    C   C128  0.000004  0.574313  0.000994  0.655608
    C   C129  0.500854  0.827230  0.962821  -0.207041
    C   C130  0.498863  0.827367  0.035325  -0.210336
    C   C131  0.000854  0.327230  0.962821  -0.206944
    C   C132  0.998863  0.327367  0.035325  -0.210317
    H   H73   0.501599  0.811940  0.934378  0.147432
    H   H74   0.498046  0.812186  0.063763  0.147986
    H   H75   0.001599  0.311940  0.934378  0.147418
    H   H76   0.998046  0.312186  0.063763  0.147998
    C   C133  0.500934  0.866011  0.962731  -0.133558
    C   C134  0.498940  0.866149  0.035401  -0.130469
    C   C135  0.000934  0.366011  0.962731  -0.133645
    C   C136  0.998940  0.366149  0.035401  -0.130477
    H   H77   0.501751  0.880551  0.933911  0.124379
    H   H78   0.498172  0.880798  0.064204  0.124793
    H   H79   0.001751  0.380551  0.933911  0.124397
    H   H80   0.998172  0.380798  0.064204  0.124773
    C   C137  0.499973  0.885702  0.999058  0.087540
    C   C138  0.999973  0.385702  0.999058  0.087462
    C   C139  0.499815  0.807921  0.999073  0.283442
    C   C140  0.999815  0.307921  0.999073  0.283491
    C   C141  0.499710  0.767580  0.999055  -0.176546
    C   C142  0.999710  0.267580  0.999055  -0.176753
    C   C143  0.999614  0.233699  0.999035  -0.143096
    C   C144  0.499614  0.733699  0.999035  -0.143288
    C   C145  0.965818  0.174083  0.965912  -0.172289
    C   C146  0.033054  0.173879  0.032078  -0.174988
    C   C147  0.465818  0.674083  0.965912  -0.172321
    C   C148  0.533054  0.673879  0.032078  -0.175012
    H   H81   0.939489  0.189397  0.939968  0.134575
    H   H82   0.059474  0.189035  0.058042  0.134970
    H   H83   0.439489  0.689397  0.939968  0.134579
    H   H84   0.559474  0.689035  0.058042  0.134971
    C   C149  0.965625  0.135302  0.965811  -0.186065
    C   C150  0.033014  0.135098  0.032134  -0.184498
    C   C151  0.465625  0.635302  0.965811  -0.186067
    C   C152  0.533014  0.635098  0.032134  -0.184502
    H   H85   0.938860  0.120790  0.939514  0.143241
    H   H86   0.059691  0.120424  0.058416  0.144569
    H   H87   0.438860  0.620790  0.939514  0.143250
    H   H88   0.559691  0.620424  0.058416  0.144584
    C   C153  0.999260  0.115579  0.998963  0.173583
    C   C154  0.499260  0.615579  0.998963  0.173571
    C   C155  0.999494  0.193358  0.999007  0.247046
    C   C156  0.499494  0.693358  0.999007  0.247162
    C   C157  0.499159  0.174039  0.037173  -0.210990
    C   C158  0.501121  0.173902  0.964643  -0.214365
    C   C159  0.999159  0.674039  0.037173  -0.210743
    C   C160  0.001121  0.673902  0.964643  -0.214246
    H   H89   0.498419  0.189327  0.065623  0.148023
    H   H90   0.501921  0.189081  0.936186  0.148622
    H   H91   0.998419  0.689327  0.065623  0.147960
    H   H92   0.001921  0.689081  0.936186  0.148605
    C   C161  0.499092  0.135255  0.037277  -0.132383
    C   C162  0.501057  0.135117  0.964581  -0.130280
    C   C163  0.999092  0.635255  0.037277  -0.132539
    C   C164  0.001057  0.635117  0.964581  -0.130378
    H   H93   0.498291  0.120715  0.066114  0.123713
    H   H94   0.501819  0.120468  0.935770  0.124343
    H   H95   0.998291  0.620715  0.066114  0.123731
    H   H96   0.001819  0.620468  0.935770  0.124364
    C   C165  0.500045  0.115560  0.000943  0.089823
    C   C166  0.000045  0.615560  0.000943  0.089894
    C   C167  0.500175  0.193353  0.000900  0.290691
    C   C168  0.000175  0.693353  0.000900  0.290500
    C   C169  0.500267  0.233701  0.000904  -0.182064
    C   C170  0.000267  0.733701  0.000904  -0.182015
    C   C171  0.000354  0.767586  0.000914  -0.140138
    C   C172  0.500354  0.267586  0.000914  -0.140116
    C   C173  0.966904  0.827414  0.967716  -0.174843
    C   C174  0.034142  0.827219  0.034175  -0.171136
    C   C175  0.466904  0.327414  0.967716  -0.174837
    C   C176  0.534142  0.327219  0.034175  -0.171127
    H   H97   0.940482  0.812257  0.941636  0.135746
    H   H98   0.060475  0.811909  0.060238  0.135210
    H   H99   0.440482  0.312257  0.941636  0.135742
    H   H100  0.560475  0.311909  0.060238  0.135206
    C   C177  0.966939  0.866199  0.967658  -0.191171
    C   C178  0.034330  0.866003  0.034269  -0.192733
    C   C179  0.466939  0.366199  0.967658  -0.191140
    C   C180  0.534330  0.366003  0.034269  -0.192716
    H   H101  0.940260  0.880871  0.941253  0.147622
    H   H102  0.061095  0.880519  0.060687  0.145500
    H   H103  0.440260  0.380871  0.941253  0.147614
    H   H104  0.561095  0.380519  0.060687  0.145492
    C   C181  0.000692  0.885728  0.000972  0.192398
    C   C182  0.500692  0.385728  0.000972  0.192344
    C   C183  0.000467  0.807934  0.000935  0.246632
    C   C184  0.500467  0.307934  0.000935  0.246613
    N   N1    0.994581  0.073766  0.217504  -0.334813
    C   C185  0.982516  0.082796  0.163380  -0.206604
    C   C186  0.014817  0.105693  0.254829  -0.055566
    H   H105  0.959944  0.063779  0.129910  0.099601
    H   H106  0.006954  0.082251  0.166256  0.067059
    H   H107  0.969428  0.111143  0.149703  0.104823
    H   H108  0.043461  0.097574  0.294111  0.018549
    H   H109  0.998750  0.117607  0.265339  0.046175
    H   H110  0.018668  0.127869  0.234730  0.056356
    N   N2    0.005143  0.073239  0.781899  -0.334160
    C   C187  0.017159  0.082454  0.835941  -0.210242
    C   C188  0.984800  0.105036  0.744322  -0.053950
    H   H111  0.039794  0.063554  0.869564  0.097324
    H   H112  0.992715  0.081894  0.833049  0.068413
    H   H113  0.030145  0.110850  0.849404  0.105795
    H   H114  0.956189  0.096780  0.705095  0.017525
    H   H115  0.000835  0.116915  0.733735  0.045448
    H   H116  0.980863  0.127281  0.764237  0.055820
    N   N3    0.494581  0.573766  0.217504  -0.334824
    C   C189  0.482516  0.582796  0.163380  -0.206591
    C   C190  0.514817  0.605693  0.254829  -0.055536
    H   H117  0.459944  0.563779  0.129910  0.099602
    H   H118  0.506954  0.582251  0.166256  0.067041
    H   H119  0.469428  0.611143  0.149703  0.104819
    H   H120  0.543461  0.597574  0.294111  0.018537
    H   H121  0.498750  0.617607  0.265339  0.046168
    H   H122  0.518668  0.627869  0.234730  0.056350
    N   N4    0.505143  0.573239  0.781899  -0.334204
    C   C191  0.517159  0.582454  0.835941  -0.210192
    C   C192  0.484800  0.605036  0.744322  -0.053930
    H   H123  0.539794  0.563554  0.869564  0.097312
    H   H124  0.492715  0.581894  0.833049  0.068395
    H   H125  0.530145  0.610850  0.849404  0.105787
    H   H126  0.456189  0.596780  0.705095  0.017512
    H   H127  0.500835  0.616915  0.733735  0.045448
    H   H128  0.480863  0.627281  0.764237  0.055817
    N   N5    0.991711  0.927083  0.268684  -0.423495
    C   C193  0.979478  0.918516  0.298484  -0.121208
    C   C194  0.010537  0.894367  0.270420  -0.002019
    H   H129  0.957769  0.938438  0.287673  0.089676
    H   H130  0.004021  0.918025  0.344615  0.030182
    H   H131  0.965225  0.890735  0.284764  0.093573
    H   H132  0.039444  0.901312  0.288740  0.005692
    H   H133  0.993873  0.883143  0.227144  0.024984
    H   H134  0.013577  0.872030  0.297393  0.051108
    N   N6    0.008553  0.926378  0.731904  -0.416884
    C   C195  0.020835  0.917699  0.702200  -0.119411
    C   C196  0.989837  0.893658  0.730417  -0.003280
    H   H135  0.042475  0.937659  0.712861  0.088934
    H   H136  0.996304  0.917036  0.656071  0.028146
    H   H137  0.035192  0.889969  0.716161  0.093016
    H   H138  0.960900  0.900538  0.712021  0.005957
    H   H139  0.006529  0.882591  0.773781  0.024970
    H   H140  0.986887  0.871223  0.703634  0.051252
    N   N7    0.491711  0.427083  0.268684  -0.423444
    C   C197  0.479478  0.418516  0.298484  -0.121247
    C   C198  0.510537  0.394367  0.270420  -0.002055
    H   H141  0.457769  0.438438  0.287673  0.089684
    H   H142  0.504021  0.418025  0.344615  0.030199
    H   H143  0.465225  0.390735  0.284764  0.093580
    H   H144  0.539444  0.401312  0.288740  0.005697
    H   H145  0.493873  0.383143  0.227144  0.024993
    H   H146  0.513577  0.372030  0.297393  0.051115
    N   N8    0.508553  0.426378  0.731904  -0.416925
    C   C199  0.520835  0.417699  0.702200  -0.119414
    C   C200  0.489837  0.393658  0.730417  -0.003312
    H   H147  0.542475  0.437659  0.712861  0.088932
    H   H148  0.496304  0.417036  0.656071  0.028144
    H   H149  0.535192  0.389969  0.716161  0.093027
    H   H150  0.460900  0.400538  0.712021  0.005964
    H   H151  0.506529  0.382591  0.773781  0.024982
    H   H152  0.486887  0.371223  0.703634  0.051257
