# generated using pymatgen
data_ZnH17C23N2O5
_symmetry_space_group_name_H-M   'P 1'
_cell_length_a   11.04186500
_cell_length_b   9.88683600
_cell_length_c   15.97279400
_cell_angle_alpha   90.00000000
_cell_angle_beta   89.99537100
_cell_angle_gamma   90.00000000
_symmetry_Int_Tables_number   1
_chemical_formula_structural   ZnH17C23N2O5
_chemical_formula_sum   'Zn2 H34 C46 N4 O10'
_cell_volume   1743.73567377
_cell_formula_units_Z   2
loop_
 _symmetry_equiv_pos_site_id
 _symmetry_equiv_pos_as_xyz
  1  'x, y, z'
loop_
 _atom_site_type_symbol
 _atom_site_label
 _atom_site_symmetry_multiplicity
 _atom_site_fract_x
 _atom_site_fract_y
 _atom_site_fract_z
 _atom_site_occupancy
  Zn  Zn1  1  0.49176000  0.66171600  0.49819700  1
  Zn  Zn2  1  0.50010500  0.35382600  0.49780600  1
  H  H1  1  0.36047300  0.66258900  0.91329600  1
  H  H2  1  0.32275700  0.41270200  0.93163100  1
  H  H3  1  0.49573000  0.29287300  0.05599100  1
  H  H4  1  0.46658800  0.72495700  0.06884000  1
  H  H5  1  0.44743200  0.29677700  0.91692500  1
  H  H6  1  0.51047100  0.72205300  0.93457400  1
  H  H7  1  0.65857100  0.61102600  0.06463300  1
  H  H8  1  0.67099300  0.43105300  0.08010800  1
  H  H9  1  0.68580500  0.56661100  0.92634800  1
  H  H10  1  0.65831600  0.38794700  0.94044800  1
  H  H11  1  0.07655400  0.04985300  0.44434200  1
  H  H12  1  0.10398400  0.91604600  0.62923700  1
  H  H13  1  0.19609800  0.69598000  0.61689400  1
  H  H14  1  0.18064000  0.22529600  0.51760300  1
  H  H15  1  0.91395500  0.96449100  0.55579900  1
  H  H16  1  0.88736100  0.09780200  0.36974000  1
  H  H17  1  0.81087400  0.79050800  0.48071300  1
  H  H18  1  0.79625900  0.31873500  0.37986900  1
  H  H19  1  0.78013700  0.12751000  0.70260700  1
  H  H20  1  0.77174100  0.88028600  0.70603300  1
  H  H21  1  0.33945800  0.25344200  0.38820600  1
  H  H22  1  0.32515500  0.76735100  0.39401900  1
  H  H23  1  0.21431200  0.13625100  0.29443000  1
  H  H24  1  0.20437000  0.88926700  0.29842800  1
  H  H25  1  0.65234700  0.76238100  0.60836500  1
  H  H26  1  0.66601200  0.24830000  0.60264800  1
  H  H27  1  0.23476600  0.60845500  0.01337600  1
  H  H28  1  0.06928100  0.67977800  0.08446300  1
  H  H29  1  0.10279300  0.84197000  0.13101500  1
  H  H30  1  0.09187500  0.69294900  0.19606100  1
  H  H31  1  0.27917100  0.40083000  0.12802900  1
  H  H32  1  0.11833000  0.25982800  0.14770400  1
  H  H33  1  0.17002400  0.08640700  0.14380600  1
  H  H34  1  0.08436500  0.15603500  0.05767800  1
  C  C1  1  0.25721800  0.50219500  0.50767500  1
  C  C2  1  0.48824900  0.51043700  0.33427600  1
  C  C3  1  0.73467100  0.51335200  0.48847100  1
  C  C4  1  0.50356700  0.50504400  0.66162700  1
  C  C5  1  0.42378700  0.63331300  0.04207900  1
  C  C6  1  0.43160800  0.37646900  0.04245300  1
  C  C7  1  0.41841100  0.39150300  0.94823400  1
  C  C8  1  0.44489800  0.63991000  0.94807200  1
  C  C9  1  0.50417600  0.50543900  0.75146600  1
  C  C10  1  0.48700600  0.50733900  0.07689600  1
  C  C11  1  0.49765600  0.50696900  0.91842500  1
  C  C12  1  0.62382900  0.49087400  0.95442500  1
  C  C13  1  0.61827100  0.51166700  0.04842300  1
  C  C14  1  0.50255500  0.50605200  0.82689700  1
  C  C15  1  0.48573400  0.50851400  0.16876200  1
  C  C16  1  0.48623300  0.50964800  0.24429700  1
  C  C17  1  0.11236300  0.71362600  0.58380900  1
  C  C18  1  0.10095300  0.25408400  0.48351000  1
  C  C19  1  0.05893900  0.83770300  0.59375700  1
  C  C20  1  0.03946000  0.15083000  0.44466400  1
  C  C21  1  0.95157500  0.86376400  0.55442500  1
  C  C22  1  0.93254200  0.17666400  0.40469400  1
  C  C23  1  0.89056400  0.76115300  0.51457900  1
  C  C24  1  0.87967600  0.30128300  0.41337800  1
  C  C25  1  0.93771700  0.63050700  0.51150200  1
  C  C26  1  0.93398200  0.40174700  0.46149600  1
  C  C27  1  0.05798400  0.61364400  0.53534300  1
  C  C28  1  0.05412700  0.38489900  0.48555800  1
  C  C29  1  0.87071300  0.51932300  0.48198500  1
  C  C30  1  0.12123800  0.49623500  0.51457200  1
  C  C31  1  0.34756500  0.14707800  0.39020200  1
  C  C32  1  0.33811700  0.87339000  0.39391600  1
  C  C33  1  0.27265400  0.08000800  0.33607200  1
  C  C34  1  0.26713000  0.94277700  0.33835400  1
  C  C35  1  0.41944300  0.93825700  0.44698400  1
  C  C36  1  0.42464100  0.07976700  0.44510500  1
  C  C37  1  0.56698700  0.93584300  0.55129600  1
  C  C38  1  0.57210800  0.07735900  0.54942600  1
  C  C39  1  0.64326800  0.86873400  0.60689600  1
  C  C40  1  0.65222800  0.14238200  0.60329700  1
  C  C41  1  0.71526400  0.93611900  0.66288700  1
  C  C42  1  0.72017400  0.07345100  0.66086900  1
  C  C43  1  0.25410000  0.70802200  0.12416000  1
  C  C44  1  0.12137200  0.73193700  0.13423600  1
  C  C45  1  0.26815600  0.22112700  0.06479200  1
  C  C46  1  0.15317500  0.17873300  0.10626100  1
  N  N1  1  0.49063900  0.86539900  0.49997800  1
  N  N2  1  0.50144400  0.15014900  0.49605500  1
  N  N3  1  0.29540000  0.63086200  0.06023400  1
  N  N4  1  0.31568800  0.34481400  0.08006300  1
  O  O1  1  0.31171300  0.62102200  0.50293300  1
  O  O2  1  0.31959900  0.38960800  0.50383500  1
  O  O3  1  0.48527600  0.62694400  0.37319800  1
  O  O4  1  0.49454200  0.39436600  0.37344300  1
  O  O5  1  0.67225200  0.62590600  0.49219100  1
  O  O6  1  0.68015100  0.39453900  0.49322900  1
  O  O7  1  0.49734100  0.62115800  0.62254700  1
  O  O8  1  0.50639500  0.38861000  0.62277500  1
  O  O9  1  0.32369800  0.75464400  0.17591800  1
  O  O10  1  0.31813600  0.14314500  0.01679500  1
