# Generated by REPEAT Assigner based on pymatgen
data_DB0-m3_o1480_o14_f0_fsc.sym.17
_audit_creation_date              2022-05-24
_audit_creation_method            REPEAT_Assigner
_cell_length_a                    8.573044
_cell_length_b                    9.332845
_cell_length_c                    10.722520
_cell_angle_alpha                 97.945349
_cell_angle_beta                  90.008430
_cell_angle_gamma                 90.103105
_cell_volume                      849.681129
_symmetry_space_group_name_H-M    P1
_symmetry_Int_Tables_number       1
loop_
    _symmetry_equiv_pos_site_id
    _symmetry_equiv_pos_as_xyz
    1  x,y,z
loop_
    _atom_site_type_symbol
    _atom_site_label
    _atom_site_fract_x
    _atom_site_fract_y
    _atom_site_fract_z
    _atom_type_partial_charge
    C   C1   0.012294  0.926455  0.308259  0.465539
    C   C2   0.870648  0.961295  0.257403  -0.274872
    C   C3   0.869149  0.002246  0.138807  -0.130952
    C   C4   0.149534  0.957582  0.249124  -0.185896
    C   C5   0.146977  0.982603  0.124235  -0.220619
    C   C6   0.004450  0.997165  0.066445  0.143865
    C   C7   0.001225  0.013294  0.939028  -0.166763
    C   C8   0.862383  0.011359  0.871924  -0.158417
    C   C9   0.863335  0.041139  0.750045  -0.062905
    C   C10  0.283383  0.987234  0.054549  0.641940
    N   N1   0.276973  0.006417  0.932733  -0.682211
    C   C11  0.140661  0.020537  0.874370  0.508968
    C   C12  0.140586  0.043482  0.749542  -0.231578
    C   C13  0.001215  0.070060  0.693565  -0.074900
    H   H1   0.998588  0.098800  0.599607  0.075987
    H   H2   0.759491  0.037294  0.105521  0.129328
    H   H3   0.751798  0.984466  0.910022  0.108179
    O   O1   0.673839  0.105511  0.371988  -0.637128
    O   O2   0.669707  0.856031  0.371826  -0.651185
    C   C14  0.726773  0.973929  0.333297  0.764465
    O   O3   0.672159  0.896154  0.631796  -0.634462
    O   O4   0.669413  0.142073  0.632023  -0.583833
    C   C15  0.722609  0.026560  0.673295  0.663909
    O   O5   0.332811  0.898003  0.628857  -0.696926
    O   O6   0.338070  0.143177  0.629868  -0.636014
    C   C16  0.282437  0.028340  0.671255  0.762911
    O   O7   0.340275  0.105927  0.368705  -0.625563
    O   O8   0.344094  0.857158  0.367888  -0.507932
    C   C17  0.290856  0.973764  0.326725  0.622935
    Zn  Zn1  0.503923  0.840195  0.502667  1.000093
    Zn  Zn2  0.505412  0.161230  0.500800  0.983642
    C   C18  0.507850  0.683844  0.730341  -0.008847
    H   H4   0.500569  0.797754  0.744233  0.168342
    C   C19  0.514594  0.629945  0.842463  -0.406074
    H   H5   0.516305  0.704196  0.929153  0.162057
    C   C20  0.514965  0.484693  0.843572  0.573423
    C   C21  0.509281  0.393938  0.732296  -0.416877
    H   H6   0.504973  0.284175  0.746072  0.242642
    C   C22  0.508044  0.444633  0.615348  0.125103
    C   C23  0.507359  0.594590  0.613791  0.073694
    N   N2   0.501754  0.650531  0.502128  -0.201435
    C   C24  0.492714  0.553844  0.394096  0.333145
    C   C25  0.501077  0.406063  0.396592  0.236134
    N   N3   0.506624  0.350986  0.505673  -0.103381
    N   N4   0.431617  0.963903  0.107390  -0.602887
    H   H7   0.434528  0.856443  0.124220  0.218536
    H   H8   0.513346  0.973820  0.037129  0.265021
    N   N5   0.499030  0.310946  0.280654  -0.490374
    H   H9   0.394861  0.326968  0.234066  0.295399
    H   H10  0.592103  0.338838  0.225935  0.257562
    N   N6   0.021189  0.861001  0.421443  -0.867510
    H   H11  0.914840  0.861594  0.467670  0.375504
    H   H12  0.098831  0.917807  0.483885  0.392746
    N   N7   0.462068  0.597172  0.274008  -0.850651
    H   H13  0.344090  0.620821  0.265173  0.326911
    H   H14  0.537296  0.676631  0.251411  0.386579
    N   N8   0.518855  0.425876  0.959319  -0.751264
    H   H15  0.522771  0.510880  0.033375  0.278571
    H   H16  0.414669  0.369490  0.966522  0.278325
