# generated using pymatgen
data_Fe2H19C46N4ClO16
_symmetry_space_group_name_H-M   'P 1'
_cell_length_a   13.93004600
_cell_length_b   11.86951800
_cell_length_c   15.91892900
_cell_angle_alpha   89.77773900
_cell_angle_beta   91.56929100
_cell_angle_gamma   67.98217500
_symmetry_Int_Tables_number   1
_chemical_formula_structural   Fe2H19C46N4ClO16
_chemical_formula_sum   'Fe2 H19 C46 N4 Cl1 O16'
_cell_volume   2438.91803882
_cell_formula_units_Z   1
loop_
 _symmetry_equiv_pos_site_id
 _symmetry_equiv_pos_as_xyz
  1  'x, y, z'
loop_
 _atom_site_type_symbol
 _atom_site_label
 _atom_site_symmetry_multiplicity
 _atom_site_fract_x
 _atom_site_fract_y
 _atom_site_fract_z
 _atom_site_occupancy
  Fe  Fe1  1  0.47003100  0.00089600  0.74048500  1
  Fe  Fe2  1  0.52019400  0.97474600  0.26279300  1
  H  H1  1  0.12786000  0.91472600  0.71340600  1
  H  H2  1  0.19173900  0.12296500  0.24058700  1
  H  H3  1  0.00851200  0.14412300  0.25433700  1
  H  H4  1  0.66163400  0.02426600  0.03338800  1
  H  H5  1  0.79777400  0.85935500  0.76365000  1
  H  H6  1  0.98267900  0.83253300  0.75136800  1
  H  H7  1  0.32933100  0.95200900  0.97266700  1
  H  H8  1  0.90853100  0.09255800  0.03512400  1
  H  H9  1  0.07989500  0.88525000  0.97270800  1
  H  H10  1  0.47264200  0.57303100  0.36247100  1
  H  H11  1  0.52487000  0.57097900  0.63146300  1
  H  H12  1  0.48954200  0.41691900  0.64331600  1
  H  H13  1  0.51201000  0.38630500  0.37357700  1
  H  H14  1  0.50358400  0.87304000  0.48033100  1
  H  H15  1  0.49615800  0.10010400  0.52352400  1
  H  H16  1  0.01675100  0.86752100  0.47763000  1
  H  H17  1  0.91712300  0.04936000  0.55690100  1
  H  H18  1  0.79110900  0.22828400  0.48293900  1
  H  H19  1  0.76475200  0.22545300  0.32971600  1
  C  C1  1  0.25420600  0.04167700  0.12026400  1
  C  C2  1  0.17973200  0.09416500  0.17815300  1
  C  C3  1  0.09012500  0.08565800  0.14634100  1
  C  C4  1  0.20566700  0.00819600  0.05356800  1
  C  C5  1  0.00560800  0.11099200  0.19136200  1
  C  C6  1  0.91866000  0.07434400  0.16844700  1
  C  C7  1  0.86056100  0.04382400  0.22635000  1
  C  C8  1  0.78576400  0.01588000  0.18195100  1
  C  C9  1  0.80214700  0.03072400  0.09737300  1
  C  C10  1  0.74169900  0.01199300  0.02516300  1
  C  C11  1  0.78519000  0.96837300  0.95243500  1
  C  C12  1  0.73570000  0.93901200  0.88450500  1
  C  C13  1  0.81001900  0.88652400  0.82651800  1
  C  C14  1  0.90060500  0.89079900  0.85951900  1
  C  C15  1  0.98591100  0.86292200  0.81513100  1
  C  C16  1  0.07545500  0.89375200  0.83904600  1
  C  C17  1  0.13691100  0.91739200  0.78094700  1
  C  C18  1  0.21041300  0.94655400  0.82536900  1
  C  C19  1  0.19092700  0.93888500  0.90996100  1
  C  C20  1  0.24979200  0.96232700  0.98146500  1
  C  C21  1  0.50796700  0.79974700  0.63836500  1
  C  C22  1  0.29019800  0.97714100  0.78312300  1
  C  C23  1  0.62559900  0.97329900  0.86396900  1
  C  C24  1  0.50803100  0.18664500  0.66905300  1
  C  C25  1  0.47754700  0.79309900  0.33569700  1
  C  C26  1  0.36434900  0.00727800  0.14064900  1
  C  C27  1  0.70600300  0.98103400  0.22156000  1
  C  C28  1  0.50408200  0.16872400  0.36556400  1
  C  C29  1  0.49624200  0.72259000  0.41441600  1
  C  C30  1  0.48978400  0.60927700  0.42024800  1
  C  C31  1  0.50143900  0.54912600  0.49840400  1
  C  C32  1  0.51479700  0.61050100  0.56955800  1
  C  C33  1  0.51176200  0.72773500  0.56339600  1
  C  C34  1  0.50516300  0.78169700  0.48599300  1
  C  C35  1  0.49200600  0.37186300  0.58453600  1
  C  C36  1  0.49226300  0.25525800  0.58964800  1
  C  C37  1  0.49421100  0.19159900  0.51781700  1
  C  C38  1  0.49832600  0.24119000  0.44064200  1
  C  C39  1  0.50180600  0.35552000  0.43493300  1
  C  C40  1  0.49720500  0.42468800  0.50635100  1
  C  C41  1  0.87590100  0.04474900  0.31758300  1
  C  C42  1  0.94680100  0.94443700  0.35913900  1
  C  C43  1  0.96144200  0.94616700  0.44508300  1
  C  C44  1  0.90555200  0.04808700  0.48954200  1
  C  C45  1  0.83488700  0.14835700  0.44808600  1
  C  C46  1  0.82007400  0.14671600  0.36216900  1
  N  N1  1  0.10490200  0.03482800  0.06982200  1
  N  N2  1  0.88277700  0.06703400  0.09017400  1
  N  N3  1  0.88648700  0.93923200  0.93683400  1
  N  N4  1  0.10879200  0.90546300  0.91743400  1
  Cl  Cl1  1  0.01752700  0.81421100  0.30323900  1
  O  O1  1  0.47927400  0.91793600  0.62971700  1
  O  O2  1  0.52290500  0.74959200  0.71365300  1
  O  O3  1  0.36673700  0.99434000  0.82405000  1
  O  O4  1  0.28792000  0.97978700  0.70075100  1
  O  O5  1  0.59948800  0.10033000  0.68185300  1
  O  O6  1  0.60235500  0.91360900  0.80283700  1
  O  O7  1  0.42787100  0.17230600  0.70262300  1
  O  O8  1  0.55802900  0.07848500  0.88713900  1
  O  O9  1  0.55767200  0.80344600  0.29902500  1
  O  O10  1  0.43117500  0.90104300  0.11849800  1
  O  O11  1  0.38761700  0.88335400  0.32670500  1
  O  O12  1  0.38851300  0.06721800  0.20115400  1
  O  O13  1  0.62445100  0.97850200  0.17934500  1
  O  O14  1  0.71102800  0.96339700  0.30316500  1
  O  O15  1  0.51397100  0.05498200  0.37424300  1
  O  O16  1  0.50044000  0.21574700  0.29023500  1
