# Generated by REPEAT Assigner based on pymatgen
data_DB0-m2_o22_o27_f0_nbo.sym.126_sqe
_audit_creation_date              2022-05-24
_audit_creation_method            REPEAT_Assigner
_cell_length_a                    29.516069
_cell_length_b                    30.873482
_cell_length_c                    24.153446
_cell_angle_alpha                 90.000000
_cell_angle_beta                  127.660213
_cell_angle_gamma                 90.000000
_cell_volume                      17424.299946
_symmetry_space_group_name_H-M    P1
_symmetry_Int_Tables_number       1
loop_
    _symmetry_equiv_pos_site_id
    _symmetry_equiv_pos_as_xyz
    1  x,y,z
loop_
    _atom_site_type_symbol
    _atom_site_label
    _atom_site_fract_x
    _atom_site_fract_y
    _atom_site_fract_z
    _atom_type_partial_charge
    C   C1    0.811739  0.803779  0.499238  0.681212
    C   C2    0.306735  0.685875  0.498497  0.547475
    C   C3    0.643442  0.247311  0.291140  0.045860
    C   C4    0.034332  0.748401  0.069927  0.977612
    C   C5    0.965462  0.748376  0.930346  0.978794
    C   C6    0.534332  0.248401  0.069927  0.977653
    C   C7    0.465462  0.248376  0.930346  0.978805
    C   C8    0.664392  0.608931  0.475764  -0.167730
    C   C9    0.335757  0.608946  0.524555  -0.173875
    C   C10   0.164392  0.108931  0.475764  -0.167726
    C   C11   0.835757  0.108946  0.524555  -0.173890
    C   C12   0.623735  0.576030  0.469308  -0.041057
    C   C13   0.193328  0.185884  0.501714  0.544955
    C   C14   0.376393  0.576044  0.530972  -0.034880
    C   C15   0.123735  0.076030  0.469308  -0.041051
    C   C16   0.876393  0.076044  0.530972  -0.034918
    C   C17   0.674488  0.646301  0.575358  -0.091060
    C   C18   0.325523  0.646249  0.424828  -0.089307
    C   C19   0.174488  0.146301  0.575358  -0.091183
    C   C20   0.825523  0.146249  0.424828  -0.089311
    C   C21   0.595265  0.664366  0.453305  -0.065354
    C   C22   0.404794  0.664405  0.546824  -0.067965
    C   C23   0.095265  0.164366  0.453305  -0.065309
    C   C24   0.806735  0.185875  0.498497  0.547486
    C   C25   0.904794  0.164405  0.546824  -0.067942
    C   C26   0.658097  0.651407  0.502278  0.298510
    C   C27   0.341974  0.651404  0.497932  0.299058
    C   C28   0.158097  0.151407  0.502278  0.298495
    C   C29   0.841974  0.151404  0.497932  0.299003
    C   C30   0.596531  0.593170  0.501468  0.148624
    C   C31   0.403562  0.593176  0.498764  0.149482
    C   C32   0.096531  0.093170  0.501468  0.148581
    C   C33   0.903562  0.093176  0.498764  0.149592
    C   C34   0.642824  0.607954  0.575887  0.011354
    C   C35   0.818693  0.746337  0.632612  0.592697
    C   C36   0.357243  0.607929  0.424335  0.012377
    C   C37   0.142824  0.107954  0.575887  0.011446
    C   C38   0.857243  0.107929  0.424335  0.012354
    C   C39   0.559592  0.631853  0.458974  -0.082957
    C   C40   0.440483  0.631878  0.541205  -0.081586
    C   C41   0.059592  0.131853  0.458974  -0.082968
    C   C42   0.940483  0.131878  0.541205  -0.081594
    C   C43   0.063166  0.939555  0.501369  0.494689
    C   C44   0.936949  0.939563  0.498938  0.495643
    C   C45   0.563166  0.439555  0.501369  0.494704
    C   C46   0.181312  0.746329  0.367670  0.593342
    C   C47   0.436949  0.439563  0.498938  0.495539
    C   C48   0.438926  0.558120  0.499140  0.600790
    C   C49   0.561177  0.558111  0.501108  0.602608
    C   C50   0.938926  0.058120  0.499140  0.600731
    C   C51   0.061177  0.058111  0.501108  0.602626
    C   C52   0.610378  0.817472  0.282233  0.076153
    C   C53   0.562984  0.842234  0.258492  -0.122813
    C   C54   0.583364  0.878276  0.299113  -0.250694
    C   C55   0.641721  0.873253  0.344398  -0.055417
    C   C56   0.389803  0.817455  0.718014  0.076999
    C   C57   0.318693  0.246337  0.632612  0.592698
    C   C58   0.437185  0.842222  0.741717  -0.123218
    C   C59   0.416781  0.878264  0.701095  -0.250053
    C   C60   0.358424  0.873235  0.655848  -0.056067
    C   C61   0.110378  0.317472  0.282233  0.076214
    C   C62   0.062984  0.342234  0.258492  -0.122804
    C   C63   0.083364  0.378276  0.299113  -0.250737
    C   C64   0.141721  0.373253  0.344398  -0.055342
    C   C65   0.889803  0.317455  0.718014  0.077004
    C   C66   0.937185  0.342222  0.741717  -0.123225
    C   C67   0.916781  0.378264  0.701095  -0.250030
    C   C68   0.681312  0.246329  0.367670  0.593262
    C   C69   0.858424  0.373235  0.655848  -0.056097
    C   C70   0.882145  0.937065  0.578210  0.395601
    C   C71   0.913336  0.974521  0.605181  -0.331840
    C   C72   0.928510  0.978468  0.670411  -0.233247
    C   C73   0.905404  0.943139  0.679163  -0.127482
    C   C74   0.117971  0.937035  0.422102  0.391388
    C   C75   0.086785  0.974493  0.395121  -0.330909
    C   C76   0.071605  0.978427  0.329887  -0.234123
    C   C77   0.094703  0.943088  0.321142  -0.126098
    C   C78   0.382145  0.437065  0.578210  0.395535
    C   C79   0.609043  0.776200  0.251009  -0.004228
    C   C80   0.413336  0.474521  0.605181  -0.331805
    C   C81   0.428510  0.478468  0.670411  -0.233259
    C   C82   0.405404  0.443139  0.679163  -0.127473
    C   C83   0.617971  0.437035  0.422102  0.391384
    C   C84   0.586785  0.474493  0.395121  -0.330763
    C   C85   0.571605  0.478427  0.329887  -0.234317
    C   C86   0.594703  0.443088  0.321142  -0.125891
    C   C87   0.817456  0.955630  0.455459  -0.167937
    C   C88   0.771899  0.971796  0.451033  -0.109772
    C   C89   0.746331  0.000990  0.398072  -0.166211
    C   C90   0.391168  0.776181  0.749254  -0.006424
    C   C91   0.778099  0.000878  0.374038  -0.119013
    C   C92   0.182658  0.955619  0.544845  -0.173926
    C   C93   0.228218  0.971779  0.549272  -0.109344
    C   C94   0.253774  0.000986  0.602213  -0.166899
    C   C95   0.221997  0.000889  0.626233  -0.117426
    C   C96   0.317456  0.455630  0.455459  -0.167910
    C   C97   0.271899  0.471796  0.451033  -0.109775
    C   C98   0.246331  0.500990  0.398072  -0.166237
    C   C99   0.278099  0.500878  0.374038  -0.118962
    C   C100  0.682658  0.455619  0.544845  -0.173893
    C   C101  0.109043  0.276200  0.251009  -0.004304
    C   C102  0.728218  0.471779  0.549272  -0.109395
    C   C103  0.753774  0.500986  0.602213  -0.166869
    C   C104  0.721997  0.500889  0.626233  -0.117404
    C   C105  0.839081  0.892071  0.361066  0.253226
    C   C106  0.780795  0.899374  0.319150  -0.005035
    C   C107  0.766462  0.913147  0.256987  -0.395593
    C   C108  0.816302  0.912630  0.264281  -0.005102
    C   C109  0.161039  0.892084  0.639263  0.256910
    C   C110  0.219322  0.899396  0.681173  -0.007610
    C   C111  0.233653  0.913181  0.743329  -0.394044
    C   C112  0.188386  0.803757  0.501119  0.681615
    C   C113  0.891168  0.276181  0.749253  -0.006636
    C   C114  0.183814  0.912663  0.736037  -0.005818
    C   C115  0.339081  0.392071  0.361066  0.253072
    C   C116  0.280795  0.399374  0.319150  -0.005196
    C   C117  0.266462  0.413147  0.256987  -0.395499
    C   C118  0.316302  0.412630  0.264281  -0.005099
    C   C119  0.661039  0.392084  0.639263  0.256821
    C   C120  0.719322  0.399396  0.681173  -0.007588
    C   C121  0.733653  0.413181  0.743329  -0.394055
    C   C122  0.683814  0.412663  0.736037  -0.005787
    C   C123  0.871175  0.811018  0.850608  0.045580
    C   C124  0.570577  0.771512  0.179293  0.016484
    C   C125  0.817948  0.825686  0.826299  -0.167486
    C   C126  0.827778  0.857086  0.871768  -0.202222
    C   C127  0.886212  0.859671  0.920373  -0.002901
    C   C128  0.128091  0.811457  0.149585  0.046520
    C   C129  0.181177  0.826438  0.173824  -0.168962
    C   C130  0.171039  0.857944  0.128343  -0.201320
    C   C131  0.112579  0.860271  0.079802  -0.002274
    C   C132  0.371175  0.311018  0.850608  0.045576
    C   C133  0.317948  0.325686  0.826299  -0.167519
    C   C134  0.327778  0.357086  0.871768  -0.202206
    C   C135  0.429662  0.771495  0.820968  0.017825
    C   C136  0.386212  0.359671  0.920373  -0.002902
    C   C137  0.628091  0.311457  0.149585  0.046550
    C   C138  0.681177  0.326438  0.173824  -0.168969
    C   C139  0.671039  0.357944  0.128343  -0.201327
    C   C140  0.612579  0.360271  0.079802  -0.002266
    C   C141  0.737200  0.640764  0.632470  0.219048
    C   C142  0.760927  0.643658  0.702053  -0.327842
    C   C143  0.817475  0.635425  0.737260  -0.059372
    C   C144  0.824353  0.627922  0.686773  -0.180479
    C   C145  0.262811  0.640626  0.367791  0.217087
    C   C146  0.070577  0.271512  0.179293  0.016521
    C   C147  0.239029  0.643383  0.298177  -0.325261
    C   C148  0.182502  0.635108  0.263066  -0.062628
    C   C149  0.175690  0.627722  0.313636  -0.176843
    C   C150  0.237200  0.140764  0.632470  0.219172
    C   C151  0.260927  0.143658  0.702053  -0.327961
    C   C152  0.317475  0.135425  0.737260  -0.059196
    C   C153  0.324353  0.127922  0.686773  -0.180741
    C   C154  0.762811  0.140626  0.367791  0.217118
    C   C155  0.739029  0.143383  0.298177  -0.325282
    C   C156  0.682502  0.135108  0.263066  -0.062631
    C   C157  0.929662  0.271495  0.820968  0.018230
    C   C158  0.675690  0.127722  0.313636  -0.176840
    C   C159  0.615862  0.665268  0.152035  0.047838
    C   C160  0.664324  0.641135  0.178492  -0.166865
    C   C161  0.647167  0.607831  0.133001  -0.196217
    C   C162  0.589499  0.613717  0.082144  -0.026971
    C   C163  0.384458  0.665231  0.848282  0.048820
    C   C164  0.336016  0.641081  0.821860  -0.168556
    C   C165  0.353211  0.607774  0.867358  -0.194267
    C   C166  0.410881  0.613675  0.918183  -0.027553
    C   C167  0.115862  0.165268  0.152035  0.047845
    C   C168  0.573084  0.736261  0.146305  -0.537265
    C   C169  0.164324  0.141135  0.178492  -0.166861
    C   C170  0.147167  0.107831  0.133001  -0.196221
    C   C171  0.089499  0.113717  0.082144  -0.026966
    C   C172  0.884458  0.165231  0.848282  0.048792
    C   C173  0.836016  0.141081  0.821860  -0.168568
    C   C174  0.853211  0.107774  0.867358  -0.194244
    C   C175  0.910881  0.113675  0.918183  -0.027600
    C   C176  0.427185  0.736240  0.853974  -0.537262
    C   C177  0.073084  0.236261  0.146305  -0.537166
    C   C178  0.927185  0.236240  0.853974  -0.537758
    C   C179  0.613988  0.704422  0.185314  0.174669
    C   C180  0.311739  0.303779  0.499238  0.681190
    C   C181  0.386290  0.704392  0.814985  0.174634
    C   C182  0.113988  0.204422  0.185314  0.174656
    C   C183  0.886290  0.204392  0.814985  0.174829
    C   C184  0.651465  0.708434  0.257325  -0.136838
    C   C185  0.348784  0.708403  0.742976  -0.137895
    C   C186  0.151465  0.208434  0.257325  -0.136846
    C   C187  0.848784  0.208403  0.742976  -0.137964
    C   C188  0.648888  0.743678  0.290580  0.006561
    C   C189  0.351323  0.743655  0.709703  0.008479
    C   C190  0.148888  0.243678  0.290580  0.006556
    C   C191  0.688386  0.303757  0.501119  0.681719
    C   C192  0.851323  0.243655  0.709703  0.008646
    C   C193  0.465302  0.735561  0.930372  1.037770
    C   C194  0.534971  0.735571  0.069908  1.037521
    C   C195  0.965302  0.235561  0.930372  1.037930
    C   C196  0.034971  0.235571  0.069908  1.037275
    C   C197  0.907364  0.839123  0.565684  -0.037588
    C   C198  0.092762  0.839096  0.434670  -0.038211
    C   C199  0.407364  0.339123  0.565684  -0.037541
    C   C200  0.592762  0.339096  0.434670  -0.038281
    C   C201  0.941576  0.874077  0.561358  -0.140083
    C   C202  0.686790  0.744340  0.367350  0.631362
    C   C203  0.058547  0.874055  0.438979  -0.137791
    C   C204  0.441576  0.374077  0.561358  -0.140029
    C   C205  0.558547  0.374055  0.438979  -0.137751
    C   C206  0.847343  0.833673  0.438184  0.108627
    C   C207  0.152787  0.833668  0.562173  0.106922
    C   C208  0.347343  0.333673  0.438184  0.107757
    C   C209  0.652787  0.333668  0.562173  0.106957
    C   C210  0.816868  0.882123  0.490767  0.035069
    C   C211  0.183254  0.882104  0.509565  0.032232
    C   C212  0.316868  0.382123  0.490767  0.034981
    C   C213  0.313377  0.744321  0.632932  0.630134
    C   C214  0.683254  0.382104  0.509565  0.031868
    C   C215  0.845978  0.839357  0.499134  0.017691
    C   C216  0.154148  0.839339  0.501218  0.017004
    C   C217  0.345978  0.339357  0.499134  0.017890
    C   C218  0.654148  0.339339  0.501218  0.016942
    C   C219  0.901246  0.903519  0.497984  0.350639
    C   C220  0.098874  0.903507  0.502340  0.348144
    C   C221  0.401246  0.403519  0.497984  0.350545
    C   C222  0.598874  0.403507  0.502340  0.348017
    C   C223  0.875982  0.873006  0.433635  -0.190673
    C   C224  0.186790  0.244340  0.367350  0.631382
    C   C225  0.124141  0.873005  0.566703  -0.195222
    C   C226  0.375982  0.373006  0.433635  -0.190186
    C   C227  0.624141  0.373005  0.566703  -0.195102
    C   C228  0.855342  0.920251  0.505383  -0.134730
    C   C229  0.144776  0.920232  0.494936  -0.120212
    C   C230  0.355342  0.420251  0.505383  -0.134621
    C   C231  0.644776  0.420232  0.494936  -0.120087
    C   C232  0.845789  0.775911  0.743857  -0.124106
    C   C233  0.153878  0.776118  0.256376  -0.123949
    C   C234  0.345789  0.275911  0.743857  -0.124168
    C   C235  0.813377  0.244321  0.632932  0.630041
    C   C236  0.653878  0.276118  0.256376  -0.123915
    C   C237  0.881333  0.777526  0.816086  0.167584
    C   C238  0.118256  0.777756  0.184148  0.165898
    C   C239  0.381333  0.277526  0.816086  0.167632
    C   C240  0.618256  0.277756  0.184148  0.165874
    C   C241  0.927956  0.749670  0.853867  -0.485454
    C   C242  0.071837  0.749714  0.146407  -0.482135
    C   C243  0.427956  0.249670  0.853866  -0.485525
    C   C244  0.571837  0.249714  0.146407  -0.482147
    C   C245  0.939086  0.721743  0.818895  -0.003947
    C   C246  0.693328  0.685884  0.501714  0.544992
    C   C247  0.060948  0.721601  0.181419  -0.006662
    C   C248  0.439086  0.221743  0.818895  -0.003820
    C   C249  0.560948  0.221601  0.181419  -0.006669
    C   C250  0.903457  0.720344  0.746947  -0.070422
    C   C251  0.096635  0.720197  0.253367  -0.068342
    C   C252  0.403457  0.220344  0.746947  -0.070540
    C   C253  0.596635  0.220197  0.253367  -0.068322
    C   C254  0.856484  0.747296  0.709137  0.047854
    C   C255  0.143442  0.747311  0.291140  0.045851
    C   C256  0.356484  0.247296  0.709137  0.047929
    Cu  Cu1   0.784754  0.715320  0.500960  0.924125
    Cu  Cu2   0.465795  0.498270  0.430587  0.984237
    Cu  Cu3   0.034314  0.998284  0.569691  0.983763
    Cu  Cu4   0.965795  0.998270  0.430587  0.984179
    Cu  Cu5   0.215363  0.715300  0.499364  0.924407
    Cu  Cu6   0.284754  0.215320  0.500960  0.924142
    Cu  Cu7   0.715363  0.215300  0.499364  0.924381
    Cu  Cu8   0.720108  0.774088  0.499109  0.949087
    Cu  Cu9   0.279960  0.774075  0.501134  0.948381
    Cu  Cu10  0.220108  0.274088  0.499109  0.949086
    Cu  Cu11  0.779960  0.274075  0.501134  0.948365
    Cu  Cu12  0.534314  0.498284  0.569691  0.983810
    H   H1    0.540490  0.797048  0.147504  0.079793
    H   H2    0.072547  0.807324  0.428202  0.034492
    H   H3    0.876423  0.117817  0.398590  0.007383
    H   H4    0.518680  0.834813  0.216694  0.131052
    H   H5    0.558804  0.905366  0.296237  0.164931
    H   H6    0.671012  0.896617  0.383817  0.109640
    H   H7    0.481497  0.834805  0.783492  0.131231
    H   H8    0.441326  0.905358  0.703947  0.164726
    H   H9    0.329116  0.896598  0.616437  0.109870
    H   H10   0.018680  0.334813  0.216694  0.131044
    H   H11   0.058803  0.405366  0.296237  0.164938
    H   H12   0.171012  0.396617  0.383817  0.109627
    H   H13   0.427582  0.307349  0.572169  0.034512
    H   H14   0.981497  0.334805  0.783492  0.131227
    H   H15   0.941326  0.405358  0.703947  0.164723
    H   H16   0.829116  0.396598  0.616437  0.109877
    H   H17   0.924022  0.996154  0.580206  0.239823
    H   H18   0.953539  0.004103  0.707601  0.162329
    H   H19   0.909498  0.936398  0.725953  0.136930
    H   H20   0.076106  0.996135  0.420094  0.239560
    H   H21   0.046578  0.004059  0.292690  0.162434
    H   H22   0.090603  0.936336  0.274350  0.136467
    H   H23   0.424022  0.496154  0.580206  0.239811
    H   H24   0.572547  0.307324  0.428202  0.034518
    H   H25   0.453539  0.504103  0.707601  0.162331
    H   H26   0.409498  0.436398  0.725953  0.136923
    H   H27   0.576106  0.496135  0.420094  0.239532
    H   H28   0.546578  0.504059  0.292690  0.162475
    H   H29   0.590603  0.436336  0.274350  0.136422
    H   H30   0.758345  0.962676  0.482092  0.131788
    H   H31   0.708642  0.020132  0.378566  0.114205
    H   H32   0.768600  0.020339  0.330921  0.109554
    H   H33   0.241781  0.962646  0.518227  0.131777
    H   H34   0.291462  0.020131  0.621711  0.114757
    H   H35   0.908279  0.844467  0.611679  -0.009658
    H   H36   0.231483  0.020366  0.669330  0.109119
    H   H37   0.258345  0.462676  0.482092  0.131784
    H   H38   0.208642  0.520132  0.378566  0.114202
    H   H39   0.268600  0.520339  0.330921  0.109535
    H   H40   0.741781  0.462646  0.518227  0.131800
    H   H41   0.791462  0.520131  0.621711  0.114732
    H   H42   0.731483  0.520366  0.669330  0.109112
    H   H43   0.751216  0.894825  0.330787  0.095255
    H   H44   0.724336  0.922016  0.210936  0.179267
    H   H45   0.819520  0.921428  0.223481  0.123495
    H   H46   0.091845  0.844428  0.388671  -0.009273
    H   H47   0.248901  0.894844  0.669536  0.096027
    H   H48   0.275778  0.922060  0.789374  0.178985
    H   H49   0.180594  0.921470  0.776832  0.123620
    H   H50   0.251216  0.394825  0.330787  0.095285
    H   H51   0.224336  0.422016  0.210936  0.179248
    H   H52   0.319520  0.421428  0.223481  0.123481
    H   H53   0.748901  0.394844  0.669536  0.096020
    H   H54   0.775778  0.422060  0.789374  0.178984
    H   H55   0.680594  0.421470  0.776832  0.123607
    H   H56   0.776695  0.814504  0.781147  0.145292
    H   H57   0.408279  0.344467  0.611679  -0.009686
    H   H58   0.796196  0.876104  0.870064  0.150797
    H   H59   0.908324  0.881845  0.964114  0.097591
    H   H60   0.222539  0.815396  0.218938  0.145595
    H   H61   0.202435  0.877198  0.129997  0.150415
    H   H62   0.090250  0.882448  0.036069  0.097292
    H   H63   0.276695  0.314504  0.781147  0.145299
    H   H64   0.296196  0.376104  0.870064  0.150794
    H   H65   0.408324  0.381845  0.964114  0.097589
    H   H66   0.722539  0.315396  0.218938  0.145595
    H   H67   0.702435  0.377198  0.129997  0.150418
    H   H68   0.591845  0.344428  0.388671  -0.009233
    H   H69   0.590250  0.382448  0.036069  0.097290
    H   H70   0.739095  0.650743  0.724155  0.149385
    H   H71   0.850254  0.634843  0.793303  0.106495
    H   H72   0.864742  0.620259  0.697443  0.136130
    H   H73   0.260812  0.650403  0.275993  0.149049
    H   H74   0.149695  0.634420  0.207033  0.107122
    H   H75   0.135334  0.620058  0.303053  0.135348
    H   H76   0.239095  0.150743  0.724155  0.149402
    H   H77   0.350254  0.134843  0.793303  0.106461
    H   H78   0.364742  0.120259  0.697443  0.136209
    H   H79   0.967860  0.891763  0.611741  0.074546
    H   H80   0.760812  0.150403  0.275993  0.149055
    H   H81   0.649695  0.134420  0.207033  0.107126
    H   H82   0.635334  0.120058  0.303053  0.135349
    H   H83   0.707398  0.647280  0.224946  0.145729
    H   H84   0.673452  0.582088  0.136092  0.147498
    H   H85   0.562566  0.592536  0.037725  0.104318
    H   H86   0.292928  0.647217  0.775426  0.146069
    H   H87   0.326950  0.582019  0.864291  0.146909
    H   H88   0.437842  0.592497  0.962597  0.104320
    H   H89   0.207398  0.147280  0.224946  0.145726
    H   H90   0.032262  0.891732  0.388589  0.073566
    H   H91   0.173452  0.082088  0.136092  0.147499
    H   H92   0.062566  0.092536  0.037725  0.104313
    H   H93   0.792928  0.147217  0.775426  0.146072
    H   H94   0.826950  0.082019  0.864291  0.146904
    H   H95   0.937842  0.092497  0.962597  0.104333
    H   H96   0.467860  0.391763  0.611741  0.074530
    H   H97   0.459743  0.797037  0.852742  0.079290
    H   H98   0.532262  0.391732  0.388589  0.073575
    H   H99   0.972251  0.858152  0.555759  0.019974
    H   H100  0.027872  0.858135  0.444584  0.019667
    H   H101  0.472251  0.358152  0.555759  0.019949
    H   H102  0.527872  0.358135  0.444584  0.019660
    H   H103  0.872678  0.804425  0.446687  0.019638
    H   H104  0.127458  0.804420  0.553687  0.020586
    H   H105  0.372678  0.304425  0.446687  0.019797
    H   H106  0.627458  0.304420  0.553687  0.020577
    H   H107  0.913489  0.860135  0.438859  0.074515
    H   H108  0.040490  0.297048  0.147504  0.079803
    H   H109  0.086636  0.860136  0.561484  0.075679
    H   H110  0.413489  0.360135  0.438859  0.074471
    H   H111  0.586636  0.360136  0.561484  0.075669
    H   H112  0.777306  0.884286  0.436507  0.061563
    H   H113  0.222817  0.884273  0.563823  0.061820
    H   H114  0.277306  0.384286  0.436507  0.061567
    H   H115  0.722817  0.384273  0.563823  0.061939
    H   H116  0.802940  0.883318  0.524053  -0.023773
    H   H117  0.197177  0.883292  0.476274  -0.023837
    H   H118  0.302940  0.383318  0.524053  -0.023763
    H   H119  0.959743  0.297037  0.852742  0.079207
    H   H120  0.697177  0.383292  0.476274  -0.023732
    H   H121  0.803388  0.828558  0.389635  -0.105238
    H   H122  0.196744  0.828562  0.610724  -0.104380
    H   H123  0.303388  0.328558  0.389635  -0.104886
    H   H124  0.696744  0.328562  0.610724  -0.104385
    H   H125  0.810086  0.797972  0.714340  0.101228
    H   H126  0.189422  0.798319  0.285856  0.101906
    H   H127  0.310086  0.297972  0.714340  0.101267
    H   H128  0.689422  0.298319  0.285856  0.101878
    H   H129  0.975277  0.700003  0.847925  0.081365
    H   H130  0.681428  0.682754  0.288609  0.111235
    H   H131  0.024912  0.699719  0.152421  0.081912
    H   H132  0.475277  0.200003  0.847925  0.081337
    H   H133  0.524912  0.199719  0.152421  0.081910
    H   H134  0.913078  0.698151  0.720826  0.092214
    H   H135  0.087196  0.697859  0.279514  0.091993
    H   H136  0.413078  0.198151  0.720826  0.092238
    H   H137  0.587196  0.197859  0.279514  0.091987
    H   H138  0.708391  0.595879  0.510782  0.003860
    H   H139  0.291764  0.595875  0.489625  0.005533
    H   H140  0.208391  0.095879  0.510782  0.003844
    H   H141  0.318823  0.682719  0.711706  0.111649
    H   H142  0.791764  0.095875  0.489625  0.005537
    H   H143  0.653089  0.613690  0.423140  0.047345
    H   H144  0.347129  0.613739  0.577209  0.048414
    H   H145  0.153089  0.113690  0.423140  0.047349
    H   H146  0.847129  0.113739  0.577209  0.048424
    H   H147  0.590020  0.569431  0.413000  0.054136
    H   H148  0.410129  0.569447  0.587274  0.052913
    H   H149  0.090020  0.069431  0.413000  0.054129
    H   H150  0.910129  0.069447  0.587274  0.052914
    H   H151  0.647676  0.546077  0.496346  0.037290
    H   H152  0.181428  0.182754  0.288609  0.111242
    H   H153  0.352444  0.546090  0.503946  0.034916
    H   H154  0.147676  0.046077  0.496346  0.037311
    H   H155  0.852444  0.046090  0.503946  0.034951
    H   H156  0.673513  0.581343  0.605904  0.020657
    H   H157  0.326593  0.581294  0.394348  0.020130
    H   H158  0.173513  0.081343  0.605904  0.020631
    H   H159  0.826593  0.081294  0.394348  0.020134
    H   H160  0.588998  0.696932  0.466970  0.024279
    H   H161  0.411010  0.696953  0.533053  0.024966
    H   H162  0.088998  0.196932  0.466970  0.024272
    H   H163  0.818823  0.182719  0.711706  0.111643
    H   H164  0.911010  0.196953  0.533053  0.024965
    H   H165  0.580641  0.665134  0.398718  0.015260
    H   H166  0.419452  0.665235  0.601424  0.015805
    H   H167  0.080641  0.165134  0.398718  0.015256
    H   H168  0.919452  0.165235  0.601424  0.015803
    H   H169  0.522805  0.621562  0.405679  0.029272
    H   H170  0.477271  0.621612  0.594514  0.028856
    H   H171  0.022805  0.121562  0.405679  0.029272
    H   H172  0.977271  0.121612  0.594514  0.028854
    H   H173  0.543229  0.647193  0.485147  0.021687
    H   H174  0.927582  0.807349  0.572169  0.034520
    H   H175  0.456841  0.647197  0.515014  0.021228
    H   H176  0.043229  0.147193  0.485147  0.021691
    H   H177  0.956841  0.147197  0.515014  0.021223
    H   H178  0.660558  0.675857  0.587281  0.036038
    H   H179  0.339363  0.675812  0.412798  0.035134
    H   H180  0.160558  0.175857  0.587281  0.036064
    H   H181  0.839363  0.175812  0.412798  0.035136
    H   H182  0.623625  0.617825  0.601616  0.007866
    H   H183  0.376423  0.617817  0.398590  0.007387
    H   H184  0.123625  0.117825  0.601616  0.007860
    N   N1    0.556860  0.735908  0.034712  -0.372604
    N   N2    0.977249  0.747222  0.034147  -0.400182
    N   N3    0.522553  0.247508  0.966128  -0.400257
    N   N4    0.477249  0.247222  0.034147  -0.400198
    N   N5    0.056649  0.747635  0.035223  -0.348216
    N   N6    0.943151  0.747325  0.965050  -0.348083
    N   N7    0.556649  0.247635  0.035223  -0.348235
    N   N8    0.443151  0.247325  0.965050  -0.348083
    N   N9    0.522342  0.736176  0.965592  -0.412155
    N   N10   0.056860  0.235908  0.034712  -0.372546
    N   N11   0.022342  0.236176  0.965592  -0.412141
    N   N12   0.443414  0.735871  0.965568  -0.372806
    N   N13   0.477931  0.736149  0.034687  -0.411965
    N   N14   0.943414  0.235871  0.965568  -0.372820
    N   N15   0.977931  0.236149  0.034687  -0.411897
    N   N16   0.022553  0.747508  0.966128  -0.400253
    O   O1    0.833785  0.764438  0.518700  -0.630735
    O   O2    0.261751  0.727300  0.599524  -0.566034
    O   O3    0.238419  0.227317  0.400804  -0.565972
    O   O4    0.761751  0.227300  0.599524  -0.566014
    O   O5    0.666898  0.759921  0.399696  -0.560071
    O   O6    0.333229  0.759903  0.600540  -0.559810
    O   O7    0.166898  0.259921  0.399696  -0.560070
    O   O8    0.833229  0.259903  0.600540  -0.559783
    O   O9    0.725748  0.675404  0.483043  -0.589456
    O   O10   0.274353  0.675391  0.517221  -0.589641
    O   O11   0.225748  0.175404  0.483043  -0.589433
    O   O12   0.166342  0.764414  0.481671  -0.630792
    O   O13   0.774353  0.175391  0.517221  -0.589617
    O   O14   0.690201  0.725484  0.519675  -0.617474
    O   O15   0.309831  0.725475  0.480505  -0.618075
    O   O16   0.190201  0.225484  0.519675  -0.617463
    O   O17   0.809831  0.225475  0.480505  -0.618082
    O   O18   0.821179  0.712614  0.600871  -0.534388
    O   O19   0.178878  0.712595  0.399436  -0.535321
    O   O20   0.321179  0.212614  0.600871  -0.534403
    O   O21   0.678878  0.212595  0.399436  -0.535290
    O   O22   0.783395  0.779206  0.598753  -0.578751
    O   O23   0.333785  0.264438  0.518700  -0.630712
    O   O24   0.216622  0.779195  0.401510  -0.578445
    O   O25   0.283395  0.279206  0.598753  -0.578783
    O   O26   0.716622  0.279195  0.401510  -0.578367
    O   O27   0.075390  0.952713  0.560777  -0.523793
    O   O28   0.924724  0.952708  0.439523  -0.524941
    O   O29   0.575390  0.452713  0.560777  -0.523756
    O   O30   0.424724  0.452708  0.439523  -0.524923
    O   O31   0.016287  0.952456  0.440996  -0.604830
    O   O32   0.983827  0.952473  0.559304  -0.605298
    O   O33   0.516287  0.452456  0.440996  -0.604849
    O   O34   0.666342  0.264414  0.481671  -0.630801
    O   O35   0.483827  0.452473  0.559304  -0.605271
    O   O36   0.481564  0.541753  0.559444  -0.639136
    O   O37   0.518541  0.541735  0.440811  -0.639295
    O   O38   0.981564  0.041753  0.559444  -0.639119
    O   O39   0.018541  0.041735  0.440811  -0.639276
    O   O40   0.422406  0.541813  0.439219  -0.659190
    O   O41   0.577700  0.541817  0.561037  -0.659323
    O   O42   0.922406  0.041813  0.439219  -0.659169
    O   O43   0.077700  0.041817  0.561037  -0.659334
    O   O44   0.658540  0.836385  0.334166  0.000362
    O   O45   0.760090  0.813497  0.478994  -0.588197
    O   O46   0.341627  0.836364  0.666103  0.000489
    O   O47   0.158540  0.336385  0.334166  0.000280
    O   O48   0.841627  0.336364  0.666103  0.000523
    O   O49   0.877007  0.917859  0.623296  -0.095894
    O   O50   0.123101  0.917815  0.377017  -0.096271
    O   O51   0.377007  0.417859  0.623296  -0.095892
    O   O52   0.623101  0.417815  0.377017  -0.096418
    O   O53   0.821862  0.973707  0.409257  0.111299
    O   O54   0.178239  0.973713  0.591026  0.110474
    O   O55   0.321862  0.473707  0.409257  0.111324
    O   O56   0.240023  0.813477  0.521324  -0.587681
    O   O57   0.678239  0.473713  0.591026  0.110425
    O   O58   0.860456  0.899282  0.327011  -0.189681
    O   O59   0.139662  0.899302  0.673314  -0.190309
    O   O60   0.360456  0.399282  0.327011  -0.189650
    O   O61   0.639662  0.399302  0.673314  -0.190305
    O   O62   0.912972  0.831843  0.907657  -0.055856
    O   O63   0.086090  0.832187  0.092569  -0.056180
    O   O64   0.412972  0.331843  0.907657  -0.055850
    O   O65   0.586090  0.332187  0.092569  -0.056189
    O   O66   0.775628  0.631231  0.622751  -0.002418
    O   O67   0.260090  0.313497  0.478994  -0.588193
    O   O68   0.224435  0.631143  0.377617  -0.003441
    O   O69   0.275628  0.131231  0.622751  -0.002337
    O   O70   0.724435  0.131143  0.377617  -0.003453
    O   O71   0.570078  0.648552  0.093480  -0.040711
    O   O72   0.430267  0.648522  0.906821  -0.041199
    O   O73   0.070078  0.148552  0.093480  -0.040716
    O   O74   0.930267  0.148522  0.906821  -0.041156
    O   O75   0.740023  0.313477  0.521324  -0.587706
    O   O76   0.738419  0.727317  0.400804  -0.565949
