# generated using pymatgen
data_ZnH8C17NO4F
_symmetry_space_group_name_H-M   'P 1'
_cell_length_a   13.41420100
_cell_length_b   8.54160700
_cell_length_c   15.12939300
_cell_angle_alpha   90.00000000
_cell_angle_beta   90.98618900
_cell_angle_gamma   90.00000000
_symmetry_Int_Tables_number   1
_chemical_formula_structural   ZnH8C17NO4F
_chemical_formula_sum   'Zn2 H16 C34 N2 O8 F2'
_cell_volume   1733.25141695
_cell_formula_units_Z   2
loop_
 _symmetry_equiv_pos_site_id
 _symmetry_equiv_pos_as_xyz
  1  'x, y, z'
loop_
 _atom_site_type_symbol
 _atom_site_label
 _atom_site_symmetry_multiplicity
 _atom_site_fract_x
 _atom_site_fract_y
 _atom_site_fract_z
 _atom_site_occupancy
  Zn  Zn1  1  0.88864600  0.50011900  0.50256700  1
  Zn  Zn2  1  0.11057400  0.49967100  0.49552800  1
  H  H1  1  0.03677200  0.00044400  0.56156500  1
  H  H2  1  0.99151000  0.25138700  0.79804700  1
  H  H3  1  0.98828400  0.74881600  0.79771400  1
  H  H4  1  0.90357400  0.20305200  0.91986700  1
  H  H5  1  0.91012800  0.20430700  0.07995500  1
  H  H6  1  0.09523700  0.79707800  0.07822700  1
  H  H7  1  0.08862700  0.79573000  0.91814500  1
  H  H8  1  0.01039800  0.25110700  0.20029400  1
  H  H9  1  0.00723500  0.74851600  0.19995700  1
  H  H10  1  0.96366500  0.99944400  0.43674600  1
  H  H11  1  0.74560100  0.50092700  0.36623000  1
  H  H12  1  0.59252700  0.49972400  0.28601500  1
  H  H13  1  0.42268400  0.50080400  0.64457100  1
  H  H14  1  0.57542000  0.49755600  0.64844700  1
  H  H15  1  0.25421400  0.49936800  0.35607000  1
  H  H16  1  0.75290400  0.49886900  0.64346100  1
  C  C1  1  0.00824400  0.13960800  0.67379000  1
  C  C2  1  0.00887500  0.86051800  0.67361300  1
  C  C3  1  0.99538000  0.14048000  0.76405300  1
  C  C4  1  0.99631400  0.85932700  0.76386100  1
  C  C5  1  0.99465100  0.99970600  0.81013900  1
  C  C6  1  0.02143400  0.00020600  0.63081900  1
  C  C7  1  0.94709700  0.11459200  0.95386500  1
  C  C8  1  0.95125700  0.11569500  0.04503000  1
  C  C9  1  0.00362500  0.00127800  0.09084900  1
  C  C10  1  0.05162600  0.88541700  0.04422400  1
  C  C11  1  0.04745000  0.88428800  0.95306800  1
  C  C12  1  0.99506600  0.99866700  0.90724000  1
  C  C13  1  0.00265500  0.14059300  0.23419800  1
  C  C14  1  0.00363000  0.85938600  0.23400600  1
  C  C15  1  0.99066900  0.13942700  0.32450200  1
  C  C16  1  0.99131500  0.86012900  0.32433300  1
  C  C17  1  0.97854200  0.99963800  0.36740500  1
  C  C18  1  0.00419200  0.00021000  0.18794000  1
  C  C19  1  0.00534900  0.71852400  0.61984000  1
  C  C20  1  0.00510700  0.28177300  0.62014600  1
  C  C21  1  0.99440300  0.71766200  0.37783800  1
  C  C22  1  0.99416200  0.28166900  0.37813500  1
  C  C23  1  0.29370100  0.49942200  0.41891400  1
  C  C24  1  0.28879400  0.49978300  0.57298300  1
  C  C25  1  0.39108700  0.50004400  0.57892100  1
  C  C26  1  0.44752700  0.49952600  0.50309100  1
  C  C27  1  0.39711600  0.49930200  0.42228400  1
  C  C28  1  0.60777900  0.49884600  0.58404100  1
  C  C29  1  0.55196000  0.49946500  0.50564600  1
  C  C30  1  0.60313900  0.49989900  0.42712600  1
  C  C31  1  0.55218400  0.49961700  0.34725700  1
  C  C32  1  0.44971200  0.49912300  0.34468900  1
  C  C33  1  0.71045800  0.49933700  0.58209100  1
  C  C34  1  0.70610300  0.50041600  0.42790100  1
  N  N1  1  0.24129700  0.49953400  0.49391900  1
  N  N2  1  0.75801300  0.50022600  0.50474900  1
  O  O1  1  0.08879900  0.66928300  0.58573600  1
  O  O2  1  0.08865100  0.33048100  0.58596200  1
  O  O3  1  0.91759300  0.66387200  0.59555200  1
  O  O4  1  0.91746500  0.33669900  0.59576400  1
  O  O5  1  0.91062100  0.66887700  0.41188000  1
  O  O6  1  0.91048300  0.33096500  0.41209700  1
  O  O7  1  0.08222100  0.66262400  0.40213600  1
  O  O8  1  0.08208600  0.33639300  0.40234700  1
  F  F1  1  0.40118600  0.49872500  0.26536800  1
  F  F2  1  0.23599500  0.49970200  0.64849300  1
