# generated using pymatgen
data_Zn3H12C44(NO10)2
_symmetry_space_group_name_H-M   'P 1'
_cell_length_a   29.07463800
_cell_length_b   29.07467400
_cell_length_c   46.90445800
_cell_angle_alpha   90.00000000
_cell_angle_beta   90.00000000
_cell_angle_gamma   90.00000000
_symmetry_Int_Tables_number   1
_chemical_formula_structural   Zn3H12C44(NO10)2
_chemical_formula_sum   'Zn12 H48 C176 N8 O80'
_cell_volume   39650.00915540
_cell_formula_units_Z   4
loop_
 _symmetry_equiv_pos_site_id
 _symmetry_equiv_pos_as_xyz
  1  'x, y, z'
loop_
 _atom_site_type_symbol
 _atom_site_label
 _atom_site_symmetry_multiplicity
 _atom_site_fract_x
 _atom_site_fract_y
 _atom_site_fract_z
 _atom_site_occupancy
  Zn  Zn1  1  0.99992500  0.55210700  0.99993800  1
  Zn  Zn2  1  0.44789800  0.99991000  0.99995200  1
  Zn  Zn3  1  0.00016900  0.44791400  0.00005300  1
  Zn  Zn4  1  0.55209500  0.00019600  0.00006500  1
  Zn  Zn5  1  0.50015900  0.05208500  0.49993900  1
  Zn  Zn6  1  0.94789300  0.50003900  0.49995700  1
  Zn  Zn7  1  0.49992000  0.94788700  0.50005100  1
  Zn  Zn8  1  0.05208800  0.50005000  0.50003400  1
  Zn  Zn9  1  0.50001400  0.50001000  0.03231200  1
  Zn  Zn10  1  0.50008800  0.50010300  0.96771000  1
  Zn  Zn11  1  0.00004600  0.00004400  0.53229800  1
  Zn  Zn12  1  0.00003900  0.00005300  0.46769500  1
  H  H1  1  0.98204400  0.42961300  0.14255000  1
  H  H2  1  0.57064200  0.98314900  0.14258100  1
  H  H3  1  0.01800500  0.57187200  0.14277400  1
  H  H4  1  0.42781200  0.01672500  0.14279500  1
  H  H5  1  0.98548800  0.57114300  0.85741800  1
  H  H6  1  0.57240700  0.01578600  0.85725000  1
  H  H7  1  0.01448800  0.42730200  0.85723200  1
  H  H8  1  0.42906100  0.98437800  0.85745100  1
  H  H9  1  0.48454100  0.92904100  0.64254800  1
  H  H10  1  0.07047000  0.48172100  0.64253100  1
  H  H11  1  0.51596900  0.07238200  0.64275600  1
  H  H12  1  0.92823500  0.51777300  0.64279700  1
  H  H13  1  0.48297400  0.07065300  0.35742800  1
  H  H14  1  0.07253100  0.51470600  0.35720100  1
  H  H15  1  0.51653100  0.92781900  0.35720100  1
  H  H16  1  0.92867100  0.48579800  0.35745100  1
  H  H17  1  0.98276800  0.42939400  0.09070000  1
  H  H18  1  0.57088500  0.98393700  0.09073100  1
  H  H19  1  0.01729900  0.57251500  0.09092600  1
  H  H20  1  0.42721400  0.01616700  0.09094700  1
  H  H21  1  0.98628000  0.57137300  0.90926900  1
  H  H22  1  0.57301600  0.01494700  0.90909900  1
  H  H23  1  0.01379600  0.42674000  0.90907900  1
  H  H24  1  0.42885700  0.98511100  0.90930300  1
  H  H25  1  0.48527600  0.92884200  0.59069800  1
  H  H26  1  0.07067500  0.48254300  0.59067900  1
  H  H27  1  0.51512800  0.07299600  0.59090600  1
  H  H28  1  0.92757600  0.51717400  0.59095000  1
  H  H29  1  0.48374500  0.07088100  0.40927900  1
  H  H30  1  0.07317100  0.51391400  0.40904900  1
  H  H31  1  0.51595900  0.92720600  0.40904900  1
  H  H32  1  0.92851900  0.48650100  0.40930100  1
  H  H33  1  0.88496800  0.57331500  0.27928800  1
  H  H34  1  0.42934700  0.88244300  0.27900300  1
  H  H35  1  0.11557100  0.42727700  0.27890800  1
  H  H36  1  0.56982100  0.11653500  0.27916000  1
  H  H37  1  0.88094800  0.43212400  0.72096100  1
  H  H38  1  0.43009400  0.11740200  0.72107200  1
  H  H39  1  0.11829700  0.56695300  0.72082100  1
  H  H40  1  0.57057000  0.88340900  0.72067500  1
  H  H41  1  0.38349600  0.07048500  0.77931100  1
  H  H42  1  0.92676700  0.38410700  0.77907500  1
  H  H43  1  0.61744600  0.92993400  0.77894700  1
  H  H44  1  0.07280200  0.61471800  0.77911700  1
  H  H45  1  0.38237700  0.92946900  0.22094200  1
  H  H46  1  0.93267100  0.61912300  0.22106800  1
  H  H47  1  0.61651200  0.06986600  0.22090100  1
  H  H48  1  0.06750200  0.38178000  0.22070900  1
  C  C1  1  0.08992900  0.50110800  0.99993200  1
  C  C2  1  0.49888300  0.08993500  0.99993000  1
  C  C3  1  0.91017400  0.49891400  0.00006200  1
  C  C4  1  0.50111100  0.91018000  0.00008800  1
  C  C5  1  0.58992100  0.99891600  0.49997300  1
  C  C6  1  0.99910400  0.58992900  0.50001900  1
  C  C7  1  0.41016600  0.00105700  0.50001600  1
  C  C8  1  0.00087900  0.41016900  0.49997500  1
  C  C9  1  0.00006000  0.50109100  0.05583600  1
  C  C10  1  0.49892000  0.00009100  0.05585000  1
  C  C11  1  0.00002900  0.49893000  0.94415100  1
  C  C12  1  0.50107200  0.00001000  0.94416500  1
  C  C13  1  0.50015000  0.00106000  0.55583800  1
  C  C14  1  0.99896500  0.49993000  0.55583700  1
  C  C15  1  0.49992300  0.99891100  0.44415300  1
  C  C16  1  0.00101400  0.50015400  0.44415100  1
  C  C17  1  0.49979000  0.41011000  0.99939600  1
  C  C18  1  0.58999800  0.49971500  0.00061500  1
  C  C19  1  0.50031100  0.59000400  0.00062600  1
  C  C20  1  0.41010400  0.50039800  0.99940700  1
  C  C21  1  0.00007800  0.91010000  0.50055800  1
  C  C22  1  0.08999100  0.00017600  0.50055900  1
  C  C23  1  0.00000700  0.08999600  0.49943600  1
  C  C24  1  0.91009500  0.99991800  0.49943500  1
  C  C25  1  0.02730800  0.47029000  0.30922900  1
  C  C26  1  0.52893200  0.02708700  0.30930100  1
  C  C27  1  0.97347000  0.53028600  0.30933600  1
  C  C28  1  0.47035300  0.97171000  0.30928400  1
  C  C29  1  0.02787100  0.52827300  0.69069600  1
  C  C30  1  0.52969800  0.97293700  0.69065600  1
  C  C31  1  0.97119400  0.47095100  0.69070900  1
  C  C32  1  0.47092400  0.02810600  0.69076700  1
  C  C33  1  0.52813700  0.97076600  0.80923500  1
  C  C34  1  0.02985400  0.52627200  0.80927500  1
  C  C35  1  0.47298500  0.02955600  0.80934800  1
  C  C36  1  0.96986700  0.47242400  0.80929000  1
  C  C37  1  0.52706400  0.02905500  0.19072100  1
  C  C38  1  0.02873200  0.47222000  0.19064800  1
  C  C39  1  0.47167100  0.97049100  0.19070100  1
  C  C40  1  0.97140100  0.52888800  0.19075600  1
  C  C41  1  0.97220600  0.53029800  0.27971000  1
  C  C42  1  0.47031300  0.97067800  0.27965500  1
  C  C43  1  0.02836500  0.47036800  0.27960000  1
  C  C44  1  0.52884100  0.02830300  0.27967300  1
  C  C45  1  0.97013100  0.47096300  0.72033800  1
  C  C46  1  0.47106000  0.02918900  0.72039700  1
  C  C47  1  0.02911000  0.52812200  0.72032300  1
  C  C48  1  0.52965500  0.97164400  0.72028200  1
  C  C49  1  0.47171800  0.02954100  0.77972200  1
  C  C50  1  0.96981900  0.47133100  0.77966200  1
  C  C51  1  0.52924600  0.97092900  0.77960600  1
  C  C52  1  0.02974500  0.52749500  0.77964800  1
  C  C53  1  0.47061900  0.97042100  0.22033000  1
  C  C54  1  0.97154200  0.52995300  0.22038500  1
  C  C55  1  0.52826200  0.02893100  0.22034900  1
  C  C56  1  0.02870500  0.47097800  0.22027500  1
  C  C57  1  0.00024200  0.50036300  0.26478800  1
  C  C58  1  0.49954300  0.99953700  0.26479700  1
  C  C59  1  0.99966200  0.49951000  0.73519700  1
  C  C60  1  0.50038600  0.00036900  0.73520700  1
  C  C61  1  0.50044800  0.00027800  0.76479700  1
  C  C62  1  0.99974300  0.49944500  0.76478800  1
  C  C63  1  0.49947500  0.99963000  0.23520600  1
  C  C64  1  0.00016100  0.50042900  0.23519700  1
  C  C65  1  0.94365700  0.55998500  0.26474700  1
  C  C66  1  0.44129600  0.94153500  0.26462700  1
  C  C67  1  0.05680600  0.44072200  0.26452600  1
  C  C68  1  0.55779400  0.05753500  0.26466400  1
  C  C69  1  0.94029100  0.44266100  0.73536300  1
  C  C70  1  0.44211600  0.05834100  0.73547300  1
  C  C71  1  0.05903500  0.55635600  0.73533400  1
  C  C72  1  0.55864400  0.94238300  0.73524300  1
  C  C73  1  0.44248000  0.05855300  0.76476100  1
  C  C74  1  0.94011200  0.44286800  0.76465100  1
  C  C75  1  0.55840300  0.94199000  0.76453000  1
  C  C76  1  0.05937300  0.55602100  0.76462200  1
  C  C77  1  0.44146000  0.94139500  0.23533900  1
  C  C78  1  0.94330200  0.55978900  0.23545900  1
  C  C79  1  0.55749600  0.05785800  0.23537600  1
  C  C80  1  0.05700000  0.44104900  0.23523800  1
  C  C81  1  0.99027000  0.46094700  0.13124000  1
  C  C82  1  0.53918800  0.99087400  0.13126300  1
  C  C83  1  0.00977400  0.54063400  0.13136500  1
  C  C84  1  0.45919100  0.00906200  0.13138200  1
  C  C85  1  0.99220300  0.53945900  0.86873600  1
  C  C86  1  0.54091600  0.00853300  0.86864800  1
  C  C87  1  0.00780700  0.45891700  0.86863200  1
  C  C88  1  0.46064200  0.99160100  0.86876100  1
  C  C89  1  0.49177200  0.96062100  0.63124000  1
  C  C90  1  0.03914100  0.48999500  0.63122900  1
  C  C91  1  0.50871500  0.04089300  0.63135700  1
  C  C92  1  0.95946700  0.50955200  0.63137800  1
  C  C93  1  0.49068600  0.03919400  0.36874400  1
  C  C94  1  0.04093000  0.50801900  0.36861500  1
  C  C95  1  0.50886400  0.95919500  0.36861700  1
  C  C96  1  0.96037800  0.49246800  0.36875500  1
  C  C97  1  0.99060400  0.46094400  0.10185800  1
  C  C98  1  0.53920000  0.99124000  0.10188100  1
  C  C99  1  0.00945300  0.54087500  0.10198400  1
  C  C100  1  0.45897800  0.00882500  0.10200100  1
  C  C101  1  0.99256700  0.53947100  0.89811800  1
  C  C102  1  0.54114600  0.00814000  0.89802900  1
  C  C103  1  0.00749700  0.45871600  0.89801300  1
  C  C104  1  0.46064100  0.99193400  0.89814300  1
  C  C105  1  0.49210800  0.96062300  0.60185900  1
  C  C106  1  0.03913400  0.49038200  0.60184700  1
  C  C107  1  0.50832300  0.04112600  0.60197600  1
  C  C108  1  0.95921600  0.50928800  0.60199700  1
  C  C109  1  0.49104200  0.03919700  0.39812600  1
  C  C110  1  0.04117500  0.50765600  0.39799600  1
  C  C111  1  0.50861800  0.95897400  0.39799800  1
  C  C112  1  0.96041000  0.49278400  0.39813700  1
  C  C113  1  0.00003600  0.50096900  0.08706900  1
  C  C114  1  0.49903700  0.00005900  0.08708700  1
  C  C115  1  0.00003600  0.49904300  0.91291700  1
  C  C116  1  0.50095100  0.00002400  0.91293500  1
  C  C117  1  0.50020000  0.00093400  0.58706800  1
  C  C118  1  0.99910900  0.49986200  0.58707000  1
  C  C119  1  0.49985600  0.99903000  0.41291700  1
  C  C120  1  0.00086300  0.50020500  0.41291800  1
  C  C121  1  0.00002200  0.50072900  0.14613700  1
  C  C122  1  0.49923800  0.99992700  0.14615400  1
  C  C123  1  0.99998200  0.49923300  0.85384800  1
  C  C124  1  0.50072100  0.00008400  0.85386500  1
  C  C125  1  0.50025800  0.00069800  0.64613800  1
  C  C126  1  0.99936700  0.49973800  0.64613800  1
  C  C127  1  0.49974600  0.99924900  0.35384900  1
  C  C128  1  0.00058500  0.50025200  0.35384900  1
  C  C129  1  0.13927600  0.50102800  0.99987300  1
  C  C130  1  0.49895400  0.13928100  0.99986500  1
  C  C131  1  0.86082700  0.49899500  0.00012800  1
  C  C132  1  0.50104400  0.86083400  0.00015700  1
  C  C133  1  0.63926800  0.99901000  0.49993900  1
  C  C134  1  0.99929500  0.63927500  0.50005300  1
  C  C135  1  0.36081900  0.00096700  0.50004800  1
  C  C136  1  0.00069100  0.36082300  0.49994500  1
  C  C137  1  0.18072200  0.50095900  0.99981700  1
  C  C138  1  0.49904800  0.18072700  0.99980400  1
  C  C139  1  0.81938100  0.49907400  0.00018900  1
  C  C140  1  0.50096000  0.81938800  0.00021800  1
  C  C141  1  0.68071400  0.99912500  0.49989400  1
  C  C142  1  0.99945300  0.68072000  0.50009700  1
  C  C143  1  0.31937400  0.00086500  0.50009300  1
  C  C144  1  0.00054300  0.31937800  0.49990100  1
  C  C145  1  0.22929100  0.50087200  0.99974400  1
  C  C146  1  0.49918900  0.22929700  0.99972700  1
  C  C147  1  0.77081100  0.49917700  0.00026800  1
  C  C148  1  0.50083800  0.77081800  0.00029600  1
  C  C149  1  0.72928300  0.99928800  0.49982400  1
  C  C150  1  0.99963000  0.72928900  0.50016700  1
  C  C151  1  0.27080400  0.00072300  0.50016400  1
  C  C152  1  0.00038400  0.27080900  0.49983100  1
  C  C153  1  0.27074000  0.50078800  0.99967600  1
  C  C154  1  0.49932600  0.27074600  0.99965700  1
  C  C155  1  0.72936200  0.49927800  0.00034000  1
  C  C156  1  0.50072100  0.72936900  0.00036600  1
  C  C157  1  0.77073200  0.99943900  0.49975200  1
  C  C158  1  0.99976800  0.77073800  0.50024000  1
  C  C159  1  0.22935500  0.00059300  0.50023800  1
  C  C160  1  0.00026500  0.22936000  0.49975700  1
  C  C161  1  0.31931000  0.50067400  0.99958900  1
  C  C162  1  0.49949300  0.31931500  0.99957100  1
  C  C163  1  0.68079300  0.49941100  0.00043100  1
  C  C164  1  0.50057600  0.68079900  0.00045200  1
  C  C165  1  0.81930100  0.99962000  0.49965300  1
  C  C166  1  0.99990700  0.81930700  0.50033900  1
  C  C167  1  0.18078600  0.00043800  0.50033800  1
  C  C168  1  0.00014700  0.18079000  0.49965700  1
  C  C169  1  0.36075600  0.50056000  0.99950900  1
  C  C170  1  0.49963400  0.36076100  0.99949300  1
  C  C171  1  0.63934600  0.49954000  0.00051300  1
  C  C172  1  0.50045200  0.63935300  0.00052900  1
  C  C173  1  0.86074700  0.99976600  0.49955900  1
  C  C174  1  0.00000100  0.86075300  0.50043400  1
  C  C175  1  0.13933900  0.00031200  0.50043400  1
  C  C176  1  0.00006900  0.13934400  0.49956000  1
  N  N1  1  0.00044600  0.50027300  0.32340700  1
  N  N2  1  0.49967400  0.99935400  0.32341200  1
  N  N3  1  0.99948700  0.49964900  0.67657900  1
  N  N4  1  0.50029200  0.00057600  0.67658300  1
  N  N5  1  0.50060500  0.00013000  0.82342000  1
  N  N6  1  0.99990000  0.49931400  0.82340700  1
  N  N7  1  0.49932900  0.99982200  0.17659200  1
  N  N8  1  0.00004500  0.50060200  0.17657900  1
  O  O1  1  0.06863800  0.54084900  0.00048900  1
  O  O2  1  0.45914900  0.06862600  0.00049100  1
  O  O3  1  0.93146200  0.45918000  0.99927100  1
  O  O4  1  0.54083700  0.93148700  0.99929400  1
  O  O5  1  0.06849600  0.46141400  0.99942900  1
  O  O6  1  0.46141500  0.93159400  0.00081000  1
  O  O7  1  0.93160600  0.53860000  0.00078600  1
  O  O8  1  0.53858500  0.06852000  0.99943000  1
  O  O9  1  0.56849100  0.03860900  0.50049700  1
  O  O10  1  0.95931500  0.56872500  0.50056800  1
  O  O11  1  0.43159500  0.96137100  0.49926900  1
  O  O12  1  0.04065900  0.43137200  0.49919200  1
  O  O13  1  0.56862900  0.95917200  0.49943600  1
  O  O14  1  0.96124000  0.43168700  0.50073500  1
  O  O15  1  0.43145800  0.04079300  0.50078500  1
  O  O16  1  0.03874900  0.56841000  0.49948000  1
  O  O17  1  0.50091500  0.43159500  0.02399000  1
  O  O18  1  0.56878600  0.50089600  0.02528200  1
  O  O19  1  0.50134600  0.56877700  0.02529100  1
  O  O20  1  0.43160400  0.50136000  0.02399800  1
  O  O21  1  0.49919700  0.56851800  0.97603200  1
  O  O22  1  0.56849800  0.49874200  0.97602400  1
  O  O23  1  0.49874400  0.43133700  0.97473100  1
  O  O24  1  0.43131600  0.49922800  0.97473900  1
  O  O25  1  0.00121300  0.93128600  0.52523400  1
  O  O26  1  0.06880700  0.99901300  0.52523500  1
  O  O27  1  0.00109400  0.06847000  0.52401600  1
  O  O28  1  0.93162300  0.99886000  0.52401500  1
  O  O29  1  0.99888300  0.06881100  0.47475900  1
  O  O30  1  0.06846300  0.00122500  0.47597800  1
  O  O31  1  0.99898000  0.93162700  0.47597700  1
  O  O32  1  0.93127900  0.00109400  0.47475900  1
  O  O33  1  0.00123600  0.54079700  0.04256400  1
  O  O34  1  0.45921500  0.00122700  0.04257700  1
  O  O35  1  0.99893400  0.46146500  0.04244100  1
  O  O36  1  0.53854400  0.99899100  0.04245300  1
  O  O37  1  0.99920300  0.45921600  0.95742300  1
  O  O38  1  0.46143500  0.00077700  0.95755800  1
  O  O39  1  0.00082300  0.53856700  0.95754500  1
  O  O40  1  0.54079000  0.99922500  0.95743400  1
  O  O41  1  0.49931600  0.04077800  0.54257100  1
  O  O42  1  0.95925000  0.50121800  0.54258000  1
  O  O43  1  0.50090000  0.96142400  0.54244300  1
  O  O44  1  0.03857700  0.49874600  0.54242700  1
  O  O45  1  0.50110900  0.95920600  0.45742400  1
  O  O46  1  0.96139400  0.50100600  0.45756000  1
  O  O47  1  0.49884100  0.03853500  0.45755200  1
  O  O48  1  0.04074100  0.49921600  0.45740700  1
  O  O49  1  0.05209700  0.43968100  0.32421100  1
  O  O50  1  0.55885400  0.05260000  0.32434900  1
  O  O51  1  0.94878900  0.56085200  0.32442000  1
  O  O52  1  0.44049600  0.94610600  0.32432200  1
  O  O53  1  0.05402200  0.55765200  0.67565700  1
  O  O54  1  0.55973700  0.94760800  0.67557800  1
  O  O55  1  0.94495700  0.44164100  0.67567700  1
  O  O56  1  0.44084000  0.05354500  0.67579500  1
  O  O57  1  0.55355600  0.94066300  0.82420600  1
  O  O58  1  0.06047100  0.55098600  0.82429900  1
  O  O59  1  0.44765100  0.05958800  0.82442800  1
  O  O60  1  0.93932300  0.44765200  0.82433400  1
  O  O61  1  0.55259600  0.05898400  0.17569100  1
  O  O62  1  0.05805900  0.44608200  0.17556200  1
  O  O63  1  0.44606900  0.94065500  0.17564500  1
  O  O64  1  0.94202300  0.55512200  0.17577300  1
  O  O65  1  0.91476000  0.58976500  0.27843200  1
  O  O66  1  0.41221400  0.91185500  0.27824500  1
  O  O67  1  0.08575800  0.41086000  0.27809700  1
  O  O68  1  0.58694400  0.08712400  0.27830200  1
  O  O69  1  0.90993600  0.41428700  0.72174300  1
  O  O70  1  0.41295400  0.08800000  0.72190400  1
  O  O71  1  0.08931500  0.58479000  0.72169800  1
  O  O72  1  0.58773400  0.91279300  0.72155600  1
  O  O73  1  0.41288700  0.08764000  0.77844700  1
  O  O74  1  0.91033000  0.41391100  0.77828600  1
  O  O75  1  0.58803900  0.91280500  0.77810000  1
  O  O76  1  0.08923100  0.58491500  0.77824300  1
  O  O77  1  0.41178500  0.91233100  0.22170200  1
  O  O78  1  0.91485000  0.59012700  0.22188800  1
  O  O79  1  0.58711100  0.08700400  0.22175700  1
  O  O80  1  0.08535700  0.41075300  0.22155400  1
