# Generated by REPEAT Assigner based on pymatgen
data_DB0-m29_o90_o46_f0_pts.sym.45
_audit_creation_date              2022-05-24
_audit_creation_method            REPEAT_Assigner
_cell_length_a                    10.227040
_cell_length_b                    15.439112
_cell_length_c                    13.190549
_cell_angle_alpha                 103.037871
_cell_angle_beta                  82.998335
_cell_angle_gamma                 78.110054
_cell_volume                      1954.301790
_symmetry_space_group_name_H-M    P1
_symmetry_Int_Tables_number       1
loop_
    _symmetry_equiv_pos_site_id
    _symmetry_equiv_pos_as_xyz
    1  x,y,z
loop_
    _atom_site_type_symbol
    _atom_site_label
    _atom_site_fract_x
    _atom_site_fract_y
    _atom_site_fract_z
    _atom_type_partial_charge
    C   C1   0.823747  0.018016  0.081605  0.014043
    C   C2   0.759960  0.021631  0.995718  -0.151403
    H   H1   0.651243  0.030983  0.004274  0.146083
    C   C3   0.833197  0.996088  0.895264  0.089601
    C   C4   0.972274  0.970729  0.880032  -0.222102
    H   H2   0.025499  0.941190  0.799980  0.153795
    C   C5   0.039899  0.980901  0.965709  0.108690
    C   C6   0.965456  0.005124  0.068626  0.070360
    C   C7   0.034340  0.018127  0.154811  -0.138256
    C   C8   0.174807  0.989369  0.136972  0.096446
    H   H3   0.354862  0.945051  0.026386  0.170989
    C   C9   0.245675  0.959003  0.035566  -0.173612
    C   C10  0.181306  0.963968  0.950170  0.013144
    O   O1   0.606553  0.045126  0.190508  -0.593937
    C   C11  0.738189  0.010928  0.176348  0.563431
    O   O2   0.635041  0.816769  0.207529  -0.486915
    O   O3   0.786724  0.954405  0.230848  -0.460992
    O   O4   0.570531  0.915334  0.370610  -0.529010
    C   C12  0.634048  0.834066  0.309755  0.540433
    Fe  Fe1  0.493550  0.008105  0.298158  1.468064
    O   O5   0.362518  0.948141  0.224198  -0.590189
    O   O6   0.243121  0.096431  0.268757  -0.499806
    C   C13  0.255255  0.010395  0.220008  0.556929
    O   O7   0.424877  0.127324  0.409079  -0.639734
    O   O8   0.317828  0.041732  0.494408  -0.518920
    C   C14  0.349597  0.119709  0.493203  0.729288
    O   O9   0.577737  0.858068  0.629741  -0.641440
    O   O10  0.685168  0.939753  0.538989  -0.494731
    C   C15  0.650091  0.863295  0.543107  0.749088
    O   O11  0.646764  0.038324  0.809253  -0.655478
    O   O12  0.785153  0.895317  0.746378  -0.526384
    C   C16  0.760023  0.978827  0.807202  0.669443
    O   O13  0.217635  0.000487  0.779796  -0.492355
    O   O14  0.437824  0.070709  0.663686  -0.551202
    C   C17  0.356627  0.146014  0.726145  0.608170
    O   O15  0.399542  0.945687  0.848963  -0.601348
    C   C18  0.267933  0.963642  0.851385  0.570426
    O   O16  0.332477  0.152499  0.827924  -0.438681
    Fe  Fe2  0.512975  0.979049  0.738173  1.471426
    C   C19  0.278650  0.203720  0.573533  -0.089703
    C   C20  0.206747  0.271279  0.535127  0.088508
    H   H4   0.203574  0.256455  0.451589  0.078250
    C   C21  0.138014  0.354895  0.600862  -0.441840
    C   C22  0.146919  0.372468  0.706660  0.139353
    H   H5   0.099578  0.439330  0.758949  -0.002383
    C   C23  0.222154  0.306952  0.746819  -0.049669
    C   C24  0.285586  0.219474  0.681495  0.012086
    N   N1   0.995357  0.507541  0.620589  -0.235861
    N   N2   0.927227  0.570522  0.580800  -0.277331
    C   C25  0.922665  0.552727  0.476722  0.814705
    N   N3   0.987844  0.469970  0.413256  -0.268072
    N   N4   0.056046  0.406930  0.453070  -0.261550
    C   C26  0.060955  0.424920  0.557157  0.784515
    C   C27  0.843924  0.609389  0.326766  0.166233
    H   H6   0.894149  0.544154  0.272099  0.004109
    C   C28  0.774637  0.678326  0.288318  -0.194969
    H   H7   0.772478  0.664191  0.204591  0.138144
    C   C29  0.709092  0.763496  0.355176  0.110347
    C   C30  0.715323  0.778018  0.462853  -0.123449
    C   C31  0.782578  0.708119  0.500264  0.112023
    H   H8   0.785205  0.721531  0.583837  0.093935
    C   C32  0.848262  0.624051  0.433389  -0.480392
    C   C33  0.964692  0.072589  0.261554  0.197460
    C   C34  0.889625  0.161194  0.275938  -0.146055
    C   C35  0.825744  0.213408  0.375666  -0.235520
    C   C36  0.836803  0.177459  0.461923  0.301513
    C   C37  0.768265  0.233068  0.569995  -0.329747
    C   C38  0.912173  0.089308  0.448034  -0.243027
    C   C39  0.976274  0.037092  0.348396  -0.043999
    H   H9   0.881564  0.190365  0.209095  0.107256
    H   H10  0.767505  0.282567  0.385462  0.144309
    H   H11  0.712364  0.301887  0.567275  0.071226
    H   H12  0.845424  0.240715  0.621445  0.099104
    H   H13  0.695761  0.197896  0.603153  0.114097
    H   H14  0.921017  0.060909  0.515385  0.165493
    H   H15  0.033929  0.967740  0.338445  0.120381
    C   C40  0.241119  0.336652  0.856558  0.069176
    C   C41  0.130209  0.367991  0.937498  0.036441
    C   C42  0.147510  0.399105  0.040356  -0.394410
    C   C43  0.275795  0.400183  0.062543  0.366380
    C   C44  0.295921  0.433989  0.173115  -0.376724
    C   C45  0.386360  0.370374  0.981551  -0.224881
    C   C46  0.369099  0.339181  0.878767  -0.118314
    H   H16  0.029473  0.367546  0.920648  0.072482
    H   H17  0.059878  0.422721  0.103008  0.191838
    H   H18  0.197314  0.455870  0.228094  0.115166
    H   H19  0.343006  0.493100  0.178478  0.084127
    H   H20  0.363836  0.378391  0.195822  0.113663
    H   H21  0.486780  0.371873  0.998504  0.137365
    H   H22  0.456068  0.317139  0.815544  0.104858
