# generated using pymatgen
data_Zn6H74C109O25
_symmetry_space_group_name_H-M   'P 1'
_cell_length_a   21.87347700
_cell_length_b   21.87150100
_cell_length_c   22.21601100
_cell_angle_alpha   119.47932600
_cell_angle_beta   119.48762200
_cell_angle_gamma   90.01049800
_symmetry_Int_Tables_number   1
_chemical_formula_structural   Zn6H74C109O25
_chemical_formula_sum   'Zn6 H74 C109 O25'
_cell_volume   7630.50169741
_cell_formula_units_Z   1
loop_
 _symmetry_equiv_pos_site_id
 _symmetry_equiv_pos_as_xyz
  1  'x, y, z'
loop_
 _atom_site_type_symbol
 _atom_site_label
 _atom_site_symmetry_multiplicity
 _atom_site_fract_x
 _atom_site_fract_y
 _atom_site_fract_z
 _atom_site_occupancy
  Zn  Zn1  1  0.42674600  0.99906200  0.50108100  1
  Zn  Zn2  1  0.56472500  0.99977100  0.49997600  1
  Zn  Zn3  1  0.00472900  0.57228400  0.49821900  1
  Zn  Zn4  1  0.00675200  0.43623300  0.50321000  1
  Zn  Zn5  1  0.55200100  0.54513000  0.59407600  1
  Zn  Zn6  1  0.45772700  0.45240000  0.40453500  1
  H  H1  1  0.69915100  0.29988600  0.08240600  1
  H  H2  1  0.78756000  0.28150500  0.93269300  1
  H  H3  1  0.70865300  0.30910500  0.92535900  1
  H  H4  1  0.76797500  0.37680300  0.06782800  1
  H  H5  1  0.85094200  0.36241500  0.07238800  1
  H  H6  1  0.74654500  0.11894300  0.93191300  1
  H  H7  1  0.80235400  0.16875800  0.92168300  1
  H  H8  1  0.83012000  0.19226000  0.07235300  1
  H  H9  1  0.64562300  0.15142500  0.93670300  1
  H  H10  1  0.72071200  0.21834000  0.07475200  1
  H  H11  1  0.88026300  0.24830200  0.06233700  1
  H  H12  1  0.50425300  0.29225100  0.81907100  1
  H  H13  1  0.38914300  0.22063600  0.67771700  1
  H  H14  1  0.38825800  0.20169800  0.55873500  1
  H  H15  1  0.61878800  0.32346200  0.72206500  1
  H  H16  1  0.61902900  0.34402700  0.84133900  1
  H  H17  1  0.51403800  0.36548000  0.61169500  1
  H  H18  1  0.48512300  0.12791300  0.38319300  1
  H  H19  1  0.37561200  0.14796600  0.27083700  1
  H  H20  1  0.35839000  0.12567400  0.14313100  1
  H  H21  1  0.45557300  0.19384700  0.15241300  1
  H  H22  1  0.57076200  0.28357700  0.28991200  1
  H  H23  1  0.58848900  0.30508000  0.41731900  1
  H  H24  1  0.15487100  0.63534300  0.92288500  1
  H  H25  1  0.23516600  0.69811600  0.06341200  1
  H  H26  1  0.37744000  0.79758300  0.06877700  1
  H  H27  1  0.35271200  0.72303900  0.07499500  1
  H  H28  1  0.27398800  0.64633800  0.93409000  1
  H  H29  1  0.30940900  0.71624400  0.92796900  1
  H  H30  1  0.22296400  0.86943000  0.06709300  1
  H  H31  1  0.30923600  0.88942300  0.07779300  1
  H  H32  1  0.16507100  0.80807500  0.92686900  1
  H  H33  1  0.18626300  0.76528800  0.07261000  1
  H  H34  1  0.11566800  0.70967500  0.93229400  1
  H  H35  1  0.25249500  0.81630200  0.93730700  1
  H  H36  1  0.16627100  0.73390200  0.22740400  1
  H  H37  1  0.18556700  0.72188500  0.33940100  1
  H  H38  1  0.30895900  0.73066100  0.44171100  1
  H  H39  1  0.39410900  0.76261800  0.31930500  1
  H  H40  1  0.27042100  0.75369800  0.21724700  1
  H  H41  1  0.38907700  0.64279500  0.41099400  1
  H  H42  1  0.61300300  0.85545900  0.58957900  1
  H  H43  1  0.66100800  0.84345100  0.72006100  1
  H  H44  1  0.78599800  0.84657100  0.81222300  1
  H  H45  1  0.83870800  0.75359300  0.75319300  1
  H  H46  1  0.76676900  0.65832100  0.60177500  1
  H  H47  1  0.64118000  0.65402400  0.50911200  1
  H  H48  1  0.73324700  0.54137700  0.21064300  1
  H  H49  1  0.71786400  0.63527500  0.31886200  1
  H  H50  1  0.72815100  0.61912100  0.42484400  1
  H  H51  1  0.76891700  0.41442800  0.31421000  1
  H  H52  1  0.75805700  0.43110300  0.20810800  1
  H  H53  1  0.64347900  0.50791300  0.39768000  1
  H  H54  1  0.86663200  0.49252500  0.60010000  1
  H  H55  1  0.85800300  0.59512400  0.72454000  1
  H  H56  1  0.87265800  0.59432000  0.84091000  1
  H  H57  1  0.78750000  0.49539700  0.81254000  1
  H  H58  1  0.68818500  0.39636200  0.66707100  1
  H  H59  1  0.67420500  0.39645900  0.55079700  1
  H  H60  1  0.27307900  0.83431700  0.78108800  1
  H  H61  1  0.28439800  0.81764700  0.66956600  1
  H  H62  1  0.27526800  0.69519900  0.56527000  1
  H  H63  1  0.24379200  0.60559900  0.68437800  1
  H  H64  1  0.25353000  0.72846600  0.78874000  1
  H  H65  1  0.36280500  0.61416900  0.59225000  1
  H  H66  1  0.15011500  0.38997100  0.41259500  1
  H  H67  1  0.16083200  0.34603900  0.28080500  1
  H  H68  1  0.15519700  0.22098500  0.18541200  1
  H  H69  1  0.24602600  0.16497000  0.24091500  1
  H  H70  1  0.34211000  0.23394200  0.39204300  1
  H  H71  1  0.34924900  0.35974600  0.48771500  1
  H  H72  1  0.56671400  0.22372600  0.94985800  1
  H  H73  1  0.56339700  0.20389900  0.85987300  1
  H  H74  1  0.58869500  0.32935400  0.98471300  1
  C  C1  1  0.49689400  0.11999000  0.50243600  1
  C  C2  1  0.57958300  0.08018500  0.66444900  1
  C  C3  1  0.49444000  0.87861200  0.49835000  1
  C  C4  1  0.41199100  0.91895200  0.33664200  1
  C  C5  1  0.66717200  0.20912700  0.95814500  1
  C  C6  1  0.74938700  0.28504400  0.95262000  1
  C  C7  1  0.79378800  0.33424100  0.04733200  1
  C  C8  1  0.88332600  0.37305800  0.24713000  1
  C  C9  1  0.71155800  0.20787900  0.92178400  1
  C  C10  1  0.71885500  0.25483000  0.05308300  1
  C  C11  1  0.79610000  0.28720700  0.08013500  1
  C  C12  1  0.82499900  0.22480900  0.04544400  1
  C  C13  1  0.77168800  0.17457100  0.95076200  1
  C  C14  1  0.84471500  0.33377600  0.17166500  1
  C  C15  1  0.66387200  0.16201300  0.83000300  1
  C  C16  1  0.62504500  0.12458000  0.75444500  1
  C  C17  1  0.43979400  0.24242400  0.68728400  1
  C  C18  1  0.43947500  0.23133500  0.62047400  1
  C  C19  1  0.50406100  0.25915900  0.63252600  1
  C  C20  1  0.56851900  0.29998800  0.71205300  1
  C  C21  1  0.56870200  0.31146100  0.77897000  1
  C  C22  1  0.50439600  0.28256200  0.76655600  1
  C  C23  1  0.50853600  0.31377400  0.56132600  1
  C  C24  1  0.50270300  0.30922700  0.49429300  1
  C  C25  1  0.49239600  0.24098900  0.42835800  1
  C  C26  1  0.49078400  0.18035000  0.43288200  1
  C  C27  1  0.49521500  0.18510400  0.49911900  1
  C  C28  1  0.50236100  0.25190100  0.56275700  1
  C  C29  1  0.41858600  0.17806500  0.27538000  1
  C  C30  1  0.40879400  0.16553200  0.20355600  1
  C  C31  1  0.46323000  0.20372600  0.20874200  1
  C  C32  1  0.52769800  0.25406400  0.28577100  1
  C  C33  1  0.53749700  0.26655100  0.35757500  1
  C  C34  1  0.48247900  0.22951300  0.35284400  1
  C  C35  1  0.21738700  0.73753700  0.04581700  1
  C  C36  1  0.33054600  0.75586800  0.04858600  1
  C  C37  1  0.28209900  0.70479500  0.95384500  1
  C  C38  1  0.12667100  0.63463300  0.75435600  1
  C  C39  1  0.28490000  0.79478700  0.07957000  1
  C  C40  1  0.16796700  0.69579900  0.95126100  1
  C  C41  1  0.20763900  0.71768900  0.92148200  1
  C  C42  1  0.21936800  0.79898600  0.95452000  1
  C  C43  1  0.26025300  0.84451000  0.04906500  1
  C  C44  1  0.16301000  0.67260600  0.82984900  1
  C  C45  1  0.32981100  0.83930700  0.17122400  1
  C  C46  1  0.36710800  0.87569800  0.24673100  1
  C  C47  1  0.23154300  0.73130500  0.33537900  1
  C  C48  1  0.30089600  0.73618600  0.39276500  1
  C  C49  1  0.35997700  0.74898000  0.38842000  1
  C  C50  1  0.34874600  0.75479500  0.32479600  1
  C  C51  1  0.27922500  0.74942500  0.26713600  1
  C  C52  1  0.22072400  0.73806100  0.27264400  1
  C  C53  1  0.43831700  0.68989600  0.45084100  1
  C  C54  1  0.50556300  0.68753000  0.50362100  1
  C  C55  1  0.56880500  0.74773300  0.55417300  1
  C  C56  1  0.56349400  0.80890700  0.55062400  1
  C  C57  1  0.49614000  0.81154000  0.49825700  1
  C  C58  1  0.43279000  0.75137600  0.44794500  1
  C  C59  1  0.68377300  0.80225200  0.69383600  1
  C  C60  1  0.75396400  0.80404100  0.74567900  1
  C  C61  1  0.78349900  0.75194300  0.71263400  1
  C  C62  1  0.74292200  0.69821600  0.62768900  1
  C  C63  1  0.67235000  0.69580200  0.57583500  1
  C  C64  1  0.64230300  0.74752600  0.60894900  1
  C  C65  1  0.88336500  0.50073800  0.49516100  1
  C  C66  1  0.92767900  0.42013100  0.33696900  1
  C  C67  1  0.12807000  0.50770400  0.50612500  1
  C  C68  1  0.08384500  0.58824000  0.66451000  1
  C  C69  1  0.62633000  0.49990900  0.50272700  1
  C  C70  1  0.50332200  0.37637300  0.49415200  1
  C  C71  1  0.38365400  0.49672500  0.49623700  1
  C  C72  1  0.50722300  0.62081200  0.50410500  1
  C  C73  1  0.72946200  0.58696400  0.31814000  1
  C  C74  1  0.73517800  0.57774200  0.37756500  1
  C  C75  1  0.75071100  0.51651000  0.37748500  1
  C  C76  1  0.75873100  0.46354800  0.31623400  1
  C  C77  1  0.75235800  0.47260900  0.25639400  1
  C  C78  1  0.73812500  0.53440600  0.25757000  1
  C  C79  1  0.69237300  0.50400300  0.44205000  1
  C  C80  1  0.69297600  0.49907600  0.50191800  1
  C  C81  1  0.75711200  0.49694000  0.56086100  1
  C  C82  1  0.81729500  0.49564400  0.55534100  1
  C  C83  1  0.81650800  0.50042700  0.49536700  1
  C  C84  1  0.75405400  0.50675300  0.43956800  1
  C  C85  1  0.82065300  0.55117400  0.71152900  1
  C  C86  1  0.82882300  0.55093800  0.77703200  1
  C  C87  1  0.78110100  0.49553500  0.76116400  1
  C  C88  1  0.72544100  0.44011600  0.67970000  1
  C  C89  1  0.71734800  0.44031600  0.61422900  1
  C  C90  1  0.76428100  0.49633400  0.62980800  1
  C  C91  1  0.27501200  0.77090300  0.67243000  1
  C  C92  1  0.26993000  0.70207100  0.61392000  1
  C  C93  1  0.25719400  0.64201500  0.61679200  1
  C  C94  1  0.25152200  0.65171900  0.67999300  1
  C  C95  1  0.25730800  0.72076700  0.73892300  1
  C  C96  1  0.26862300  0.78024700  0.73488700  1
  C  C97  1  0.31572000  0.56486300  0.55217200  1
  C  C98  1  0.31746000  0.49803600  0.49778700  1
  C  C99  1  0.25718500  0.43474700  0.44684400  1
  C  C100  1  0.19676800  0.43947200  0.45184200  1
  C  C101  1  0.19483000  0.50633800  0.50579100  1
  C  C102  1  0.25476600  0.56980500  0.55620900  1
  C  C103  1  0.20132600  0.32193000  0.30540500  1
  C  C104  1  0.19808900  0.25170100  0.25177700  1
  C  C105  1  0.24902700  0.22033300  0.28286400  1
  C  C106  1  0.30320300  0.25922700  0.36758900  1
  C  C107  1  0.30720100  0.32991600  0.42118400  1
  C  C108  1  0.25645100  0.36164700  0.39008300  1
  C  C109  1  0.59958500  0.23505100  0.92910900  1
  O  O1  1  0.44355500  0.08989700  0.50061100  1
  O  O2  1  0.55011300  0.09228900  0.50261800  1
  O  O3  1  0.50729200  0.05881200  0.62560700  1
  O  O4  1  0.61267400  0.06325400  0.62534100  1
  O  O5  1  0.44068500  0.90587000  0.49712500  1
  O  O6  1  0.54821100  0.90938200  0.50125700  1
  O  O7  1  0.37875400  0.93636100  0.37567200  1
  O  O8  1  0.48424800  0.93946800  0.37546700  1
  O  O9  1  0.91090800  0.55194400  0.49239800  1
  O  O10  1  0.91457000  0.45102900  0.50132000  1
  O  O11  1  0.94709500  0.49218200  0.37373600  1
  O  O12  1  0.94509800  0.38872700  0.37792200  1
  O  O13  1  0.09768300  0.55832200  0.50149600  1
  O  O14  1  0.09980600  0.45582600  0.50749300  1
  O  O15  1  0.06543300  0.61977800  0.62354400  1
  O  O16  1  0.06531900  0.51627700  0.62771000  1
  O  O17  1  0.63394400  0.53724400  0.57496500  1
  O  O18  1  0.56140900  0.46404000  0.43037200  1
  O  O19  1  0.53991200  0.44101700  0.56685100  1
  O  O20  1  0.46549600  0.36969700  0.42243200  1
  O  O21  1  0.44847100  0.53464400  0.56835100  1
  O  O22  1  0.37582600  0.45946800  0.42378100  1
  O  O23  1  0.54506700  0.62785000  0.57613600  1
  O  O24  1  0.46864000  0.55638100  0.43157200  1
  O  O25  1  0.62015100  0.31084800  0.96390900  1
