# generated using pymatgen
data_ZnH12C17NO4
_symmetry_space_group_name_H-M   'P 1'
_cell_length_a   6.59347900
_cell_length_b   12.36374100
_cell_length_c   14.29152300
_cell_angle_alpha   89.89857800
_cell_angle_beta   89.93107500
_cell_angle_gamma   80.32487900
_symmetry_Int_Tables_number   1
_chemical_formula_structural   ZnH12C17NO4
_chemical_formula_sum   'Zn2 H24 C34 N2 O8'
_cell_volume   1148.47263705
_cell_formula_units_Z   2
loop_
 _symmetry_equiv_pos_site_id
 _symmetry_equiv_pos_as_xyz
  1  'x, y, z'
loop_
 _atom_site_type_symbol
 _atom_site_label
 _atom_site_symmetry_multiplicity
 _atom_site_fract_x
 _atom_site_fract_y
 _atom_site_fract_z
 _atom_site_occupancy
  Zn  Zn1  1  0.52153300  0.50343700  0.10184600  1
  Zn  Zn2  1  0.49545300  0.49732400  0.89344000  1
  H  H1  1  0.47763000  0.15321900  0.05266300  1
  H  H2  1  0.61337400  0.22231600  0.94979900  1
  H  H3  1  0.48470000  0.04754700  0.93846700  1
  H  H4  1  0.53818700  0.85389200  0.95187300  1
  H  H5  1  0.35817500  0.98040100  0.04652900  1
  H  H6  1  0.26708900  0.84556800  0.02238900  1
  H  H7  1  0.75468200  0.34198600  0.44460000  1
  H  H8  1  0.38657000  0.33217200  0.54565600  1
  H  H9  1  0.17911800  0.49450700  0.42206400  1
  H  H10  1  0.51463700  0.79327400  0.55363900  1
  H  H11  1  0.77337400  0.72203300  0.57593000  1
  H  H12  1  0.73103700  0.83982100  0.49847200  1
  H  H13  1  0.80620300  0.66739600  0.40804900  1
  H  H14  1  0.54601600  0.73596900  0.38737700  1
  H  H15  1  0.28333100  0.79189400  0.45142000  1
  H  H16  1  0.08067900  0.71394800  0.42596800  1
  H  H17  1  0.03547900  0.82764200  0.50738100  1
  H  H18  1  0.08968300  0.65142500  0.59249200  1
  H  H19  1  0.29781800  0.72564600  0.61508800  1
  H  H20  1  0.83720600  0.38575800  0.68788400  1
  H  H21  1  0.97855200  0.33041100  0.58511900  1
  H  H22  1  0.10319300  0.40198800  0.67280200  1
  H  H23  1  0.00584200  0.51945600  0.53351100  1
  H  H24  1  0.86471100  0.57447100  0.63609300  1
  C  C1  1  0.18964300  0.24834500  0.01482700  1
  C  C2  1  0.31917200  0.15174500  0.03440300  1
  C  C3  1  0.25035500  0.05298300  0.02952500  1
  C  C4  1  0.98647100  0.24650000  0.99269900  1
  C  C5  1  0.91819000  0.14695300  0.98596000  1
  C  C6  1  0.04971400  0.04938800  0.00317000  1
  C  C7  1  0.97709000  0.95032900  0.99597700  1
  C  C8  1  0.10517000  0.85082500  0.00959200  1
  C  C9  1  0.03157000  0.75331400  0.00250800  1
  C  C10  1  0.71552000  0.14592400  0.96332800  1
  C  C11  1  0.64343400  0.04792100  0.95694800  1
  C  C12  1  0.77376700  0.95032100  0.97309800  1
  C  C13  1  0.69918800  0.85268700  0.96686800  1
  C  C14  1  0.82701800  0.75373300  0.98170700  1
  C  C15  1  0.27971000  0.34794000  0.00908800  1
  C  C16  1  0.83302400  0.34674700  0.99247500  1
  C  C17  1  0.73566800  0.65390700  0.98644600  1
  C  C18  1  0.18296300  0.65295200  0.00272800  1
  C  C19  1  0.37577400  0.58480000  0.52516900  1
  C  C20  1  0.57230700  0.59011500  0.47264400  1
  C  C21  1  0.32590500  0.49670200  0.45918600  1
  C  C22  1  0.52494100  0.50184900  0.40769800  1
  C  C23  1  0.44231400  0.40775400  0.52271900  1
  C  C24  1  0.49011500  0.49684400  0.58751700  1
  C  C25  1  0.64155200  0.41279900  0.46943800  1
  C  C26  1  0.68624200  0.50206700  0.53526800  1
  C  C27  1  0.53443100  0.50481600  0.30546500  1
  C  C28  1  0.48201600  0.49516600  0.68980400  1
  C  C29  1  0.65222300  0.69189000  0.44020000  1
  C  C30  1  0.66897700  0.76660400  0.52263800  1
  C  C31  1  0.22348700  0.68147600  0.56097900  1
  C  C32  1  0.15094000  0.75877500  0.48102400  1
  C  C33  1  0.88726900  0.50610400  0.58499200  1
  C  C34  1  0.95616300  0.39889500  0.63611900  1
  N  N1  1  0.53676400  0.50630500  0.22452500  1
  N  N2  1  0.48046600  0.49443600  0.77075700  1
  O  O1  1  0.32874200  0.37993100  0.92565200  1
  O  O2  1  0.34124300  0.38818600  0.08690400  1
  O  O3  1  0.76255900  0.38455800  0.07405300  1
  O  O4  1  0.74829900  0.38285400  0.91280400  1
  O  O5  1  0.68772900  0.62103600  0.06964900  1
  O  O6  1  0.67535600  0.61289000  0.90852900  1
  O  O7  1  0.25416700  0.61597400  0.92112800  1
  O  O8  1  0.26844500  0.61769200  0.08252100  1
