# generated using pymatgen
data_Cu2H28C49(NO4)2
_symmetry_space_group_name_H-M   'P 1'
_cell_length_a   12.15680000
_cell_length_b   13.41374100
_cell_length_c   14.47699200
_cell_angle_alpha   91.77566200
_cell_angle_beta   107.38654600
_cell_angle_gamma   116.29452400
_symmetry_Int_Tables_number   1
_chemical_formula_structural   Cu2H28C49(NO4)2
_chemical_formula_sum   'Cu2 H28 C49 N2 O8'
_cell_volume   1982.60959146
_cell_formula_units_Z   1
loop_
 _symmetry_equiv_pos_site_id
 _symmetry_equiv_pos_as_xyz
  1  'x, y, z'
loop_
 _atom_site_type_symbol
 _atom_site_label
 _atom_site_symmetry_multiplicity
 _atom_site_fract_x
 _atom_site_fract_y
 _atom_site_fract_z
 _atom_site_occupancy
  Cu  Cu1  1  0.42761900  0.52836900  0.53196100  1
  Cu  Cu2  1  0.59693600  0.47609400  0.48896100  1
  H  H1  1  0.82886200  0.53990600  0.14608600  1
  H  H2  1  0.19353700  0.51872900  0.24989200  1
  H  H3  1  0.46042600  0.44345100  0.17058900  1
  H  H4  1  0.17345100  0.43155400  0.87185800  1
  H  H5  1  0.66405800  0.55325100  0.02138300  1
  H  H6  1  0.55469100  0.54747100  0.84931000  1
  H  H7  1  0.83349300  0.49026800  0.77106400  1
  H  H8  1  0.01650400  0.51687800  0.20324200  1
  H  H9  1  0.98583200  0.45454600  0.81463100  1
  H  H10  1  0.34419000  0.42712300  0.99766100  1
  H  H11  1  0.33927200  0.11557800  0.38097900  1
  H  H12  1  0.16544600  0.92578500  0.33183500  1
  H  H13  1  0.16292600  0.20215000  0.55786300  1
  H  H14  1  0.68410700  0.88209100  0.64028300  1
  H  H15  1  0.02314000  0.14760900  0.62225300  1
  H  H16  1  0.85017300  0.07908200  0.68501100  1
  H  H17  1  0.76300700  0.72917400  0.38090300  1
  H  H18  1  0.44775200  0.69698100  0.68277700  1
  H  H19  1  0.08055200  0.70796200  0.70149800  1
  H  H20  1  0.29446000  0.74117000  0.72805300  1
  H  H21  1  0.14308000  0.43777600  0.45281800  1
  H  H22  1  0.57086700  0.30766500  0.34330500  1
  H  H23  1  0.94295700  0.34447700  0.37829600  1
  H  H24  1  0.71186500  0.24920100  0.29493300  1
  H  H25  1  0.85511200  0.61038500  0.61503300  1
  H  H26  1  0.84472500  0.68150700  0.28067300  1
  H  H27  1  0.94185000  0.79880100  0.23421800  1
  H  H28  1  0.01898400  0.73878900  0.32703600  1
  C  C1  1  0.66607700  0.71471300  0.52572100  1
  C  C2  1  0.62280300  0.51200100  0.69489900  1
  C  C3  1  0.35617800  0.29025000  0.49100700  1
  C  C4  1  0.40044500  0.49097100  0.32594100  1
  C  C5  1  0.68839800  0.51696000  0.79967300  1
  C  C6  1  0.33170700  0.48145100  0.22075100  1
  C  C7  1  0.70244400  0.53873900  0.96690300  1
  C  C8  1  0.64062800  0.53572900  0.86963500  1
  C  C9  1  0.79886300  0.50196600  0.82821600  1
  C  C10  1  0.86277600  0.50445300  0.92687400  1
  C  C11  1  0.81211600  0.52343500  0.99524700  1
  C  C12  1  0.97524900  0.48913600  0.95919500  1
  C  C13  1  0.03661900  0.49675400  0.05994600  1
  C  C14  1  0.98024800  0.51425600  0.12543900  1
  C  C15  1  0.86998700  0.52691100  0.09309300  1
  C  C16  1  0.02731800  0.46511200  0.89315900  1
  C  C17  1  0.13643200  0.45073200  0.92541000  1
  C  C18  1  0.19873000  0.46090800  0.02388400  1
  C  C19  1  0.15134400  0.48485100  0.09260700  1
  C  C20  1  0.30892700  0.44641300  0.05244700  1
  C  C21  1  0.37486700  0.45574500  0.15029500  1
  C  C22  1  0.22138400  0.49667000  0.19205400  1
  C  C23  1  0.16068500  0.98279700  0.38281100  1
  C  C24  1  0.25931800  0.17014700  0.47236800  1
  C  C25  1  0.75658300  0.91086400  0.60494300  1
  C  C26  1  0.85123400  0.02197900  0.63133500  1
  C  C27  1  0.95099700  0.06044000  0.59387200  1
  C  C28  1  0.95498200  0.98902300  0.52417900  1
  C  C29  1  0.85444900  0.87727300  0.49386100  1
  C  C30  1  0.05664800  0.02580800  0.48453000  1
  C  C31  1  0.05633200  0.94969000  0.41679500  1
  C  C32  1  0.94960600  0.84235800  0.38078200  1
  C  C33  1  0.84857300  0.80913000  0.41672600  1
  C  C34  1  0.15870100  0.13719200  0.50979800  1
  C  C35  1  0.26198200  0.09159900  0.41136500  1
  C  C36  1  0.75858100  0.83640100  0.53856500  1
  C  C37  1  0.25808700  0.67382100  0.66640200  1
  C  C38  1  0.67506200  0.35217700  0.38327000  1
  C  C39  1  0.75429800  0.31917300  0.35564500  1
  C  C40  1  0.88727800  0.37496000  0.40426100  1
  C  C41  1  0.94232200  0.46467700  0.48272800  1
  C  C42  1  0.85805400  0.49459000  0.50961400  1
  C  C43  1  0.07864700  0.52565600  0.53506800  1
  C  C44  1  0.12624000  0.61278100  0.61338300  1
  C  C45  1  0.04306000  0.64002100  0.64007700  1
  C  C46  1  0.91171900  0.58253400  0.58901900  1
  C  C47  1  0.17047500  0.50370700  0.51218800  1
  C  C48  1  0.34420300  0.64931900  0.64095000  1
  C  C49  1  0.93857600  0.76099200  0.30106900  1
  N  N1  1  0.29964200  0.56674700  0.56377900  1
  N  N2  1  0.72619200  0.43949700  0.45828000  1
  O  O1  1  0.55820700  0.68530900  0.54508400  1
  O  O2  1  0.69948600  0.63975900  0.50329800  1
  O  O3  1  0.52690600  0.53762600  0.66883500  1
  O  O4  1  0.66368400  0.48213600  0.63066200  1
  O  O5  1  0.32514900  0.36492900  0.51903300  1
  O  O6  1  0.46516700  0.31893100  0.47311900  1
  O  O7  1  0.35793800  0.51936400  0.39001200  1
  O  O8  1  0.49941000  0.46892200  0.35215100  1
