# generated using pymatgen
data_Zn6H35C52NO25
_symmetry_space_group_name_H-M   'P 1'
_cell_length_a   18.93911200
_cell_length_b   18.80231400
_cell_length_c   18.83854600
_cell_angle_alpha   109.20165500
_cell_angle_beta   109.92357200
_cell_angle_gamma   109.33275700
_symmetry_Int_Tables_number   1
_chemical_formula_structural   Zn6H35C52NO25
_chemical_formula_sum   'Zn6 H35 C52 N1 O25'
_cell_volume   5161.11959420
_cell_formula_units_Z   1
loop_
 _symmetry_equiv_pos_site_id
 _symmetry_equiv_pos_as_xyz
  1  'x, y, z'
loop_
 _atom_site_type_symbol
 _atom_site_label
 _atom_site_symmetry_multiplicity
 _atom_site_fract_x
 _atom_site_fract_y
 _atom_site_fract_z
 _atom_site_occupancy
  Zn  Zn1  1  0.49624500  0.42385300  0.42876800  1
  Zn  Zn2  1  0.49947800  0.56556800  0.56804100  1
  Zn  Zn3  1  0.92608000  0.42442300  0.99426100  1
  Zn  Zn4  1  0.06347100  0.56632700  0.99613600  1
  Zn  Zn5  1  0.92420000  0.99369900  0.42509500  1
  Zn  Zn6  1  0.06487000  0.99585000  0.56607500  1
  H  H1  1  0.72377100  0.42248600  0.60510400  1
  H  H2  1  0.63417500  0.35396800  0.60994400  1
  H  H3  1  0.72357100  0.35435500  0.72512300  1
  H  H4  1  0.80914800  0.40270300  0.70509600  1
  H  H5  1  0.78634200  0.58390400  0.68196500  1
  H  H6  1  0.88566200  0.56415600  0.76793800  1
  H  H7  1  0.64683300  0.53980400  0.78081400  1
  H  H8  1  0.60320900  0.42364100  0.72517400  1
  H  H9  1  0.71025700  0.44616400  0.84473100  1
  H  H10  1  0.76566200  0.56236800  0.88858100  1
  H  H11  1  0.76615200  0.63197100  0.76772400  1
  H  H12  1  0.88062000  0.63243400  0.85776600  1
  H  H13  1  0.25961200  0.39048500  0.54142500  1
  H  H14  1  0.23246700  0.10167300  0.45627000  1
  H  H15  1  0.34501900  0.21221700  0.45572800  1
  H  H16  1  0.37201600  0.63558300  0.37388700  1
  H  H17  1  0.26116000  0.63551400  0.25898300  1
  H  H18  1  0.12197900  0.35822700  0.12202200  1
  H  H19  1  0.23593200  0.35830800  0.23378100  1
  H  H20  1  0.76003400  0.75962700  0.63638800  1
  H  H21  1  0.87219600  0.87065800  0.63525800  1
  H  H22  1  0.73272300  0.72952200  0.35751200  1
  H  H23  1  0.62383300  0.61531000  0.35883900  1
  H  H24  1  0.13360400  0.37422000  0.86884700  1
  H  H25  1  0.13386100  0.25989500  0.75878600  1
  H  H26  1  0.85733900  0.12055500  0.61898900  1
  H  H27  1  0.85717100  0.23171700  0.73207600  1
  H  H28  1  0.99331600  0.75748100  0.11987400  1
  H  H29  1  0.99017200  0.86812100  0.23056500  1
  H  H30  1  0.99724600  0.73229800  0.37276200  1
  H  H31  1  0.99376700  0.61808900  0.25852200  1
  H  H32  1  0.16022800  0.33891000  0.60087600  1
  H  H33  1  0.03741200  0.34955000  0.56795700  1
  H  H34  1  0.94333300  0.26391800  0.46377300  1
  H  H35  1  0.01701600  0.36097500  0.47233300  1
  C  C1  1  0.37740400  0.37498700  0.49806100  1
  C  C2  1  0.61736900  0.49239400  0.61817700  1
  C  C3  1  0.61819500  0.61436000  0.49869000  1
  C  C4  1  0.37834600  0.49686900  0.37883000  1
  C  C5  1  0.69728500  0.41524500  0.64810900  1
  C  C6  1  0.75969700  0.41081500  0.72023500  1
  C  C7  1  0.77108000  0.57561800  0.73153700  1
  C  C8  1  0.66131800  0.48760900  0.75515000  1
  C  C9  1  0.68601800  0.49252000  0.68750600  1
  C  C10  1  0.80338300  0.49381100  0.80565900  1
  C  C11  1  0.84273500  0.57121100  0.79438600  1
  C  C12  1  0.73591200  0.49847400  0.83023600  1
  C  C13  1  0.25368400  0.32698300  0.52207100  1
  C  C14  1  0.18733000  0.26293800  0.51798100  1
  C  C15  1  0.18006000  0.18192600  0.49485500  1
  C  C16  1  0.23779900  0.16482400  0.47395600  1
  C  C17  1  0.30108900  0.22725900  0.47350800  1
  C  C18  1  0.30973000  0.30882700  0.49824400  1
  C  C19  1  0.31735600  0.57449900  0.31845400  1
  C  C20  1  0.25523700  0.57445600  0.25335600  1
  C  C21  1  0.18430000  0.49685900  0.18311000  1
  C  C22  1  0.17702100  0.41931900  0.17706600  1
  C  C23  1  0.24156400  0.41937300  0.23972800  1
  C  C24  1  0.31126700  0.49695000  0.31120000  1
  C  C25  1  0.75419800  0.75251300  0.57500800  1
  C  C26  1  0.81760800  0.81474400  0.57438900  1
  C  C27  1  0.80944900  0.80735600  0.49632000  1
  C  C28  1  0.73917700  0.73606400  0.41891900  1
  C  C29  1  0.67830100  0.67139400  0.41966100  1
  C  C30  1  0.68502700  0.68021900  0.49770100  1
  C  C31  1  0.99480400  0.37596500  0.87487300  1
  C  C32  1  0.87239000  0.49412300  0.87481200  1
  C  C33  1  0.99472500  0.61483500  0.11555500  1
  C  C34  1  0.11696800  0.49679000  0.11558500  1
  C  C35  1  0.99355500  0.87431100  0.37526900  1
  C  C36  1  0.11400000  0.11509900  0.49570600  1
  C  C37  1  0.99558100  0.11528800  0.61581600  1
  C  C38  1  0.87512800  0.87476800  0.49568400  1
  C  C39  1  0.07281800  0.31852500  0.81404800  1
  C  C40  1  0.07295600  0.25379900  0.75251700  1
  C  C41  1  0.99559400  0.18295800  0.68190600  1
  C  C42  1  0.91816000  0.17612000  0.67387600  1
  C  C43  1  0.91809600  0.23841100  0.73785000  1
  C  C44  1  0.99537100  0.31016300  0.80750600  1
  C  C45  1  0.99363100  0.75149100  0.17510300  1
  C  C46  1  0.99132900  0.81345300  0.23709400  1
  C  C47  1  0.99387300  0.80737200  0.30880200  1
  C  C48  1  0.99595800  0.73771900  0.31701600  1
  C  C49  1  0.99322300  0.67311900  0.25241700  1
  C  C50  1  0.99334700  0.68065100  0.18204300  1
  C  C51  1  0.06277100  0.27227900  0.47773500  1
  C  C52  1  0.01225100  0.31447700  0.49692300  1
  N  N1  1  0.13096200  0.28239400  0.54313300  1
  O  O1  1  0.40675500  0.34883200  0.44683500  1
  O  O2  1  0.40559600  0.45730400  0.54859200  1
  O  O3  1  0.58689800  0.43778000  0.53634700  1
  O  O4  1  0.59099200  0.54770900  0.64212700  1
  O  O5  1  0.58827200  0.53208800  0.44623700  1
  O  O6  1  0.59086700  0.64071400  0.55193900  1
  O  O7  1  0.40304500  0.44002700  0.35472900  1
  O  O8  1  0.41067900  0.55344100  0.46049400  1
  O  O9  1  0.93948800  0.34956100  0.89998300  1
  O  O10  1  0.04911900  0.45819200  0.90691800  1
  O  O11  1  0.84869600  0.43897300  0.90163400  1
  O  O12  1  0.95382900  0.54881400  0.90520500  1
  O  O13  1  0.94244900  0.53257100  0.08565900  1
  O  O14  1  0.04792600  0.64129000  0.08827000  1
  O  O15  1  0.03570600  0.43999500  0.08317200  1
  O  O16  1  0.14077700  0.55373000  0.09073300  1
  O  O17  1  0.94015600  0.90223900  0.34955400  1
  O  O18  1  0.04690400  0.90379300  0.45742500  1
  O  O19  1  0.03213900  0.08522700  0.44209900  1
  O  O20  1  0.13981800  0.08709800  0.54932300  1
  O  O21  1  0.93932200  0.08271500  0.53379100  1
  O  O22  1  0.05200800  0.09047300  0.64147800  1
  O  O23  1  0.84941000  0.89933600  0.43872200  1
  O  O24  1  0.95688900  0.90728500  0.55185400  1
  O  O25  1  0.04206500  0.22844000  0.40234500  1
