# Generated by REPEAT Assigner based on pymatgen
data_DB0-m18_o25_o137_f0_fsc
_audit_creation_date              2022-05-24
_audit_creation_method            REPEAT_Assigner
_cell_length_a                    6.708928
_cell_length_b                    14.266997
_cell_length_c                    16.149651
_cell_angle_alpha                 96.029158
_cell_angle_beta                  98.563344
_cell_angle_gamma                 90.081057
_cell_volume                      1519.867735
_symmetry_space_group_name_H-M    P1
_symmetry_Int_Tables_number       1
loop_
    _symmetry_equiv_pos_site_id
    _symmetry_equiv_pos_as_xyz
    1  x,y,z
loop_
    _atom_site_type_symbol
    _atom_site_label
    _atom_site_fract_x
    _atom_site_fract_y
    _atom_site_fract_z
    _atom_type_partial_charge
    O   O1   0.162796  0.076651  0.908032  -0.692623
    O   O2   0.837203  0.923349  0.091968  -0.692659
    O   O3   0.208364  0.918828  0.910907  -0.683092
    O   O4   0.791636  0.081172  0.089093  -0.683280
    C   C1   0.244680  0.998105  0.881054  0.791780
    C   C2   0.755319  0.001894  0.118946  0.792159
    Fe  Fe1  0.012332  0.897131  0.996819  1.136703
    Fe  Fe2  0.987668  0.102869  0.003181  1.135947
    O   O5   0.254823  0.928508  0.089066  -0.697151
    O   O6   0.745177  0.071491  0.910934  -0.697283
    O   O7   0.230967  0.088472  0.094668  -0.726069
    O   O8   0.769032  0.911528  0.905331  -0.726221
    C   C3   0.320569  0.013134  0.121326  0.911363
    C   C4   0.679431  0.986866  0.878673  0.911734
    C   C5   0.928993  0.481534  0.068740  -0.178049
    C   C6   0.071007  0.518465  0.931260  -0.178007
    C   C7   0.120013  0.538585  0.067292  -0.156514
    C   C8   0.879986  0.461414  0.932708  -0.156585
    H   H1   0.220162  0.573030  0.123057  0.077648
    H   H2   0.779838  0.426969  0.876943  0.077733
    H   H3   0.869679  0.463842  0.125827  0.079926
    H   H4   0.130321  0.536157  0.874173  0.079865
    H   H5   0.334596  0.434846  0.001448  0.077364
    H   H6   0.665404  0.565153  0.998552  0.077653
    N   N1   0.018715  0.772886  0.995043  -0.034286
    N   N2   0.981285  0.227114  0.004957  -0.034202
    C   C9   0.817149  0.534240  0.999277  -0.170413
    C   C10  0.182850  0.465759  0.000722  -0.170048
    C   C11  0.008064  0.589506  0.997858  0.729580
    C   C12  0.991936  0.410493  0.002142  0.729700
    C   C13  0.015344  0.691868  0.995925  -0.324774
    C   C14  0.984656  0.308131  0.004074  -0.325032
    C   C15  0.331089  0.993974  0.803280  -0.025019
    C   C16  0.668910  0.006026  0.196720  -0.025189
    C   C17  0.201581  0.999220  0.729139  -0.241793
    C   C18  0.798419  0.000780  0.270861  -0.241668
    H   H7   0.043355  0.009488  0.731933  0.194826
    H   H8   0.956645  0.990512  0.268067  0.194670
    C   C19  0.271319  0.987695  0.652563  0.166855
    C   C20  0.728681  0.012305  0.347437  0.166875
    C   C21  0.473052  0.969857  0.650876  -0.204658
    C   C22  0.526948  0.030142  0.349124  -0.204675
    H   H9   0.532363  0.961994  0.592027  0.141317
    H   H10  0.467637  0.038005  0.407972  0.141304
    C   C23  0.603141  0.965826  0.725097  -0.046356
    C   C24  0.396859  0.034174  0.274902  -0.046432
    H   H11  0.762176  0.955608  0.723426  0.067860
    H   H12  0.237824  0.044392  0.276574  0.067977
    C   C25  0.533132  0.978079  0.801571  -0.132473
    C   C26  0.466867  0.021920  0.198429  -0.132355
    C   C27  0.185901  0.959870  0.497493  -0.077715
    C   C28  0.814099  0.040130  0.502507  -0.077767
    C   C29  0.054767  0.965776  0.423881  -0.086325
    C   C30  0.945233  0.034223  0.576119  -0.086269
    C   C31  0.868024  0.006025  0.425871  -0.046332
    C   C32  0.131975  0.993975  0.574129  -0.046363
    H   H13  0.329369  0.926644  0.494371  0.075358
    H   H14  0.670631  0.073355  0.505629  0.075366
    H   H15  0.099018  0.936754  0.365056  0.073070
    H   H16  0.900982  0.063246  0.634943  0.073047
