# generated using pymatgen
data_Cu6H19C69NO24
_symmetry_space_group_name_H-M   'P 1'
_cell_length_a   27.14532900
_cell_length_b   27.52151600
_cell_length_c   27.17515600
_cell_angle_alpha   109.74415200
_cell_angle_beta   110.62052800
_cell_angle_gamma   108.29517200
_symmetry_Int_Tables_number   1
_chemical_formula_structural   Cu6H19C69NO24
_chemical_formula_sum   'Cu6 H19 C69 N1 O24'
_cell_volume   15575.95315094
_cell_formula_units_Z   1
loop_
 _symmetry_equiv_pos_site_id
 _symmetry_equiv_pos_as_xyz
  1  'x, y, z'
loop_
 _atom_site_type_symbol
 _atom_site_label
 _atom_site_symmetry_multiplicity
 _atom_site_fract_x
 _atom_site_fract_y
 _atom_site_fract_z
 _atom_site_occupancy
  Cu  Cu1  1  0.00209800  0.04197300  0.54403800  1
  Cu  Cu2  1  0.00067000  0.95710500  0.45822500  1
  Cu  Cu3  1  0.43293600  0.96192400  0.97776200  1
  Cu  Cu4  1  0.51677400  0.03676900  0.97059300  1
  Cu  Cu5  1  0.55322100  0.49939700  0.55131100  1
  Cu  Cu6  1  0.46569700  0.50170500  0.46879700  1
  H  H1  1  0.16990400  0.16049300  0.40569000  1
  H  H2  1  0.24900400  0.23644100  0.40705100  1
  H  H3  1  0.34342300  0.33282000  0.60097100  1
  H  H4  1  0.26433200  0.25688100  0.59961000  1
  H  H5  1  0.73017300  0.90598800  0.22954300  1
  H  H6  1  0.74581400  0.09495900  0.24815200  1
  H  H7  1  0.82526900  0.09470900  0.32750000  1
  H  H8  1  0.84226100  0.74462500  0.50696400  1
  H  H9  1  0.76823900  0.66932000  0.51116300  1
  H  H10  1  0.66827900  0.76167100  0.51035000  1
  H  H11  1  0.74231900  0.83699500  0.50615300  1
  H  H12  1  0.57775500  0.83452600  0.83616300  1
  H  H13  1  0.59156100  0.75810000  0.77243100  1
  H  H14  1  0.40196900  0.63925000  0.67344300  1
  H  H15  1  0.38814000  0.71571700  0.73713400  1
  H  H16  1  0.49864300  0.27598900  0.15430700  1
  H  H17  1  0.50640600  0.35271800  0.24105800  1
  H  H18  1  0.50732800  0.24808200  0.32623900  1
  H  H19  1  0.49958700  0.17146800  0.23962000  1
  C  C1  1  0.08258300  0.07883700  0.50148400  1
  C  C2  1  0.08517900  0.99930600  0.58433000  1
  C  C3  1  0.92119600  0.92024900  0.50178300  1
  C  C4  1  0.91758700  0.99977300  0.41791900  1
  C  C5  1  0.13250500  0.99908800  0.63137700  1
  C  C6  1  0.17200700  0.99885400  0.67064500  1
  C  C7  1  0.21850800  0.99855300  0.71688000  1
  C  C8  1  0.25798900  0.99831000  0.75616100  1
  C  C9  1  0.30447700  0.99807700  0.80247600  1
  C  C10  1  0.34395600  0.99798300  0.84190700  1
  C  C11  1  0.25240200  0.24083000  0.44934000  1
  C  C12  1  0.30100400  0.28904900  0.50409800  1
  C  C13  1  0.30535400  0.29488100  0.55809000  1
  C  C14  1  0.26102900  0.25239200  0.55732400  1
  C  C15  1  0.21241100  0.20419000  0.50256900  1
  C  C16  1  0.20807200  0.19833600  0.44857400  1
  C  C17  1  0.34665500  0.33365300  0.50488800  1
  C  C18  1  0.16638600  0.16002900  0.50184100  1
  C  C19  1  0.12794100  0.12294900  0.50148600  1
  C  C20  1  0.38469100  0.37147300  0.50557900  1
  C  C21  1  0.68892200  0.94781100  0.18902300  1
  C  C22  1  0.69252300  0.00061500  0.19345700  1
  C  C23  1  0.74205400  0.05323800  0.24375500  1
  C  C24  1  0.78702600  0.05309900  0.28866300  1
  C  C25  1  0.78343900  0.00032400  0.28424600  1
  C  C26  1  0.73391300  0.94770800  0.23395400  1
  C  C27  1  0.64527900  0.00080200  0.14619800  1
  C  C28  1  0.83074300  0.00014500  0.33143000  1
  C  C29  1  0.87024700  0.99997900  0.37080200  1
  C  C30  1  0.60581300  0.00084000  0.10664700  1
  C  C31  1  0.76262300  0.70621800  0.51015400  1
  C  C32  1  0.71396500  0.71111800  0.51119600  1
  C  C33  1  0.70656800  0.75801000  0.50969800  1
  C  C34  1  0.74798000  0.80014400  0.50725700  1
  C  C35  1  0.79665100  0.79524400  0.50623600  1
  C  C36  1  0.80402400  0.74834100  0.50771200  1
  C  C37  1  0.67055000  0.66691300  0.51298700  1
  C  C38  1  0.83997100  0.83920000  0.50411100  1
  C  C39  1  0.87677100  0.87616900  0.50273600  1
  C  C40  1  0.63376800  0.62936400  0.51379500  1
  C  C41  1  0.46817300  0.91149300  0.89397000  1
  C  C42  1  0.39123300  0.99809100  0.88932800  1
  C  C43  1  0.48102400  0.08713400  0.05383500  1
  C  C44  1  0.55849600  0.00063300  0.05907900  1
  C  C45  1  0.50939200  0.42430500  0.42452300  1
  C  C46  1  0.42941000  0.41702200  0.50642200  1
  C  C47  1  0.50946900  0.57675000  0.59558000  1
  C  C48  1  0.58943900  0.58402400  0.51355500  1
  C  C49  1  0.54717700  0.74863100  0.76569700  1
  C  C50  1  0.49758400  0.69445900  0.72022800  1
  C  C51  1  0.44055400  0.68184000  0.71006700  1
  C  C52  1  0.43279400  0.72446600  0.74526600  1
  C  C53  1  0.48224300  0.77904200  0.78989300  1
  C  C54  1  0.53942600  0.79123100  0.80091500  1
  C  C55  1  0.50426600  0.65286800  0.67925700  1
  C  C56  1  0.47444600  0.82426800  0.82454900  1
  C  C57  1  0.47005200  0.86361000  0.85511800  1
  C  C58  1  0.50792700  0.61806900  0.64220600  1
  C  C59  1  0.50540600  0.31301900  0.24068100  1
  C  C60  1  0.50759300  0.30444200  0.28823500  1
  C  C61  1  0.50593000  0.25420100  0.28861200  1
  C  C62  1  0.50154300  0.21157800  0.24040600  1
  C  C63  1  0.49882100  0.21984600  0.19260300  1
  C  C64  1  0.50100600  0.27032500  0.19239400  1
  C  C65  1  0.50936600  0.34709400  0.33677000  1
  C  C66  1  0.49260700  0.17469200  0.14242500  1
  C  C67  1  0.48718900  0.13525300  0.10113800  1
  C  C68  1  0.50981700  0.38253500  0.37724100  1
  C  C69  1  0.63821400  0.89253500  0.13747100  1
  N  N1  1  0.59733200  0.84795800  0.09590700  1
  O  O1  1  0.06158100  0.09648500  0.53660300  1
  O  O2  1  0.06038000  0.02300900  0.46243400  1
  O  O3  1  0.06688200  0.03773700  0.60081700  1
  O  O4  1  0.06210900  0.96101200  0.52675600  1
  O  O5  1  0.93926600  0.97608200  0.53673100  1
  O  O6  1  0.93790600  0.90260100  0.46240500  1
  O  O7  1  0.94057300  0.03807200  0.47556700  1
  O  O8  1  0.93594400  0.96133400  0.40135300  1
  O  O9  1  0.43519600  0.90003900  0.91808400  1
  O  O10  1  0.50765700  0.96490000  0.91181400  1
  O  O11  1  0.37556200  0.96407200  0.91150200  1
  O  O12  1  0.44818900  0.03256000  0.90889100  1
  O  O13  1  0.44522400  0.03383200  0.03977400  1
  O  O14  1  0.51795300  0.09872400  0.03376300  1
  O  O15  1  0.50146100  0.96618500  0.03961400  1
  O  O16  1  0.57424900  0.03458200  0.03675800  1
  O  O17  1  0.54879500  0.44319000  0.48068500  1
  O  O18  1  0.46956900  0.44152700  0.40904600  1
  O  O19  1  0.48658500  0.43783200  0.54467200  1
  O  O20  1  0.41085400  0.43647600  0.46961300  1
  O  O21  1  0.54936200  0.55959000  0.61111100  1
  O  O22  1  0.47014700  0.55788500  0.53942100  1
  O  O23  1  0.60805200  0.56463200  0.55045800  1
  O  O24  1  0.53229600  0.56324500  0.47540300  1
