# generated using pymatgen
data_ZnH15C24NO6
_symmetry_space_group_name_H-M   'P 1'
_cell_length_a   16.01493100
_cell_length_b   11.04487900
_cell_length_c   9.88252500
_cell_angle_alpha   89.99888000
_cell_angle_beta   90.00540200
_cell_angle_gamma   90.00077100
_symmetry_Int_Tables_number   1
_chemical_formula_structural   ZnH15C24NO6
_chemical_formula_sum   'Zn2 H30 C48 N2 O12'
_cell_volume   1748.05041512
_cell_formula_units_Z   2
loop_
 _symmetry_equiv_pos_site_id
 _symmetry_equiv_pos_as_xyz
  1  'x, y, z'
loop_
 _atom_site_type_symbol
 _atom_site_label
 _atom_site_symmetry_multiplicity
 _atom_site_fract_x
 _atom_site_fract_y
 _atom_site_fract_z
 _atom_site_occupancy
  Zn  Zn1  1  0.50136700  0.49497200  0.65785600  1
  Zn  Zn2  1  0.50080200  0.50334600  0.34990700  1
  H  H1  1  0.94706700  0.32391200  0.62584600  1
  H  H2  1  0.05503800  0.67436600  0.38187400  1
  H  H3  1  0.95092600  0.48987300  0.27097800  1
  H  H4  1  0.05119600  0.50837900  0.73675100  1
  H  H5  1  0.44266100  0.07991800  0.04696200  1
  H  H6  1  0.55973000  0.91832400  0.96073200  1
  H  H7  1  0.61926200  0.20026200  0.69107400  1
  H  H8  1  0.38294300  0.79808400  0.31664900  1
  H  H9  1  0.63217600  0.10880800  0.91145100  1
  H  H10  1  0.37014900  0.88948100  0.09622200  1
  H  H11  1  0.48538100  0.81400500  0.78696200  1
  H  H12  1  0.51691600  0.18429000  0.22081200  1
  H  H13  1  0.70577900  0.78219700  0.12396700  1
  H  H14  1  0.29657500  0.21584200  0.88384700  1
  H  H15  1  0.39020500  0.34391700  0.24921900  1
  H  H16  1  0.61202200  0.65437300  0.75855900  1
  H  H17  1  0.29323500  0.22404100  0.13119400  1
  H  H18  1  0.70922900  0.77391100  0.87665000  1
  H  H19  1  0.39610800  0.33014300  0.76311200  1
  H  H20  1  0.60606700  0.66817600  0.24465300  1
  H  H21  1  0.04300000  0.07862100  0.24802700  1
  H  H22  1  0.13687300  0.15638400  0.19305700  1
  H  H23  1  0.96760400  0.15658700  0.04697800  1
  H  H24  1  0.05906200  0.07037700  0.99870900  1
  H  H25  1  0.06128500  0.23420700  0.99213800  1
  H  H26  1  0.91803200  0.94993200  0.64125000  1
  H  H27  1  0.82455500  0.87047300  0.69505400  1
  H  H28  1  0.85501400  0.98276800  0.41507800  1
  H  H29  1  0.79029300  0.04537600  0.54805100  1
  H  H30  1  0.76174700  0.90346500  0.46875900  1
  C  C1  1  0.50955900  0.26045100  0.49818600  1
  C  C2  1  0.49261700  0.73786700  0.50957900  1
  C  C3  1  0.33783700  0.49340500  0.50670700  1
  C  C4  1  0.66432500  0.50491000  0.50105400  1
  C  C5  1  0.97221500  0.40400900  0.57182000  1
  C  C6  1  0.02990500  0.59425900  0.43589900  1
  C  C7  1  0.02723000  0.40061300  0.44726200  1
  C  C8  1  0.97488100  0.59764600  0.56044900  1
  C  C9  1  0.24821800  0.49343000  0.50651000  1
  C  C10  1  0.75393400  0.50487100  0.50124100  1
  C  C11  1  0.02770900  0.50321100  0.63133300  1
  C  C12  1  0.97440700  0.49505800  0.37639600  1
  C  C13  1  0.08162800  0.49800200  0.50567800  1
  C  C14  1  0.92050500  0.50024900  0.50202900  1
  C  C15  1  0.17297300  0.49485000  0.50615100  1
  C  C16  1  0.82917300  0.50343300  0.50158000  1
  C  C17  1  0.58657600  0.11634700  0.70905600  1
  C  C18  1  0.41565500  0.88198000  0.29867400  1
  C  C19  1  0.59686400  0.06329900  0.83332000  1
  C  C20  1  0.40543400  0.93499700  0.17437900  1
  C  C21  1  0.55811200  0.95568200  0.85982400  1
  C  C22  1  0.44422300  0.04258900  0.14788500  1
  C  C23  1  0.51865100  0.89403400  0.75733700  1
  C  C24  1  0.48363200  0.10426200  0.25040600  1
  C  C25  1  0.51503900  0.94105800  0.62658000  1
  C  C26  1  0.48718900  0.05725700  0.38117400  1
  C  C27  1  0.53814100  0.06151100  0.60943900  1
  C  C28  1  0.46407300  0.93681100  0.39831600  1
  C  C29  1  0.48563100  0.87377100  0.51557600  1
  C  C30  1  0.51656900  0.12455000  0.49218800  1
  C  C31  1  0.39189500  0.35275500  0.14281300  1
  C  C32  1  0.61035200  0.64549000  0.86496500  1
  C  C33  1  0.33622300  0.28055300  0.07536000  1
  C  C34  1  0.66611900  0.71753900  0.93243900  1
  C  C35  1  0.33821400  0.27574500  0.93798100  1
  C  C36  1  0.66409100  0.72238000  0.06981600  1
  C  C37  1  0.39558100  0.34379800  0.86907400  1
  C  C38  1  0.60662800  0.65447300  0.13869800  1
  C  C39  1  0.44951200  0.42358000  0.93421700  1
  C  C40  1  0.55267600  0.57472700  0.07354900  1
  C  C41  1  0.44754700  0.42873800  0.07571100  1
  C  C42  1  0.55464800  0.56956400  0.93205400  1
  C  C43  1  0.05928400  0.28776400  0.38316700  1
  C  C44  1  0.06763300  0.15841300  0.19275000  1
  C  C45  1  0.03683600  0.15464300  0.04796100  1
  C  C46  1  0.94247100  0.71038100  0.62432900  1
  C  C47  1  0.86521200  0.89236300  0.60754200  1
  C  C48  1  0.81468700  0.96055300  0.50285500  1
  N  N1  1  0.50315400  0.49371800  0.86158600  1
  N  N2  1  0.49901900  0.50460900  0.14617700  1
  O  O1  1  0.50507900  0.31494500  0.61706400  1
  O  O2  1  0.49709000  0.68337200  0.39070300  1
  O  O3  1  0.50588900  0.32283200  0.38559600  1
  O  O4  1  0.49628700  0.67548600  0.62216500  1
  O  O5  1  0.37668800  0.49003700  0.62308800  1
  O  O6  1  0.62547800  0.50828400  0.38467600  1
  O  O7  1  0.37675300  0.49907900  0.39046900  1
  O  O8  1  0.62541400  0.49923200  0.61729200  1
  O  O9  1  0.10235200  0.21805900  0.44862500  1
  O  O10  1  0.04003800  0.26269500  0.25337100  1
  O  O11  1  0.95892700  0.73269800  0.74219200  1
  O  O12  1  0.89529100  0.78752800  0.55136700  1
