# generated using pymatgen
data_Zn3H10C25(IO4)3
_symmetry_space_group_name_H-M   'P 1'
_cell_length_a   18.87571000
_cell_length_b   18.96059500
_cell_length_c   18.94534200
_cell_angle_alpha   109.57499500
_cell_angle_beta   109.40487800
_cell_angle_gamma   109.37463300
_symmetry_Int_Tables_number   1
_chemical_formula_structural   Zn3H10C25(IO4)3
_chemical_formula_sum   'Zn6 H20 C50 I6 O24'
_cell_volume   5223.37632566
_cell_formula_units_Z   2
loop_
 _symmetry_equiv_pos_site_id
 _symmetry_equiv_pos_as_xyz
  1  'x, y, z'
loop_
 _atom_site_type_symbol
 _atom_site_label
 _atom_site_symmetry_multiplicity
 _atom_site_fract_x
 _atom_site_fract_y
 _atom_site_fract_z
 _atom_site_occupancy
  Zn  Zn1  1  0.50360000  0.57284800  0.57503400  1
  Zn  Zn2  1  0.50572300  0.43426400  0.43879400  1
  Zn  Zn3  1  0.07785700  0.00547500  0.57733900  1
  Zn  Zn4  1  0.93659400  0.00593100  0.44234600  1
  Zn  Zn5  1  0.93541900  0.43373500  0.00956100  1
  Zn  Zn6  1  0.07064500  0.57392400  0.00814400  1
  H  H1  1  0.90738400  0.77287900  0.56453600  1
  H  H2  1  0.70698800  0.90635200  0.50338200  1
  H  H3  1  0.67064500  0.82766100  0.38899200  1
  H  H4  1  0.59682300  0.79510400  0.50452300  1
  H  H5  1  0.56090000  0.71630800  0.39034000  1
  H  H6  1  0.24666100  0.36892600  0.24322400  1
  H  H7  1  0.13157400  0.36814000  0.13362300  1
  H  H8  1  0.27039300  0.64358400  0.26833500  1
  H  H9  1  0.38253000  0.64436600  0.38116900  1
  H  H10  1  0.39631700  0.26876500  0.54678400  1
  H  H11  1  0.28735900  0.15805700  0.55032500  1
  H  H12  1  0.10615100  0.23685000  0.45498300  1
  H  H13  1  0.73854000  0.45419900  0.61559500  1
  H  H14  1  0.85222400  0.45872100  0.72975900  1
  H  H15  1  0.76021300  0.54204600  0.90073600  1
  H  H16  1  0.64985000  0.54405600  0.78879900  1
  H  H17  1  0.95071700  0.84613200  0.22344000  1
  H  H18  1  0.95248100  0.73448200  0.11300900  1
  H  H19  1  0.05453100  0.77088900  0.40430200  1
  H  H20  1  0.87626500  0.14785500  0.62214000  1
  C  C1  1  0.38845600  0.50703600  0.38717900  1
  C  C2  1  0.62857700  0.62406700  0.51230800  1
  C  C3  1  0.62084300  0.49992400  0.62672500  1
  C  C4  1  0.38075000  0.38306200  0.50146800  1
  C  C5  1  0.68288900  0.74698700  0.48939100  1
  C  C6  1  0.69708500  0.69048200  0.51383000  1
  C  C7  1  0.77961300  0.70056000  0.54080500  1
  C  C8  1  0.84355900  0.76599300  0.54269200  1
  C  C9  1  0.82530800  0.82042300  0.51529000  1
  C  C10  1  0.74277400  0.80729200  0.48835700  1
  C  C11  1  0.68552600  0.83994000  0.45511300  1
  C  C12  1  0.61496500  0.76859600  0.45597200  1
  C  C13  1  0.25219200  0.42942400  0.24892600  1
  C  C14  1  0.18693000  0.42900700  0.18758400  1
  C  C15  1  0.19350000  0.50581400  0.19376100  1
  C  C16  1  0.26493600  0.58309100  0.26257200  1
  C  C17  1  0.32783400  0.58352700  0.32644500  1
  C  C18  1  0.32209900  0.50668000  0.31930900  1
  C  C19  1  0.33257200  0.26188300  0.52696600  1
  C  C20  1  0.27113800  0.19980200  0.52940100  1
  C  C21  1  0.18930800  0.19008000  0.50330000  1
  C  C22  1  0.16985500  0.24354800  0.47573600  1
  C  C23  1  0.23219300  0.30754300  0.47603100  1
  C  C24  1  0.31383300  0.31667700  0.50160900  1
  C  C25  1  0.74281500  0.47398100  0.67807100  1
  C  C26  1  0.80720200  0.47666700  0.74243500  1
  C  C27  1  0.81305300  0.50019400  0.82215700  1
  C  C28  1  0.75544100  0.52301800  0.83806100  1
  C  C29  1  0.69368700  0.52467200  0.77507400  1
  C  C30  1  0.68675700  0.49953200  0.69452900  1
  C  C31  1  0.00469700  0.88438600  0.38920300  1
  C  C32  1  0.89101000  0.88783000  0.51487600  1
  C  C33  1  0.01047300  0.12773500  0.63081700  1
  C  C34  1  0.12346000  0.12351200  0.50465800  1
  C  C35  1  0.00310600  0.62289000  0.12904300  1
  C  C36  1  0.12465700  0.50505500  0.12796900  1
  C  C37  1  0.00346900  0.38466900  0.88893900  1
  C  C38  1  0.88146800  0.50260600  0.88975800  1
  C  C39  1  0.97278400  0.80476800  0.23914600  1
  C  C40  1  0.97421400  0.74220500  0.17695700  1
  C  C41  1  0.00185900  0.68854000  0.19560000  1
  C  C42  1  0.03000000  0.69878000  0.27746500  1
  C  C43  1  0.03124600  0.76311200  0.34031700  1
  C  C44  1  0.00219900  0.81597100  0.32138900  1
  C  C45  1  0.93508600  0.19593700  0.68306600  1
  C  C46  1  0.93189100  0.25698800  0.74474300  1
  C  C47  1  0.00613100  0.31918500  0.82325000  1
  C  C48  1  0.08324100  0.31935900  0.83904600  1
  C  C49  1  0.08645200  0.25793800  0.77757500  1
  C  C50  1  0.01155800  0.19496300  0.69891200  1
  I  I1  1  0.81269900  0.62153000  0.58450900  1
  I  I2  1  0.19824700  0.38575800  0.43120500  1
  I  I3  1  0.07818800  0.62242300  0.31133600  1
  I  I4  1  0.81304800  0.25551100  0.71347300  1
  I  I5  1  0.19846600  0.40972000  0.95865100  1
  I  I6  1  0.21058300  0.27197700  0.80825700  1
  O  O1  1  0.41746700  0.56182400  0.46791300  1
  O  O2  1  0.41492700  0.45164900  0.36452100  1
  O  O3  1  0.59702500  0.64898500  0.56182400  1
  O  O4  1  0.60062200  0.54269900  0.46047600  1
  O  O5  1  0.59304100  0.55412600  0.64931900  1
  O  O6  1  0.59320600  0.44657500  0.54595000  1
  O  O7  1  0.40766000  0.46442800  0.55219600  1
  O  O8  1  0.41348700  0.35817200  0.45323900  1
  O  O9  1  0.05783000  0.91112800  0.46967200  1
  O  O10  1  0.95367500  0.91552300  0.36709000  1
  O  O11  1  0.97268200  0.91391000  0.56389700  1
  O  O12  1  0.86543800  0.91805000  0.46434700  1
  O  O13  1  0.06093900  0.09610200  0.65248900  1
  O  O14  1  0.95618600  0.09974800  0.55020700  1
  O  O15  1  0.14893100  0.09297200  0.55492700  1
  O  O16  1  0.04177800  0.09783700  0.45612400  1
  O  O17  1  0.95421600  0.54138400  0.10296100  1
  O  O18  1  0.05211200  0.64860100  0.09736600  1
  O  O19  1  0.04402400  0.44858500  0.09789600  1
  O  O20  1  0.14649800  0.56021200  0.10131700  1
  O  O21  1  0.95204200  0.35898700  0.91844300  1
  O  O22  1  0.05360200  0.46630300  0.91639300  1
  O  O23  1  0.85942600  0.44919000  0.91819300  1
  O  O24  1  0.96210200  0.55716100  0.91776600  1
