# Generated by REPEAT Assigner based on pymatgen
data_DB0-m29_o89_o1470_f0_pts.sym.3
_audit_creation_date              2022-05-24
_audit_creation_method            REPEAT_Assigner
_cell_length_a                    14.177879
_cell_length_b                    12.261420
_cell_length_c                    13.219129
_cell_angle_alpha                 91.558982
_cell_angle_beta                  93.144249
_cell_angle_gamma                 108.173070
_cell_volume                      2177.730796
_symmetry_space_group_name_H-M    P1
_symmetry_Int_Tables_number       1
loop_
    _symmetry_equiv_pos_site_id
    _symmetry_equiv_pos_as_xyz
    1  x,y,z
loop_
    _atom_site_type_symbol
    _atom_site_label
    _atom_site_fract_x
    _atom_site_fract_y
    _atom_site_fract_z
    _atom_type_partial_charge
    C   C1   0.843562  0.014688  0.130484  -0.253212
    C   C2   0.749962  0.006924  0.088077  0.075556
    C   C3   0.735918  0.006067  0.982561  -0.080931
    C   C4   0.815700  0.017868  0.923747  -0.174687
    C   C5   0.907885  0.023361  0.966668  0.136711
    C   C6   0.922117  0.019757  0.070290  0.224038
    C   C7   0.984996  0.030461  0.905044  -0.278211
    C   C8   0.076932  0.032069  0.946276  0.179660
    C   C9   0.091795  0.027073  0.049703  0.188151
    C   C10  0.014860  0.022082  0.112453  -0.269888
    C   C11  0.153091  0.036241  0.883483  -0.176363
    C   C12  0.245190  0.034031  0.922844  -0.005164
    C   C13  0.259942  0.029984  0.027653  0.049250
    C   C14  0.183561  0.025444  0.089222  -0.314657
    H   H1   0.853817  0.015919  0.211860  0.148085
    H   H2   0.804437  0.017716  0.842206  0.182004
    H   H3   0.972822  0.033126  0.823833  0.165391
    H   H4   0.138964  0.038042  0.802497  0.146543
    H   H5   0.198981  0.022595  0.169675  0.236744
    N   N1   0.081018  0.107284  0.284403  -0.257815
    C   C15  0.081438  0.069136  0.378827  -0.073093
    C   C16  0.031298  0.952694  0.377012  -0.201590
    C   C17  0.999182  0.918993  0.277241  -0.195817
    C   C18  0.031008  0.016457  0.222449  0.319642
    H   H6   0.113457  0.191424  0.263259  0.309989
    H   H7   0.116355  0.122886  0.445287  0.149171
    H   H8   0.019628  0.898437  0.441252  0.162841
    H   H9   0.957582  0.833299  0.247883  0.148726
    O   O1   0.579221  0.989925  0.122414  -0.531614
    C   C19  0.670887  0.004892  0.157635  0.593665
    O   O2   0.541091  0.783325  0.249441  -0.492913
    O   O3   0.692410  0.019134  0.255921  -0.503769
    O   O4   0.454198  0.879943  0.333941  -0.606867
    C   C20  0.489169  0.792863  0.326419  0.576880
    Fe  Fe1  0.485857  0.993770  0.227369  1.488122
    O   O5   0.351334  0.963785  0.155413  -0.657827
    O   O6   0.437210  0.111304  0.062684  -0.530474
    C   C21  0.353996  0.031172  0.079470  0.714727
    O   O7   0.554829  0.147089  0.298332  -0.639650
    O   O8   0.396330  0.152959  0.294797  -0.572344
    C   C22  0.490530  0.198333  0.325037  0.745946
    O   O9   0.446914  0.838182  0.723348  -0.671412
    O   O10  0.611540  0.884363  0.702211  -0.553528
    C   C23  0.521619  0.811236  0.686876  0.751105
    O   O11  0.631493  0.058557  0.856502  -0.649178
    O   O12  0.565634  0.894668  0.938464  -0.523821
    C   C24  0.639179  0.989501  0.928485  0.769672
    O   O13  0.311995  0.054549  0.757204  -0.521172
    O   O14  0.515121  0.101969  0.666589  -0.613894
    C   C25  0.524804  0.210789  0.685305  0.686073
    O   O15  0.397592  0.996071  0.883378  -0.531373
    C   C26  0.321943  0.029946  0.852372  0.569315
    O   O16  0.516059  0.246088  0.777822  -0.489261
    Fe  Fe2  0.496643  0.000076  0.782431  1.484747
    C   C27  0.534884  0.231047  0.503642  -0.063641
    C   C28  0.532919  0.284494  0.596623  -0.180920
    C   C29  0.530592  0.398047  0.598693  0.164925
    C   C30  0.531084  0.462132  0.696964  -0.201563
    C   C31  0.566712  0.591397  0.689173  0.303459
    C   C32  0.515966  0.277071  0.414586  -0.118355
    C   C33  0.502859  0.384117  0.416499  0.092469
    C   C34  0.518245  0.448207  0.507312  -0.102180
    C   C35  0.510121  0.564690  0.506685  0.162794
    C   C36  0.520987  0.627909  0.597247  -0.199920
    C   C37  0.501777  0.732034  0.598026  0.005603
    C   C38  0.460679  0.425069  0.324761  -0.181146
    C   C39  0.504798  0.553130  0.318091  0.091865
    C   C40  0.497878  0.614228  0.415264  -0.084105
    C   C41  0.486999  0.723486  0.416410  0.022482
    C   C42  0.481222  0.775963  0.508341  -0.177799
    H   H10  0.455030  0.435017  0.724393  0.088076
    H   H11  0.546641  0.628576  0.758950  -0.006762
    H   H12  0.379076  0.403631  0.329435  0.075720
    H   H13  0.461731  0.577198  0.255043  0.033348
    H   H14  0.539002  0.144702  0.498163  0.149639
    H   H15  0.474064  0.861098  0.512085  0.162726
    H   H16  0.583530  0.443936  0.753955  0.093073
    H   H17  0.475557  0.384787  0.253960  0.073901
    H   H18  0.583970  0.574222  0.300658  0.049150
    C   C43  0.679522  0.633706  0.686545  -0.287076
    H   H19  0.714356  0.618005  0.759584  0.066873
    H   H20  0.703781  0.589073  0.623849  0.060794
    H   H21  0.705326  0.727251  0.674941  0.074338
