data_DB0-m2_o11_o29_f0_pcu.sym.21_repeat
_audit_creation_date              2024-02-23
_audit_creation_method            'Materials Studio'
_symmetry_space_group_name_H-M    'P1'
_symmetry_Int_Tables_number       1
_symmetry_cell_setting            triclinic
loop_
_symmetry_equiv_pos_as_xyz
  x,y,z
_cell_length_a                    27.5282
_cell_length_b                    11.0170
_cell_length_c                    9.5521
_cell_angle_alpha                 90.0205
_cell_angle_beta                  90.0156
_cell_angle_gamma                 89.9936
loop_
_atom_site_label
_atom_site_type_symbol
_atom_site_fract_x
_atom_site_fract_y
_atom_site_fract_z
_atom_site_U_iso_or_equiv
_atom_site_adp_type
_atom_site_occupancy
O1     O     0.49555   0.31838   0.60910   0.00000  Uiso   1.00
O2     O     0.49962   0.31940   0.36764   0.00000  Uiso   1.00
C1     C     0.49691   0.26235   0.48824   0.00000  Uiso   1.00
O3     O     0.42950   0.49740   0.61289   0.00000  Uiso   1.00
O4     O     0.42913   0.49630   0.37166   0.00000  Uiso   1.00
C2     C     0.40661   0.50170   0.49250   0.00000  Uiso   1.00
Cu1    Cu    0.50019   0.49419   0.63022   0.00000  Uiso   1.00
Cu2    Cu    0.49966   0.49613   0.34999   0.00000  Uiso   1.00
O5     O     0.50128   0.67067   0.61197   0.00000  Uiso   1.00
O6     O     0.50310   0.67218   0.37178   0.00000  Uiso   1.00
O7     O     0.57056   0.48298   0.60792   0.00000  Uiso   1.00
O8     O     0.57025   0.48750   0.36772   0.00000  Uiso   1.00
C3     C     0.50281   0.72821   0.49242   0.00000  Uiso   1.00
C4     C     0.59321   0.48462   0.48755   0.00000  Uiso   1.00
C5     C     0.17722   0.40372   0.44729   0.00000  Uiso   1.00
O9     O     0.20270   0.30591   0.40628   0.00000  Uiso   1.00
N1     N     0.20091   0.50320   0.49259   0.00000  Uiso   1.00
C6     C     0.17602   0.60125   0.53673   0.00000  Uiso   1.00
C7     C     0.27790   0.49024   0.36897   0.00000  Uiso   1.00
C8     C     0.32796   0.49045   0.36869   0.00000  Uiso   1.00
C9     C     0.32805   0.51830   0.61671   0.00000  Uiso   1.00
C10    C     0.27794   0.51952   0.61642   0.00000  Uiso   1.00
C11    C     0.25271   0.50474   0.49269   0.00000  Uiso   1.00
C12    C     0.10081   0.50033   0.48958   0.00000  Uiso   1.00
C13    C     0.12699   0.40083   0.44606   0.00000  Uiso   1.00
C14    C     0.10290   0.29913   0.40019   0.00000  Uiso   1.00
C15    C     0.12574   0.60127   0.53485   0.00000  Uiso   1.00
C16    C     0.35335   0.50372   0.49274   0.00000  Uiso   1.00
H1     H     0.34700   0.52922   0.71498   0.00000  Uiso   1.00
H2     H     0.25852   0.52993   0.71406   0.00000  Uiso   1.00
H3     H     0.12243   0.22058   0.36251   0.00000  Uiso   1.00
C17    C     0.64643   0.47897   0.48586   0.00000  Uiso   1.00
C18    C     0.97513   0.39016   0.45598   0.00000  Uiso   1.00
C19    C     0.97384   0.60284   0.51510   0.00000  Uiso   1.00
C20    C     0.94944   0.49567   0.48495   0.00000  Uiso   1.00
C21    C     0.94923   0.28279   0.43663   0.00000  Uiso   1.00
C22    C     0.89939   0.28175   0.43951   0.00000  Uiso   1.00
C23    C     0.87401   0.38740   0.46144   0.00000  Uiso   1.00
C24    C     0.89891   0.49394   0.48398   0.00000  Uiso   1.00
C25    C     0.87270   0.59866   0.50571   0.00000  Uiso   1.00
C26    C     0.82243   0.59564   0.50423   0.00000  Uiso   1.00
N2     N     0.79882   0.49010   0.48368   0.00000  Uiso   1.00
C27    C     0.82377   0.38659   0.46243   0.00000  Uiso   1.00
C28    C     0.72288   0.41854   0.58359   0.00000  Uiso   1.00
C29    C     0.67269   0.41250   0.58404   0.00000  Uiso   1.00
C30    C     0.67096   0.54648   0.38655   0.00000  Uiso   1.00
C31    C     0.72096   0.55132   0.38657   0.00000  Uiso   1.00
C32    C     0.74704   0.48752   0.48525   0.00000  Uiso   1.00
O10    O     0.79952   0.28266   0.43910   0.00000  Uiso   1.00
C33    C     0.02589   0.39395   0.44850   0.00000  Uiso   1.00
C34    C     0.05028   0.49886   0.48786   0.00000  Uiso   1.00
C35    C     0.02458   0.60227   0.52553   0.00000  Uiso   1.00
C36    C     0.05308   0.29541   0.40132   0.00000  Uiso   1.00
H4     H     0.74377   0.36713   0.65883   0.00000  Uiso   1.00
H5     H     0.88089   0.19626   0.42441   0.00000  Uiso   1.00
H6     H     0.96612   0.19559   0.42363   0.00000  Uiso   1.00
H7     H     0.03723   0.21401   0.35935   0.00000  Uiso   1.00
O11    O     0.20032   0.70041   0.57929   0.00000  Uiso   1.00
C37    C     0.10032   0.70159   0.57889   0.00000  Uiso   1.00
H8     H     0.34676   0.47896   0.27029   0.00000  Uiso   1.00
H9     H     0.25846   0.47973   0.27136   0.00000  Uiso   1.00
H10    H     0.11881   0.78127   0.61774   0.00000  Uiso   1.00
C38    C     0.94666   0.70845   0.53296   0.00000  Uiso   1.00
C39    C     0.89682   0.70609   0.52811   0.00000  Uiso   1.00
O12    O     0.79685   0.69766   0.52701   0.00000  Uiso   1.00
C40    C     0.05047   0.70244   0.57428   0.00000  Uiso   1.00
H11    H     0.96257   0.79674   0.54658   0.00000  Uiso   1.00
H12    H     0.65101   0.59879   0.31001   0.00000  Uiso   1.00
H13    H     0.87729   0.79024   0.54252   0.00000  Uiso   1.00
H14    H     0.73961   0.60462   0.30824   0.00000  Uiso   1.00
H15    H     0.03350   0.78294   0.61489   0.00000  Uiso   1.00
C41    C     0.50157   0.92750   0.37883   0.00000  Uiso   1.00
C42    C     0.50392   0.86107   0.49613   0.00000  Uiso   1.00
H16    H     0.50015   0.88206   0.27830   0.00000  Uiso   1.00
H17    H     0.50687   0.90215   0.59837   0.00000  Uiso   1.00
C43    C     0.50179   0.06182   0.37724   0.00000  Uiso   1.00
C44    C     0.49555   0.12958   0.49201   0.00000  Uiso   1.00
H18    H     0.50660   0.10600   0.27688   0.00000  Uiso   1.00
H19    H     0.48932   0.08936   0.59342   0.00000  Uiso   1.00
C45    C     0.46807   0.43765   0.91262   0.00000  Uiso   1.00
N3     N     0.50089   0.49174   0.83970   0.00000  Uiso   1.00
H20    H     0.43722   0.39668   0.86036   0.00000  Uiso   1.00
H21    H     0.53313   0.51065   0.88921   0.00000  Uiso   1.00
C46    C     0.47163   0.42647   0.06731   0.00000  Uiso   1.00
N4     N     0.49874   0.49733   0.14052   0.00000  Uiso   1.00
H22    H     0.44982   0.35827   0.11957   0.00000  Uiso   1.00
H23    H     0.51282   0.57204   0.09080   0.00000  Uiso   1.00
N5     N     0.64924   0.33250   0.68049   0.00000  Uiso   1.00
O13    O     0.67076   0.30552   0.79761   0.00000  Uiso   1.00
O14    O     0.61315   0.26548   0.63861   0.00000  Uiso   1.00
