# Generated by REPEAT Assigner based on pymatgen
data_DB0-m2_o2_o27_f0_pcu.sym.12
_audit_creation_date              2022-05-24
_audit_creation_method            REPEAT_Assigner
_cell_length_a                    15.162298
_cell_length_b                    13.677700
_cell_length_c                    19.244633
_cell_angle_alpha                 90.000000
_cell_angle_beta                  90.001434
_cell_angle_gamma                 90.000000
_cell_volume                      3991.055163
_symmetry_space_group_name_H-M    P1
_symmetry_Int_Tables_number       1
loop_
    _symmetry_equiv_pos_site_id
    _symmetry_equiv_pos_as_xyz
    1  x,y,z
loop_
    _atom_site_type_symbol
    _atom_site_label
    _atom_site_fract_x
    _atom_site_fract_y
    _atom_site_fract_z
    _atom_type_partial_charge
    O   O1   0.372113  0.583834  0.501784  -0.645340
    O   O2   0.629230  0.416398  0.498484  -0.681197
    O   O3   0.628432  0.584027  0.502166  -0.656730
    O   O4   0.372907  0.416397  0.496726  -0.649991
    C   C1   0.330720  0.499853  0.499083  1.034298
    C   C2   0.670867  0.500358  0.500245  1.084489
    O   O5   0.503735  0.584149  0.398588  -0.593358
    O   O6   0.497000  0.416191  0.600959  -0.556235
    O   O7   0.503094  0.584236  0.600545  -0.564667
    O   O8   0.499286  0.416437  0.398980  -0.565809
    C   C3   0.501718  0.500127  0.366015  0.563708
    C   C4   0.499932  0.500230  0.633310  0.525344
    Cu  Cu1  0.500298  0.597862  0.500086  0.819478
    Cu  Cu2  0.501057  0.402486  0.499645  0.844383
    C   C5   0.504271  0.586716  0.253553  -0.169559
    C   C6   0.496119  0.413807  0.745461  -0.211049
    C   C7   0.503154  0.588225  0.745730  -0.175720
    C   C8   0.498551  0.412306  0.253141  -0.212387
    H   H1   0.506608  0.655471  0.280992  0.113630
    H   H2   0.493753  0.345353  0.717708  0.136260
    H   H3   0.506403  0.657865  0.718796  0.113399
    H   H4   0.496292  0.342188  0.279201  0.133135
    C   C9   0.503976  0.587120  0.181879  0.152587
    C   C10  0.495982  0.413270  0.817053  0.163732
    C   C11  0.503058  0.587691  0.817425  0.150019
    C   C12  0.498188  0.412843  0.181428  0.165536
    H   H5   0.506239  0.656399  0.155046  0.018382
    H   H6   0.493589  0.343862  0.843749  0.013520
    H   H7   0.506226  0.656780  0.844625  0.019706
    H   H8   0.495873  0.343567  0.154537  0.014920
    C   C13  0.500797  0.500254  0.145355  -0.525802
    C   C14  0.499286  0.500226  0.853599  -0.523144
    C   C15  0.501494  0.499273  0.289736  0.108113
    C   C16  0.499374  0.501223  0.709456  0.123378
    N   N1   0.497689  0.415419  0.034076  -0.340247
    N   N2   0.503623  0.584834  0.965023  -0.337890
    N   N3   0.497358  0.415013  0.965373  -0.342155
    N   N4   0.503942  0.585211  0.033703  -0.344440
    C   C17  0.500063  0.499854  0.929983  0.908893
    C   C18  0.500727  0.500459  0.069108  0.912308
    C   C19  0.095292  0.582840  0.481650  -0.582711
    C   C20  0.905443  0.419148  0.476331  -0.603323
    C   C21  0.906344  0.579538  0.524109  -0.588047
    C   C22  0.095171  0.416645  0.517771  -0.597509
    H   H9   0.061250  0.648228  0.465608  0.172713
    H   H10  0.939139  0.356109  0.455436  0.176505
    H   H11  0.941416  0.642139  0.544498  0.175573
    H   H12  0.060129  0.351639  0.533638  0.177680
    C   C23  0.186196  0.583346  0.481532  0.696020
    C   C24  0.814577  0.418978  0.476607  0.726517
    C   C25  0.815457  0.580310  0.524478  0.713613
    C   C26  0.186249  0.416150  0.517773  0.718523
    C   C27  0.233077  0.499704  0.499315  -0.768628
    C   C28  0.768215  0.500009  0.500390  -0.802105
    C   C29  0.049105  0.499585  0.499473  0.355183
    C   C30  0.952107  0.499448  0.499705  0.366348
    C   C31  0.530592  0.106742  0.556755  -0.213142
    C   C32  0.433497  0.893522  0.465875  -0.218565
    C   C33  0.463875  0.105663  0.445387  -0.204953
    C   C34  0.562299  0.894264  0.535901  -0.207384
    H   H13  0.556226  0.070486  0.602136  0.125524
    H   H14  0.379370  0.930042  0.439867  0.116173
    H   H15  0.440080  0.068992  0.399328  0.125190
    H   H16  0.615187  0.930750  0.562939  0.116958
    C   C35  0.532993  0.207381  0.554881  0.054031
    C   C36  0.435998  0.793036  0.465303  0.045829
    C   C37  0.464917  0.206706  0.446094  0.045467
    C   C38  0.561505  0.793295  0.535601  0.002911
    H   H17  0.561824  0.247017  0.598094  0.091785
    H   H18  0.385444  0.753993  0.436861  0.138747
    H   H19  0.439087  0.245531  0.401996  0.099950
    H   H20  0.611150  0.753239  0.563637  0.163311
    N   N5   0.501120  0.256250  0.499623  -0.026879
    N   N6   0.500014  0.744269  0.499121  -0.055995
    C   C39  0.496376  0.054071  0.501622  0.116195
    C   C40  0.496936  0.946003  0.501335  0.146814
    O   O9   0.228536  0.666308  0.460410  -0.542241
    H   H21  0.226354  0.710369  0.501189  0.337354
    O   O10  0.771774  0.339462  0.449730  -0.531334
    H   H22  0.774340  0.289775  0.487085  0.331216
    O   O11  0.773496  0.660866  0.550235  -0.551832
    H   H23  0.776536  0.709395  0.512091  0.338440
    O   O12  0.228878  0.332606  0.537384  -0.538264
    H   H24  0.225714  0.289883  0.495921  0.334844
