# generated using pymatgen
data_Fe2H15C41O16F3
_symmetry_space_group_name_H-M   'P 1'
_cell_length_a   15.85243000
_cell_length_b   9.29959400
_cell_length_c   20.28519200
_cell_angle_alpha   93.52469700
_cell_angle_beta   100.85342900
_cell_angle_gamma   97.12687900
_symmetry_Int_Tables_number   1
_chemical_formula_structural   Fe2H15C41O16F3
_chemical_formula_sum   'Fe2 H15 C41 O16 F3'
_cell_volume   2903.21703012
_cell_formula_units_Z   1
loop_
 _symmetry_equiv_pos_site_id
 _symmetry_equiv_pos_as_xyz
  1  'x, y, z'
loop_
 _atom_site_type_symbol
 _atom_site_label
 _atom_site_symmetry_multiplicity
 _atom_site_fract_x
 _atom_site_fract_y
 _atom_site_fract_z
 _atom_site_occupancy
  Fe  Fe1  1  0.49313200  0.98150900  0.85415500  1
  Fe  Fe2  1  0.50161400  0.01042800  0.14504000  1
  H  H1  1  0.20989900  0.95267000  0.83955500  1
  H  H2  1  0.06591100  0.94257200  0.86790900  1
  H  H3  1  0.18000700  0.04071400  0.07464800  1
  H  H4  1  0.81201600  0.96340200  0.92285600  1
  H  H5  1  0.93237500  0.00898300  0.12762300  1
  H  H6  1  0.50275300  0.43898900  0.82815400  1
  H  H7  1  0.50583400  0.70479800  0.66446000  1
  H  H8  1  0.48544800  0.24223000  0.63103500  1
  H  H9  1  0.40040800  0.30354300  0.53290600  1
  H  H10  1  0.40523100  0.31993200  0.41501400  1
  H  H11  1  0.60141700  0.68980600  0.46772000  1
  H  H12  1  0.59655600  0.67344000  0.58563700  1
  H  H13  1  0.51611200  0.75135700  0.36973500  1
  H  H14  1  0.49686000  0.55499100  0.17226800  1
  H  H15  1  0.49522300  0.28871700  0.33586400  1
  C  C1  1  0.20432000  0.97095500  0.89160700  1
  C  C2  1  0.12325000  0.96647200  0.90729900  1
  C  C3  1  0.11546900  0.99451300  0.97307900  1
  C  C4  1  0.18844500  0.02366100  0.02326600  1
  C  C5  1  0.27037500  0.02688200  0.00840100  1
  C  C6  1  0.27815500  0.00380400  0.94136600  1
  C  C7  1  0.03143000  0.99082400  0.99011500  1
  C  C8  1  0.96137800  0.98819300  0.00530800  1
  C  C9  1  0.80460000  0.97103700  0.97474400  1
  C  C10  1  0.72365900  0.96892700  0.99133300  1
  C  C11  1  0.71750900  0.98014700  0.05933300  1
  C  C12  1  0.79283200  0.99401000  0.10912100  1
  C  C13  1  0.87274200  0.99733000  0.09062800  1
  C  C14  1  0.87823700  0.98527400  0.02387500  1
  C  C15  1  0.48604000  0.18459800  0.75828800  1
  C  C16  1  0.36220800  0.01901800  0.92061900  1
  C  C17  1  0.64850500  0.96127800  0.93503300  1
  C  C18  1  0.50558000  0.71404300  0.79788400  1
  C  C19  1  0.49367300  0.27975400  0.20214300  1
  C  C20  1  0.34518000  0.04193000  0.06498500  1
  C  C21  1  0.63276200  0.96806300  0.07924800  1
  C  C22  1  0.51328900  0.80902800  0.24214400  1
  C  C23  1  0.50499400  0.58630600  0.75135700  1
  C  C24  1  0.50380400  0.59878100  0.68356000  1
  C  C25  1  0.49690800  0.47531400  0.63977400  1
  C  C26  1  0.48967400  0.33947900  0.66414800  1
  C  C27  1  0.49333600  0.32732900  0.73191000  1
  C  C28  1  0.50202300  0.45042900  0.77539900  1
  C  C29  1  0.44572900  0.38774800  0.51928800  1
  C  C30  1  0.44861100  0.39677800  0.45213400  1
  C  C31  1  0.50381700  0.50577300  0.43262100  1
  C  C32  1  0.55614100  0.60554100  0.48134700  1
  C  C33  1  0.55324600  0.59652300  0.54850400  1
  C  C34  1  0.49802900  0.48754000  0.56801000  1
  C  C35  1  0.51176100  0.65418600  0.33654500  1
  C  C36  1  0.50739700  0.66646200  0.26872300  1
  C  C37  1  0.49834300  0.54346300  0.22511100  1
  C  C38  1  0.49543200  0.40749300  0.24900700  1
  C  C39  1  0.49727200  0.39484100  0.31687500  1
  C  C40  1  0.50470500  0.51823400  0.36083400  1
  C  C41  1  0.78888100  0.00061000  0.18271200  1
  O  O1  1  0.52417700  0.17240100  0.82062400  1
  O  O2  1  0.41906600  0.13528100  0.94208300  1
  O  O3  1  0.43683800  0.07307600  0.72175600  1
  O  O4  1  0.37780300  0.92303100  0.87583400  1
  O  O5  1  0.57075100  0.97983000  0.94441300  1
  O  O6  1  0.66089200  0.94641400  0.87296600  1
  O  O7  1  0.50380400  0.84446600  0.77672100  1
  O  O8  1  0.50245200  0.69698100  0.86115500  1
  O  O9  1  0.49323000  0.14866600  0.22282100  1
  O  O10  1  0.49704500  0.29709800  0.13893200  1
  O  O11  1  0.42057900  0.00898100  0.05606800  1
  O  O12  1  0.33365800  0.07020600  0.12657800  1
  O  O13  1  0.56240100  0.92142500  0.27805800  1
  O  O14  1  0.61488600  0.07002400  0.12011100  1
  O  O15  1  0.47349300  0.82009800  0.18015200  1
  O  O16  1  0.57727000  0.84904100  0.06070400  1
  F  F1  1  0.86913100  0.98971200  0.22137000  1
  F  F2  1  0.73050400  0.88678200  0.19486800  1
  F  F3  1  0.76440200  0.13163800  0.20234300  1
