# generated using pymatgen
data_FeH10C24N2O8F
_symmetry_space_group_name_H-M   'P 1'
_cell_length_a   15.27179500
_cell_length_b   9.38538300
_cell_length_c   20.15411500
_cell_angle_alpha   93.65996200
_cell_angle_beta   104.57796900
_cell_angle_gamma   107.12491600
_symmetry_Int_Tables_number   1
_chemical_formula_structural   FeH10C24N2O8F
_chemical_formula_sum   'Fe2 H20 C48 N4 O16 F2'
_cell_volume   2641.88980968
_cell_formula_units_Z   2
loop_
 _symmetry_equiv_pos_site_id
 _symmetry_equiv_pos_as_xyz
  1  'x, y, z'
loop_
 _atom_site_type_symbol
 _atom_site_label
 _atom_site_symmetry_multiplicity
 _atom_site_fract_x
 _atom_site_fract_y
 _atom_site_fract_z
 _atom_site_occupancy
  Fe  Fe1  1  0.49491100  0.00742000  0.84832400  1
  Fe  Fe2  1  0.52149300  0.03382100  0.15090500  1
  H  H1  1  0.82307100  0.11270600  0.17134300  1
  H  H2  1  0.97388400  0.11882200  0.14940500  1
  H  H3  1  0.83463000  0.00397600  0.93296600  1
  H  H4  1  0.06897800  0.12058800  0.06789600  1
  H  H5  1  0.94526200  0.89949500  0.93585100  1
  H  H6  1  0.03840300  0.91554300  0.85317000  1
  H  H7  1  0.18132500  0.01870000  0.06843200  1
  H  H8  1  0.49454900  0.46211000  0.82149900  1
  H  H9  1  0.49740200  0.72507300  0.65643000  1
  H  H10  1  0.48431800  0.26287300  0.62389200  1
  H  H11  1  0.52862900  0.77739500  0.36916100  1
  H  H12  1  0.51134000  0.31381400  0.33710400  1
  H  H13  1  0.39403100  0.52044700  0.10642500  1
  H  H14  1  0.41831800  0.52863000  0.99042700  1
  H  H15  1  0.71969100  0.66854000  0.08130300  1
  H  H16  1  0.69548200  0.66051100  0.19724400  1
  H  H17  1  0.28464700  0.16427500  0.81734700  1
  H  H18  1  0.27187900  0.14887700  0.69321900  1
  H  H19  1  0.07382300  0.70480900  0.65716100  1
  H  H20  1  0.08410700  0.72103800  0.78112800  1
  C  C1  1  0.82496000  0.08948400  0.11858900  1
  C  C2  1  0.90999500  0.09144500  0.10635400  1
  C  C3  1  0.91292100  0.05231000  0.04008800  1
  C  C4  1  0.83109200  0.02172400  0.98544400  1
  C  C5  1  0.74529400  0.02070500  0.99700900  1
  C  C6  1  0.74181000  0.04960000  0.06471800  1
  C  C7  1  0.00454900  0.05130800  0.02928100  1
  C  C8  1  0.00965700  0.96869500  0.97449600  1
  C  C9  1  0.10326200  0.94073700  0.89519100  1
  C  C10  1  0.18849100  0.95456200  0.88053000  1
  C  C11  1  0.27310400  0.99329400  0.93378100  1
  C  C12  1  0.27035400  0.01444100  0.00235800  1
  C  C13  1  0.18427500  0.00536300  0.01561800  1
  C  C14  1  0.10119600  0.97233800  0.96220500  1
  C  C15  1  0.48444800  0.20513300  0.75063000  1
  C  C16  1  0.36357100  0.01772700  0.91630500  1
  C  C17  1  0.66258200  0.99859400  0.93631700  1
  C  C18  1  0.49351200  0.73560500  0.78988000  1
  C  C19  1  0.52480100  0.30186400  0.20724300  1
  C  C20  1  0.35416700  0.03873400  0.06262300  1
  C  C21  1  0.65161500  0.02712800  0.08189600  1
  C  C22  1  0.53735500  0.83502100  0.24421100  1
  C  C23  1  0.49466700  0.60793800  0.74365900  1
  C  C24  1  0.49523400  0.61955800  0.67558500  1
  C  C25  1  0.49275700  0.49626500  0.63229800  1
  C  C26  1  0.48745100  0.36059000  0.65691400  1
  C  C27  1  0.48993700  0.34949200  0.72504000  1
  C  C28  1  0.49452700  0.47331900  0.76848400  1
  C  C29  1  0.51104600  0.53047900  0.43184900  1
  C  C30  1  0.49737400  0.50831800  0.56088800  1
  C  C31  1  0.52708600  0.67970000  0.33692400  1
  C  C32  1  0.53073200  0.69192100  0.27004200  1
  C  C33  1  0.52943200  0.57021400  0.22719300  1
  C  C34  1  0.52361400  0.43309800  0.25133300  1
  C  C35  1  0.51700300  0.42035000  0.31823200  1
  C  C36  1  0.51859800  0.54337000  0.36112600  1
  C  C37  1  0.54338600  0.59266500  0.15903500  1
  C  C38  1  0.46562300  0.55587800  0.10100200  1
  C  C39  1  0.47923100  0.55920500  0.03593400  1
  C  C40  1  0.57047500  0.59830300  0.02885200  1
  C  C41  1  0.64818200  0.63762700  0.08686500  1
  C  C42  1  0.63462600  0.63436900  0.15190300  1
  C  C43  1  0.18755800  0.94147800  0.80763700  1
  C  C44  1  0.24028100  0.06139400  0.78276800  1
  C  C45  1  0.23264600  0.05337000  0.71287900  1
  C  C46  1  0.17368900  0.92475400  0.66786400  1
  C  C47  1  0.12087800  0.80507700  0.69254100  1
  C  C48  1  0.12685000  0.81421600  0.76217800  1
  N  N1  1  0.49593600  0.38787600  0.52007700  1
  N  N2  1  0.50255100  0.39863200  0.45632800  1
  N  N3  1  0.51230000  0.65089700  0.47260300  1
  N  N4  1  0.50567300  0.64013000  0.53637100  1
  O  O1  1  0.53095900  0.20432300  0.81491600  1
  O  O2  1  0.43406600  0.14373700  0.94275000  1
  O  O3  1  0.43025300  0.07829500  0.71033100  1
  O  O4  1  0.37083700  0.92357200  0.86830300  1
  O  O5  1  0.58641500  0.03003800  0.94226600  1
  O  O6  1  0.66899700  0.96270300  0.87414600  1
  O  O7  1  0.49562100  0.86676300  0.76922800  1
  O  O8  1  0.48975900  0.71841300  0.85330700  1
  O  O9  1  0.52015500  0.17325600  0.23016100  1
  O  O10  1  0.52943500  0.30922400  0.14340100  1
  O  O11  1  0.43241300  0.01538300  0.05627600  1
  O  O12  1  0.34697300  0.06837200  0.12515800  1
  O  O13  1  0.60180800  0.95994200  0.28013400  1
  O  O14  1  0.64719800  0.11576100  0.13313800  1
  O  O15  1  0.48189800  0.83626300  0.18304300  1
  O  O16  1  0.57906500  0.90509100  0.05320600  1
  F  F1  1  0.58389700  0.59889700  0.96493900  1
  F  F2  1  0.16647500  0.91694300  0.59923800  1
