# Generated by REPEAT Assigner based on pymatgen
data_DB0-m3_o13_o79_f0_fsc.sym.5
_audit_creation_date              2022-05-24
_audit_creation_method            REPEAT_Assigner
_cell_length_a                    11.269803
_cell_length_b                    10.958428
_cell_length_c                    6.661037
_cell_angle_alpha                 90.000000
_cell_angle_beta                  96.123257
_cell_angle_gamma                 90.000000
_cell_volume                      817.940235
_symmetry_space_group_name_H-M    P1
_symmetry_Int_Tables_number       1
loop_
    _symmetry_equiv_pos_site_id
    _symmetry_equiv_pos_as_xyz
    1  x,y,z
loop_
    _atom_site_type_symbol
    _atom_site_label
    _atom_site_fract_x
    _atom_site_fract_y
    _atom_site_fract_z
    _atom_type_partial_charge
    C   C1   0.984548  0.890790  0.793764  -0.319639
    C   C2   0.015452  0.109210  0.206235  -0.319635
    C   C3   0.019440  0.891333  0.207026  -0.271130
    C   C4   0.980560  0.108667  0.792974  -0.271130
    H   H1   0.970995  0.890907  0.631168  0.190146
    H   H2   0.029005  0.109093  0.368832  0.190145
    H   H3   0.031950  0.891973  0.369669  0.129152
    H   H4   0.968050  0.108027  0.630331  0.129152
    C   C5   0.997019  0.781335  0.896277  -0.054551
    C   C6   0.002981  0.218665  0.103723  -0.054546
    C   C7   0.010790  0.781477  0.105218  -0.010976
    C   C8   0.989210  0.218523  0.894782  -0.010980
    C   C9   0.467911  0.523717  0.415819  -0.030407
    C   C10  0.532089  0.476283  0.584181  -0.030425
    C   C11  0.009479  0.000142  0.103234  0.211684
    C   C12  0.990521  0.999858  0.896766  0.211689
    C   C13  0.345708  0.532958  0.408866  0.309613
    C   C14  0.654292  0.467042  0.591134  0.309631
    H   H5   0.523095  0.401441  0.878450  0.077234
    H   H6   0.476905  0.598559  0.121550  0.077233
    H   H7   0.696060  0.582923  0.143362  0.137805
    H   H8   0.303941  0.417077  0.856638  0.137797
    O   O1   0.892591  0.369525  0.679769  -0.495849
    O   O2   0.107409  0.630475  0.320231  -0.495843
    O   O3   0.102346  0.366840  0.319210  -0.759977
    O   O4   0.897655  0.633160  0.680790  -0.759977
    O   O5   0.098029  0.370983  0.738303  -0.590179
    O   O6   0.901971  0.629017  0.261697  -0.590175
    O   O7   0.897043  0.374060  0.260023  -0.710979
    O   O8   0.102957  0.625940  0.739977  -0.710978
    C   C15  0.992959  0.329860  0.775000  0.584259
    C   C16  0.007041  0.670140  0.224999  0.584248
    C   C17  0.001124  0.330106  0.223419  0.851041
    C   C18  0.998877  0.669894  0.776580  0.851047
    Zn  Zn1  0.132875  0.498030  0.532230  0.993739
    Zn  Zn2  0.867125  0.501970  0.467770  0.993741
    N   N1   0.710867  0.505263  0.434228  -0.011361
    N   N2   0.289133  0.494737  0.565772  -0.011354
    C   C19  0.473454  0.439076  0.744869  -0.045463
    C   C20  0.526546  0.560924  0.255131  -0.045461
    C   C21  0.350749  0.448583  0.732984  -0.130946
    C   C22  0.649251  0.551417  0.267016  -0.130955
    O   O9   0.718758  0.421739  0.760057  -0.396297
    H   H9   0.737063  0.494004  0.847052  0.343076
    O   O10  0.281242  0.578261  0.239942  -0.396300
    H   H10  0.262937  0.505997  0.152948  0.343082
