# generated using pymatgen
data_ZnH14C28NO4
_symmetry_space_group_name_H-M   'P 1'
_cell_length_a   19.32206900
_cell_length_b   16.71448300
_cell_length_c   17.87378700
_cell_angle_alpha   90.00000000
_cell_angle_beta   90.00151100
_cell_angle_gamma   90.00000000
_symmetry_Int_Tables_number   1
_chemical_formula_structural   ZnH14C28NO4
_chemical_formula_sum   'Zn2 H28 C56 N2 O8'
_cell_volume   5772.48953909
_cell_formula_units_Z   2
loop_
 _symmetry_equiv_pos_site_id
 _symmetry_equiv_pos_as_xyz
  1  'x, y, z'
loop_
 _atom_site_type_symbol
 _atom_site_label
 _atom_site_symmetry_multiplicity
 _atom_site_fract_x
 _atom_site_fract_y
 _atom_site_fract_z
 _atom_site_occupancy
  Zn  Zn1  1  0.00000000  0.09021500  0.00000000  1
  Zn  Zn2  1  0.00000000  0.90978500  0.00000000  1
  H  H1  1  0.07854600  0.36658300  0.08344400  1
  H  H2  1  0.92145400  0.63341700  0.91655600  1
  H  H3  1  0.92145400  0.36658300  0.91655600  1
  H  H4  1  0.07854600  0.63341700  0.08344400  1
  H  H5  1  0.07759100  0.21949900  0.08243600  1
  H  H6  1  0.92240900  0.78050100  0.91756400  1
  H  H7  1  0.92240900  0.21949900  0.91756400  1
  H  H8  1  0.07759100  0.78050100  0.08243600  1
  H  H9  1  0.00009700  0.12732200  0.37718700  1
  H  H10  1  0.99990300  0.87267800  0.62281300  1
  H  H11  1  0.99990300  0.12732200  0.62281300  1
  H  H12  1  0.00009700  0.87267800  0.37718700  1
  H  H13  1  0.00013000  0.12806400  0.24053800  1
  H  H14  1  0.99987000  0.87193600  0.75946200  1
  H  H15  1  0.99987000  0.12806400  0.75946200  1
  H  H16  1  0.00013000  0.87193600  0.24053800  1
  H  H17  1  0.67365300  0.80213700  0.99981400  1
  H  H18  1  0.32634700  0.19786300  0.00018600  1
  H  H19  1  0.32634700  0.80213700  0.00018600  1
  H  H20  1  0.67365300  0.19786300  0.99981400  1
  H  H21  1  0.44747900  0.79802000  0.00013600  1
  H  H22  1  0.55252100  0.20198000  0.99986400  1
  H  H23  1  0.55252100  0.79802000  0.99986400  1
  H  H24  1  0.44747900  0.20198000  0.00013600  1
  H  H25  1  0.77896500  0.12753800  0.99983300  1
  H  H26  1  0.22103500  0.87246200  0.00016700  1
  H  H27  1  0.22103500  0.12753800  0.00016700  1
  H  H28  1  0.77896500  0.87246200  0.99983300  1
  C  C1  1  0.13654000  0.00000000  0.00004100  1
  C  C2  1  0.86346000  0.00000000  0.99995900  1
  C  C3  1  0.00003800  0.00000000  0.14835000  1
  C  C4  1  0.99996200  0.00000000  0.85165000  1
  C  C5  1  0.04375100  0.33493400  0.04647900  1
  C  C6  1  0.95624900  0.66506600  0.95352100  1
  C  C7  1  0.95624900  0.33493400  0.95352100  1
  C  C8  1  0.04375100  0.66506600  0.04647900  1
  C  C9  1  0.04313100  0.25209400  0.04582200  1
  C  C10  1  0.95686900  0.74790600  0.95417800  1
  C  C11  1  0.95686900  0.25209400  0.95417800  1
  C  C12  1  0.04313100  0.74790600  0.04582200  1
  C  C13  1  0.00000000  0.37710300  0.00000000  1
  C  C14  1  0.00000000  0.62289700  0.00000000  1
  C  C15  1  0.00000000  0.46372700  0.00000000  1
  C  C16  1  0.00000000  0.53627300  0.00000000  1
  C  C17  1  0.00009900  0.07130600  0.34696600  1
  C  C18  1  0.99990100  0.92869400  0.65303400  1
  C  C19  1  0.99990100  0.07130600  0.65303400  1
  C  C20  1  0.00009900  0.92869400  0.34696600  1
  C  C21  1  0.00011100  0.07144200  0.26971500  1
  C  C22  1  0.99988900  0.92855800  0.73028500  1
  C  C23  1  0.99988900  0.07144200  0.73028500  1
  C  C24  1  0.00011100  0.92855800  0.26971500  1
  C  C25  1  0.00008800  0.00000000  0.23056900  1
  C  C26  1  0.99991200  0.00000000  0.76943100  1
  C  C27  1  0.00007600  0.00000000  0.38571500  1
  C  C28  1  0.99992400  0.00000000  0.61428500  1
  C  C29  1  0.00002400  0.00000000  0.46622500  1
  C  C30  1  0.99997600  0.00000000  0.53377500  1
  C  C31  1  0.75170800  0.92890000  0.99985500  1
  C  C32  1  0.24829200  0.07110000  0.00014500  1
  C  C33  1  0.24829200  0.92890000  0.00014500  1
  C  C34  1  0.75170800  0.07110000  0.99985500  1
  C  C35  1  0.78776200  0.00000000  0.99989000  1
  C  C36  1  0.21223800  0.00000000  0.00011000  1
  C  C37  1  0.64396900  0.00000000  0.99989100  1
  C  C38  1  0.35603100  0.00000000  0.00010900  1
  C  C39  1  0.68034600  0.92920100  0.99986500  1
  C  C40  1  0.31965400  0.07079900  0.00013500  1
  C  C41  1  0.31965400  0.92920100  0.00013500  1
  C  C42  1  0.68034600  0.07079900  0.99986500  1
  C  C43  1  0.64553700  0.85803800  0.99985400  1
  C  C44  1  0.35446300  0.14196200  0.00014600  1
  C  C45  1  0.35446300  0.85803800  0.00014600  1
  C  C46  1  0.64553700  0.14196200  0.99985400  1
  C  C47  1  0.46371700  0.92764300  0.00003700  1
  C  C48  1  0.53628300  0.07235700  0.99996300  1
  C  C49  1  0.53628300  0.92764300  0.99996300  1
  C  C50  1  0.46371700  0.07235700  0.00003700  1
  C  C51  1  0.42811200  0.00000000  0.00006100  1
  C  C52  1  0.57188800  0.00000000  0.99993900  1
  C  C53  1  0.42534800  0.85683000  0.00010400  1
  C  C54  1  0.57465200  0.14317000  0.99989600  1
  C  C55  1  0.57465200  0.85683000  0.99989600  1
  C  C56  1  0.42534800  0.14317000  0.00010400  1
  N  N1  1  0.00000000  0.21175800  0.00000000  1
  N  N2  1  0.00000000  0.78824200  0.00000000  1
  O  O1  1  0.10293400  0.06828500  0.00000700  1
  O  O2  1  0.89706600  0.93171500  0.99999300  1
  O  O3  1  0.89706600  0.06828500  0.99999300  1
  O  O4  1  0.10293400  0.93171500  0.00000700  1
  O  O5  1  0.00000900  0.06826300  0.11182000  1
  O  O6  1  0.99999100  0.93173700  0.88818000  1
  O  O7  1  0.99999100  0.06826300  0.88818000  1
  O  O8  1  0.00000900  0.93173700  0.11182000  1
