# Generated by REPEAT Assigner based on pymatgen
data_DB0-m29_o80_o151_f0_pts.sym.31
_audit_creation_date              2022-05-24
_audit_creation_method            REPEAT_Assigner
_cell_length_a                    13.978111
_cell_length_b                    9.357525
_cell_length_c                    26.676737
_cell_angle_alpha                 94.540503
_cell_angle_beta                  89.698332
_cell_angle_gamma                 69.213664
_cell_volume                      3249.889950
_symmetry_space_group_name_H-M    P1
_symmetry_Int_Tables_number       1
loop_
    _symmetry_equiv_pos_site_id
    _symmetry_equiv_pos_as_xyz
    1  x,y,z
loop_
    _atom_site_type_symbol
    _atom_site_label
    _atom_site_fract_x
    _atom_site_fract_y
    _atom_site_fract_z
    _atom_type_partial_charge
    H   H1   0.140237  0.988993  0.826981  0.202945
    C   C1   0.281735  0.972420  0.079367  -0.150832
    C   C2   0.227739  0.943536  0.117902  -0.266907
    C   C3   0.140313  0.932726  0.097547  0.464615
    N   N1   0.137950  0.953948  0.048163  -0.472609
    C   C4   0.224889  0.978112  0.036832  0.415993
    C   C5   0.067934  0.908908  0.124533  -0.373758
    C   C6   0.967928  0.914039  0.106329  0.321908
    C   C7   0.887142  0.931588  0.138557  -0.276069
    C   C8   0.805330  0.938269  0.109273  -0.067315
    C   C9   0.839203  0.924842  0.059556  0.255215
    N   N2   0.939754  0.906992  0.058233  -0.246258
    C   C10  0.775723  0.928564  0.015134  -0.289147
    C   C11  0.802236  0.953447  0.969377  0.397119
    C   C12  0.745974  0.956745  0.926704  -0.164927
    C   C13  0.800699  0.983567  0.888004  -0.190493
    C   C14  0.887584  0.996358  0.908465  0.415610
    N   N3   0.889114  0.977780  0.958023  -0.458273
    C   C15  0.960282  0.019451  0.881440  -0.326831
    C   C16  0.059872  0.016558  0.899768  0.313012
    C   C17  0.140760  0.999295  0.867622  -0.297673
    C   C18  0.222390  0.993791  0.896959  -0.065216
    C   C19  0.188184  0.007646  0.946657  0.274314
    N   N4   0.087746  0.024634  0.947882  -0.246908
    C   C20  0.251490  0.003510  0.991140  -0.351878
    H   H2   0.250207  0.930742  0.156490  0.139856
    H   H3   0.079870  0.897999  0.164378  0.189431
    H   H4   0.887918  0.940765  0.179196  0.189574
    H   H5   0.703075  0.913512  0.019882  0.179272
    H   H6   0.779169  0.993578  0.849218  0.143269
    H   H7   0.948931  0.028326  0.841477  0.175872
    H   H8   0.324456  0.017605  0.986369  0.206131
    H   H9   0.989298  0.881008  0.026991  0.224939
    H   H10  0.038128  0.050077  0.979075  0.234413
    O   O1   0.524017  0.770431  0.786530  -0.466129
    O   O2   0.559139  0.626651  0.852496  -0.439343
    C   C21  0.539889  0.638311  0.804638  0.400570
    O   O3   0.404589  0.960889  0.899520  -0.564488
    O   O4   0.330276  0.962979  0.824816  -0.551875
    C   C22  0.322335  0.972923  0.874092  0.611799
    O   O5   0.633035  0.981144  0.775429  -0.473182
    O   O6   0.639466  0.847207  0.882602  -0.604012
    C   C23  0.645781  0.943487  0.919886  0.728003
    O   O7   0.475600  0.116126  0.810625  -0.568509
    C   C24  0.550360  0.105295  0.778811  0.598259
    O   O8   0.563825  0.060736  0.935449  -0.529836
    Fe  Fe1  0.512125  0.925120  0.845012  1.457174
    O   O9   0.550515  0.805073  0.190753  -0.567976
    C   C25  0.496496  0.810403  0.231863  0.598055
    O   O10  0.463242  0.859336  0.074172  -0.546470
    O   O11  0.432659  0.941916  0.252413  -0.502151
    O   O12  0.389036  0.084401  0.121383  -0.642506
    C   C26  0.382538  0.982895  0.085963  0.729370
    Fe  Fe2  0.515176  0.001439  0.159472  1.426725
    O   O13  0.623717  0.971796  0.106082  -0.518250
    O   O14  0.697534  0.964032  0.181124  -0.535444
    C   C27  0.705602  0.957931  0.131921  0.597183
    O   O15  0.501999  0.150128  0.219897  -0.458280
    O   O16  0.522915  0.280670  0.155297  -0.478191
    C   C28  0.510192  0.274916  0.203769  0.481141
    H   H11  0.514265  0.546646  0.179910  0.166502
    C   C29  0.505139  0.407474  0.238637  0.177866
    C   C30  0.496948  0.401803  0.290001  -0.210790
    H   H12  0.496297  0.298631  0.305326  0.147472
    C   C31  0.492584  0.526980  0.322322  0.072489
    C   C32  0.493319  0.659886  0.303514  -0.239637
    H   H13  0.488999  0.757728  0.329082  0.137251
    C   C33  0.501076  0.666995  0.252274  0.137040
    C   C34  0.508966  0.539737  0.220007  -0.287383
    C   C35  0.439223  0.541430  0.565397  -0.160738
    H   H14  0.371417  0.626190  0.552076  0.122240
    C   C36  0.447761  0.523300  0.616140  -0.103732
    H   H15  0.386105  0.592210  0.642156  0.113964
    C   C37  0.533292  0.414382  0.633588  -0.054036
    C   C38  0.611965  0.326862  0.600333  -0.048151
    H   H16  0.679419  0.242080  0.613945  0.103175
    C   C39  0.605291  0.349302  0.549763  -0.173319
    H   H17  0.667260  0.280350  0.523926  0.112219
    C   C40  0.518238  0.455189  0.532072  0.126001
    C   C41  0.550680  0.253693  0.705351  -0.238339
    C   C42  0.551587  0.243209  0.757097  0.110488
    C   C43  0.543026  0.369727  0.789896  -0.300431
    C   C44  0.539098  0.505888  0.771328  0.196757
    C   C45  0.534883  0.517382  0.720099  -0.200875
    H   H18  0.529505  0.623404  0.704825  0.154409
    C   C46  0.539794  0.393485  0.687308  0.158712
    C   C47  0.421016  0.482631  0.454355  -0.028661
    H   H19  0.358963  0.470793  0.475875  0.098041
    C   C48  0.412464  0.500144  0.403287  -0.233307
    C   C49  0.493480  0.515494  0.376592  0.141031
    C   C50  0.580820  0.512370  0.401045  -0.153427
    H   H20  0.643951  0.523298  0.380122  0.117495
    C   C51  0.589780  0.490157  0.451444  -0.104554
    H   H21  0.659047  0.486925  0.469937  0.105115
    C   C52  0.509630  0.476153  0.478300  0.012357
    C   C53  0.549876  0.123912  0.670300  0.686234
    O   O17  0.597027  0.992244  0.679420  -0.484458
    O   O18  0.495434  0.149836  0.628247  -0.352877
    C   C54  0.493464  0.030119  0.595640  0.351809
    C   C55  0.427028  0.092596  0.552016  -0.242903
    H   H22  0.461223  0.956523  0.615403  -0.018757
    H   H23  0.572255  0.961451  0.581069  -0.028350
    H   H24  0.348149  0.161417  0.566389  0.066936
    H   H25  0.425284  0.995947  0.525605  0.046203
    H   H26  0.458987  0.166191  0.532100  0.081459
    C   C56  0.532571  0.358790  0.844136  0.726877
    O   O19  0.594720  0.254793  0.864559  -0.470356
    O   O20  0.451374  0.460399  0.870892  -0.415182
    C   C57  0.438153  0.450827  0.921310  0.376009
    C   C58  0.343194  0.582032  0.941575  -0.377748
    H   H27  0.505572  0.458365  0.941532  0.004194
    H   H28  0.428600  0.340678  0.927217  0.032109
    H   H29  0.352187  0.692687  0.935744  0.137260
    H   H30  0.332296  0.574473  0.982357  0.080623
    H   H31  0.275543  0.575043  0.921467  0.072521
    C   C59  0.316582  0.505306  0.379290  0.683444
    O   O21  0.253187  0.472195  0.402588  -0.544876
    O   O22  0.296319  0.550651  0.332569  -0.291566
    C   C60  0.206272  0.557474  0.310856  0.281218
    C   C61  0.204262  0.611116  0.258667  -0.222152
    H   H32  0.140678  0.639583  0.333983  -0.007221
    H   H33  0.200356  0.442004  0.307959  0.007744
    H   H34  0.210193  0.726535  0.261353  0.058472
    H   H35  0.131458  0.616781  0.241054  0.048613
    H   H36  0.269660  0.529321  0.235368  0.061446
