# generated using pymatgen
data_Zn3H25C49(BrO3)4
_symmetry_space_group_name_H-M   'P 1'
_cell_length_a   18.76058600
_cell_length_b   18.81364800
_cell_length_c   18.95683500
_cell_angle_alpha   109.27043500
_cell_angle_beta   109.77160000
_cell_angle_gamma   109.00395900
_symmetry_Int_Tables_number   1
_chemical_formula_structural   Zn3H25C49(BrO3)4
_chemical_formula_sum   'Zn6 H50 C98 Br8 O24'
_cell_volume   5173.72482697
_cell_formula_units_Z   2
loop_
 _symmetry_equiv_pos_site_id
 _symmetry_equiv_pos_as_xyz
  1  'x, y, z'
loop_
 _atom_site_type_symbol
 _atom_site_label
 _atom_site_symmetry_multiplicity
 _atom_site_fract_x
 _atom_site_fract_y
 _atom_site_fract_z
 _atom_site_occupancy
  Zn  Zn1  1  0.51577900  0.43972800  0.44316100  1
  Zn  Zn2  1  0.50574800  0.57397900  0.57564500  1
  Zn  Zn3  1  0.93183400  0.42458300  0.00663800  1
  Zn  Zn4  1  0.07591100  0.56506100  0.01426700  1
  Zn  Zn5  1  0.07771500  0.99940300  0.58108200  1
  Zn  Zn6  1  0.95082500  0.01027700  0.44091700  1
  H  H1  1  0.20654800  0.58815500  0.31386600  1
  H  H2  1  0.37462800  0.63066600  0.34099700  1
  H  H3  1  0.30186300  0.52420000  0.16282200  1
  H  H4  1  0.29786000  0.38730600  0.19250900  1
  H  H5  1  0.75964000  0.77703100  0.63801900  1
  H  H6  1  0.87223600  0.88534100  0.63543200  1
  H  H7  1  0.62253600  0.63219600  0.36374500  1
  H  H8  1  0.62856300  0.50490200  0.76303900  1
  H  H9  1  0.90073000  0.53005200  0.77337200  1
  H  H10  1  0.29992000  0.40011100  0.58828400  1
  H  H11  1  0.19313000  0.28575700  0.58992500  1
  H  H12  1  0.36225900  0.21902800  0.45527300  1
  H  H13  1  0.04133800  0.76701100  0.15635800  1
  H  H14  1  0.04178500  0.88313800  0.26336100  1
  H  H15  1  0.97593100  0.72751600  0.37474700  1
  H  H16  1  0.14171000  0.37190600  0.88855900  1
  H  H17  1  0.14870300  0.26271300  0.78127700  1
  H  H18  1  0.87347200  0.13361700  0.62192300  1
  H  H19  1  0.59840500  0.37873000  0.79465100  1
  H  H20  1  0.55341000  0.36045400  0.89750500  1
  H  H21  1  0.79240500  0.58378500  0.10504300  1
  H  H22  1  0.83676600  0.60438300  0.00266700  1
  H  H23  1  0.82483100  0.43161800  0.60667800  1
  H  H24  1  0.88038700  0.46340900  0.51444000  1
  H  H25  1  0.85750900  0.69074700  0.58182700  1
  H  H26  1  0.80048800  0.65909100  0.67335500  1
  H  H27  1  0.30047000  0.08518800  0.57426800  1
  H  H28  1  0.29442800  0.94479800  0.51653300  1
  H  H29  1  0.22098000  0.92839600  0.27079800  1
  H  H30  1  0.22360800  0.06740300  0.32732300  1
  H  H31  1  0.82866400  0.57178800  0.23848600  1
  H  H32  1  0.77633200  0.43563000  0.24148200  1
  H  H33  1  0.02144600  0.44954700  0.29894100  1
  H  H34  1  0.07307900  0.58396600  0.29220100  1
  H  H35  1  0.79121200  0.10988100  0.71080200  1
  H  H36  1  0.64415300  0.08852000  0.67144600  1
  H  H37  1  0.72307100  0.33487700  0.68694700  1
  H  H38  1  0.87100500  0.35757800  0.72775900  1
  H  H39  1  0.17114900  0.25733000  0.10109400  1
  H  H40  1  0.04570600  0.11231400  0.01551200  1
  H  H41  1  0.89787200  0.20942400  0.10197100  1
  H  H42  1  0.02361200  0.35543100  0.18824400  1
  H  H43  1  0.20327200  0.56612700  0.42690700  1
  H  H44  1  0.14758200  0.52659700  0.51504900  1
  H  H45  1  0.12322100  0.27774300  0.39769200  1
  H  H46  1  0.18096100  0.31722100  0.30990300  1
  H  H47  1  0.60237900  0.73675000  0.29812400  1
  H  H48  1  0.57737000  0.71590500  0.15539400  1
  H  H49  1  0.81764200  0.71719600  0.21192900  1
  H  H50  1  0.84179100  0.73548500  0.35400400  1
  C  C1  1  0.62189600  0.62832200  0.50290100  1
  C  C2  1  0.38241800  0.49363300  0.38435200  1
  C  C3  1  0.39936100  0.38535300  0.51610800  1
  C  C4  1  0.63950200  0.52027500  0.63442700  1
  C  C5  1  0.31722800  0.56474900  0.30042000  1
  C  C6  1  0.22639600  0.54094000  0.28759100  1
  C  C7  1  0.18847400  0.48251600  0.19217600  1
  C  C8  1  0.27873100  0.50668300  0.20444300  1
  C  C9  1  0.27387000  0.43039900  0.21859000  1
  C  C10  1  0.18303700  0.40672900  0.20578800  1
  C  C11  1  0.22152800  0.46477500  0.30143400  1
  C  C12  1  0.31116200  0.48867500  0.31385800  1
  C  C13  1  0.75312100  0.76975000  0.57681200  1
  C  C14  1  0.81711400  0.83033400  0.57520900  1
  C  C15  1  0.81078500  0.82189300  0.49777800  1
  C  C16  1  0.73834000  0.75144900  0.42084100  1
  C  C17  1  0.67706700  0.68861000  0.42332500  1
  C  C18  1  0.68470700  0.69711700  0.50094500  1
  C  C19  1  0.68860000  0.51032600  0.76548400  1
  C  C20  1  0.74533900  0.50425000  0.82919200  1
  C  C21  1  0.82270700  0.51165700  0.83236100  1
  C  C22  1  0.84071200  0.52420400  0.77125600  1
  C  C23  1  0.78265000  0.52759500  0.70613300  1
  C  C24  1  0.70606700  0.52127600  0.70364000  1
  C  C25  1  0.29157800  0.33579000  0.56015100  1
  C  C26  1  0.23114100  0.27132800  0.56131400  1
  C  C27  1  0.21810400  0.18837000  0.52579600  1
  C  C28  1  0.26702100  0.16993500  0.48901700  1
  C  C29  1  0.32492600  0.23399600  0.48460000  1
  C  C30  1  0.33741600  0.31705400  0.51997300  1
  C  C31  1  0.00477000  0.61075400  0.13502700  1
  C  C32  1  0.12176500  0.48553100  0.12445100  1
  C  C33  1  0.00259100  0.37914100  0.88565600  1
  C  C34  1  0.88611400  0.50453000  0.89675300  1
  C  C35  1  0.01310300  0.88314500  0.39227900  1
  C  C36  1  0.88232000  0.88770900  0.50078300  1
  C  C37  1  0.01501800  0.12622800  0.62969800  1
  C  C38  1  0.14629600  0.12080800  0.52030000  1
  C  C39  1  0.02678400  0.75718100  0.20397600  1
  C  C40  1  0.02669300  0.82289700  0.26405200  1
  C  C41  1  0.01117700  0.81317500  0.32704900  1
  C  C42  1  0.99022300  0.73569900  0.32640800  1
  C  C43  1  0.98385100  0.66723800  0.26279700  1
  C  C44  1  0.00534400  0.67871000  0.20232000  1
  C  C45  1  0.08235200  0.31976000  0.82998300  1
  C  C46  1  0.08636800  0.25777100  0.76992400  1
  C  C47  1  0.01139700  0.19137200  0.69462800  1
  C  C48  1  0.93232000  0.18585200  0.68094400  1
  C  C49  1  0.92729100  0.24564400  0.74238200  1
  C  C50  1  0.00318800  0.31379400  0.81748500  1
  C  C51  1  0.72133100  0.49173300  0.89189100  1
  C  C52  1  0.64140800  0.42404300  0.86285700  1
  C  C53  1  0.61605600  0.41348200  0.92059100  1
  C  C54  1  0.67026500  0.47075200  0.00764500  1
  C  C55  1  0.74997600  0.53855500  0.03692000  1
  C  C56  1  0.77515500  0.54968300  0.97921700  1
  C  C57  1  0.80699300  0.54211700  0.64441700  1
  C  C58  1  0.83040300  0.48792900  0.60029500  1
  C  C59  1  0.86171000  0.50570900  0.54850400  1
  C  C60  1  0.87120600  0.57858500  0.54188500  1
  C  C61  1  0.84817400  0.63285000  0.58591700  1
  C  C62  1  0.81578400  0.61465300  0.63689000  1
  C  C63  1  0.25871000  0.08382500  0.45363900  1
  C  C64  1  0.27986000  0.04961600  0.50674300  1
  C  C65  1  0.27782400  0.97126600  0.47470100  1
  C  C66  1  0.25644900  0.92756400  0.38990800  1
  C  C67  1  0.23716400  0.96234700  0.33717900  1
  C  C68  1  0.23845400  0.04037700  0.36898600  1
  C  C69  1  0.95313300  0.58479400  0.26206800  1
  C  C70  1  0.87059500  0.54397700  0.24979100  1
  C  C71  1  0.84124200  0.46770600  0.25177300  1
  C  C72  1  0.89548500  0.43352700  0.26889800  1
  C  C73  1  0.97871500  0.47553700  0.28366600  1
  C  C74  1  0.00754700  0.55081400  0.27982000  1
  C  C75  1  0.84126200  0.23598800  0.72394400  1
  C  C76  1  0.77688000  0.16002600  0.70663700  1
  C  C77  1  0.69421000  0.14790100  0.68449600  1
  C  C78  1  0.67509400  0.21100200  0.67796700  1
  C  C79  1  0.73875000  0.28629500  0.69377100  1
  C  C80  1  0.82183200  0.29903100  0.71699600  1
  C  C81  1  0.10619400  0.31710700  0.15117800  1
  C  C82  1  0.11183300  0.24817700  0.10225300  1
  C  C83  1  0.04092100  0.16591900  0.05358200  1
  C  C84  1  0.96407900  0.15185000  0.05345900  1
  C  C85  1  0.95807000  0.22020600  0.10191100  1
  C  C86  1  0.02886600  0.30239900  0.15049200  1
  C  C87  1  0.19314000  0.44313600  0.35993400  1
  C  C88  1  0.18600200  0.50252400  0.41962400  1
  C  C89  1  0.15474500  0.48054700  0.46977500  1
  C  C90  1  0.13090100  0.39944100  0.46101400  1
  C  C91  1  0.14107500  0.34116000  0.40401500  1
  C  C92  1  0.17334500  0.36339400  0.35448500  1
  C  C93  1  0.72483100  0.73962900  0.33611400  1
  C  C94  1  0.64978200  0.73218200  0.27936400  1
  C  C95  1  0.63570900  0.72065600  0.19921500  1
  C  C96  1  0.69627500  0.71580900  0.17518400  1
  C  C97  1  0.77035400  0.72131600  0.23092600  1
  C  C98  1  0.78425800  0.73235400  0.31095100  1
  Br  Br1  1  0.63372600  0.45704200  0.08690900  1
  Br  Br2  1  0.91925100  0.60646300  0.47461100  1
  Br  Br3  1  0.25549400  0.82010400  0.34625800  1
  Br  Br4  1  0.85648800  0.32951600  0.27445700  1
  Br  Br5  1  0.56023100  0.19339200  0.64537400  1
  Br  Br6  1  0.86632500  0.03805900  0.98648300  1
  Br  Br7  1  0.08342000  0.36824500  0.52746200  1
  Br  Br8  1  0.67737100  0.70135800  0.06487800  1
  O  O1  1  0.59702500  0.54782700  0.45112500  1
  O  O2  1  0.59423000  0.65019600  0.55723800  1
  O  O3  1  0.41726000  0.44599100  0.36293500  1
  O  O4  1  0.40852100  0.54680200  0.46452700  1
  O  O5  1  0.42904300  0.36371800  0.46343400  1
  O  O6  1  0.42272200  0.46575800  0.56598400  1
  O  O7  1  0.61441900  0.46853900  0.55418800  1
  O  O8  1  0.60266800  0.56582500  0.65573900  1
  O  O9  1  0.94762200  0.52931700  0.10104100  1
  O  O10  1  0.05998800  0.63543700  0.10877000  1
  O  O11  1  0.03900100  0.43633100  0.09569100  1
  O  O12  1  0.14941200  0.54070000  0.09931100  1
  O  O13  1  0.94675700  0.35408200  0.91122600  1
  O  O14  1  0.06065800  0.46031800  0.92047600  1
  O  O15  1  0.85842400  0.44960000  0.92228300  1
  O  O16  1  0.96881400  0.55268100  0.92461200  1
  O  O17  1  0.06184100  0.90864800  0.47380500  1
  O  O18  1  0.96383600  0.91535600  0.36622000  1
  O  O19  1  0.96202200  0.91482000  0.55870900  1
  O  O20  1  0.86462000  0.91724400  0.44696500  1
  O  O21  1  0.06669100  0.09620000  0.65574700  1
  O  O22  1  0.96437400  0.09877500  0.54808000  1
  O  O23  1  0.16404000  0.09066700  0.57342800  1
  O  O24  1  0.06658800  0.09705500  0.46535800  1
