# generated using pymatgen
data_Fe2H21C48BrO16
_symmetry_space_group_name_H-M   'P 1'
_cell_length_a   16.15957500
_cell_length_b   9.35368600
_cell_length_c   15.19604900
_cell_angle_alpha   87.61940500
_cell_angle_beta   85.36050500
_cell_angle_gamma   108.99985500
_symmetry_Int_Tables_number   1
_chemical_formula_structural   Fe2H21C48BrO16
_chemical_formula_sum   'Fe2 H21 C48 Br1 O16'
_cell_volume   2159.03315837
_cell_formula_units_Z   1
loop_
 _symmetry_equiv_pos_site_id
 _symmetry_equiv_pos_as_xyz
  1  'x, y, z'
loop_
 _atom_site_type_symbol
 _atom_site_label
 _atom_site_symmetry_multiplicity
 _atom_site_fract_x
 _atom_site_fract_y
 _atom_site_fract_z
 _atom_site_occupancy
  Fe  Fe1  1  0.52450300  0.98212900  0.13151300  1
  Fe  Fe2  1  0.51320900  0.97756000  0.80272200  1
  H  H1  1  0.92947700  0.91169400  0.82593200  1
  H  H2  1  0.18040800  0.88034800  0.85446600  1
  H  H3  1  0.04113600  0.89800600  0.87599600  1
  H  H4  1  0.78952800  0.89314400  0.78231800  1
  H  H5  1  0.24288500  0.07319700  0.14581700  1
  H  H6  1  0.10326900  0.10761800  0.16281500  1
  H  H7  1  0.96929600  0.15457400  0.17873300  1
  H  H8  1  0.83104800  0.14186300  0.12919200  1
  H  H9  1  0.51693500  0.84011300  0.52059100  1
  H  H10  1  0.46490000  0.76075300  0.39432400  1
  H  H11  1  0.44751200  0.10859300  0.57525600  1
  H  H12  1  0.62177800  0.81308900  0.49579900  1
  H  H13  1  0.58237200  0.83903000  0.36197500  1
  H  H14  1  0.56221900  0.19500400  0.53275900  1
  H  H15  1  0.49414000  0.10278000  0.41621300  1
  H  H16  1  0.49125400  0.50282300  0.76868100  1
  H  H17  1  0.53541900  0.44303000  0.16738100  1
  H  H18  1  0.36587300  0.89765300  0.42756300  1
  H  H19  1  0.20577400  0.78999100  0.43882400  1
  H  H20  1  0.18555500  0.22250700  0.48786500  1
  H  H21  1  0.34462700  0.33236400  0.47654500  1
  C  C1  1  0.88534900  0.93799400  0.87423700  1
  C  C2  1  0.27606000  0.93800600  0.94831300  1
  C  C3  1  0.19429500  0.91960900  0.91926700  1
  C  C4  1  0.13140100  0.95937000  0.97014000  1
  C  C5  1  0.05165000  0.94667700  0.93856300  1
  C  C6  1  0.98923000  0.99421400  0.98685800  1
  C  C7  1  0.80477900  0.92832800  0.84765100  1
  C  C8  1  0.74238500  0.95839700  0.90330400  1
  C  C9  1  0.90732900  0.98480100  0.95740300  1
  C  C10  1  0.84584300  0.02428100  0.01234400  1
  C  C11  1  0.76071500  0.00087200  0.98819300  1
  C  C12  1  0.29194600  0.98862100  0.03235700  1
  C  C13  1  0.22890100  0.02888400  0.08208400  1
  C  C14  1  0.14946600  0.01597600  0.05074600  1
  C  C15  1  0.08855900  0.06184900  0.09956500  1
  C  C16  1  0.00944300  0.05185500  0.06783900  1
  C  C17  1  0.95168400  0.10352500  0.11741800  1
  C  C18  1  0.87117300  0.09127100  0.08992500  1
  C  C19  1  0.68815600  0.00035800  0.05486600  1
  C  C20  1  0.53311300  0.71251800  0.20627600  1
  C  C21  1  0.37651800  0.01594400  0.06817100  1
  C  C22  1  0.50529700  0.18384000  0.25046900  1
  C  C23  1  0.52367900  0.76663300  0.68538100  1
  C  C24  1  0.65647500  0.93401400  0.87105600  1
  C  C25  1  0.49076800  0.23258200  0.72618800  1
  C  C26  1  0.34643000  0.92390800  0.88451600  1
  C  C27  1  0.49446300  0.49391600  0.69791700  1
  C  C28  1  0.51059800  0.62312100  0.64352700  1
  C  C29  1  0.51968500  0.61668500  0.55217900  1
  C  C30  1  0.54964000  0.76079200  0.49495900  1
  C  C31  1  0.52933700  0.74507900  0.39997200  1
  C  C32  1  0.49367700  0.35966100  0.66331700  1
  C  C33  1  0.49741700  0.35044600  0.57173300  1
  C  C34  1  0.50887300  0.47889300  0.51602300  1
  C  C35  1  0.51441700  0.47040200  0.41930200  1
  C  C36  1  0.52694200  0.59875300  0.36305200  1
  C  C37  1  0.53032600  0.58780300  0.27124600  1
  C  C38  1  0.49561500  0.20507900  0.53416600  1
  C  C39  1  0.46624700  0.18756700  0.44258600  1
  C  C40  1  0.50015600  0.33090500  0.38390500  1
  C  C41  1  0.51291100  0.32463900  0.29283100  1
  C  C42  1  0.53020100  0.45319800  0.23797000  1
  C  C43  1  0.36767400  0.12370000  0.44904300  1
  C  C44  1  0.32720300  0.97089000  0.43964300  1
  C  C45  1  0.23675900  0.90945500  0.44645100  1
  C  C46  1  0.18584800  0.99985600  0.46333900  1
  C  C47  1  0.22548500  0.15162100  0.47399400  1
  C  C48  1  0.31595000  0.21346700  0.46728900  1
  Br  Br1  1  0.06081000  0.91483000  0.47288100  1
  O  O1  1  0.61556700  0.01696800  0.03034100  1
  O  O2  1  0.55298700  0.70212900  0.12184700  1
  O  O3  1  0.69050700  0.96201500  0.13845200  1
  O  O4  1  0.50991900  0.82839000  0.23031300  1
  O  O5  1  0.40734400  0.90416100  0.08316200  1
  O  O6  1  0.41996900  0.15295600  0.08881600  1
  O  O7  1  0.56128500  0.18514200  0.18257700  1
  O  O8  1  0.43654100  0.06222200  0.27150300  1
  O  O9  1  0.47021600  0.77297200  0.75390200  1
  O  O10  1  0.59334000  0.88503600  0.66024700  1
  O  O11  1  0.63286200  0.05025600  0.84635500  1
  O  O12  1  0.60626100  0.79579500  0.85951600  1
  O  O13  1  0.33253200  0.90736700  0.80106600  1
  O  O14  1  0.52713600  0.13048300  0.70363400  1
  O  O15  1  0.42645100  0.95045700  0.90699500  1
  O  O16  1  0.45812300  0.22897500  0.80845300  1
