# generated using pymatgen
data_Cu6H29C70Cl13O24
_symmetry_space_group_name_H-M   'P 1'
_cell_length_a   18.76198500
_cell_length_b   18.74864600
_cell_length_c   18.71028000
_cell_angle_alpha   109.50153400
_cell_angle_beta   109.52821200
_cell_angle_gamma   109.47955600
_symmetry_Int_Tables_number   1
_chemical_formula_structural   Cu6H29C70Cl13O24
_chemical_formula_sum   'Cu6 H29 C70 Cl13 O24'
_cell_volume   5060.49919669
_cell_formula_units_Z   1
loop_
 _symmetry_equiv_pos_site_id
 _symmetry_equiv_pos_as_xyz
  1  'x, y, z'
loop_
 _atom_site_type_symbol
 _atom_site_label
 _atom_site_symmetry_multiplicity
 _atom_site_fract_x
 _atom_site_fract_y
 _atom_site_fract_z
 _atom_site_occupancy
  Cu  Cu1  1  0.99060600  0.93556300  0.42898400  1
  Cu  Cu2  1  0.99480300  0.06097100  0.55408600  1
  Cu  Cu3  1  0.43228500  0.49324700  0.43143900  1
  Cu  Cu4  1  0.55781700  0.49875600  0.55216300  1
  Cu  Cu5  1  0.55038700  0.05648600  0.98763600  1
  Cu  Cu6  1  0.43453900  0.93498800  0.99028900  1
  H  H1  1  0.91466500  0.92019400  0.10121800  1
  H  H2  1  0.03610500  0.90131500  0.17731600  1
  H  H3  1  0.15931100  0.02028000  0.32310700  1
  H  H4  1  0.23994300  0.23762500  0.35910400  1
  H  H5  1  0.25914000  0.25379700  0.63260400  1
  H  H6  1  0.58952900  0.56890100  0.89173800  1
  H  H7  1  0.47934500  0.59580100  0.80770100  1
  H  H8  1  0.35571700  0.47737500  0.66217800  1
  H  H9  1  0.12707900  0.02148000  0.76656700  1
  H  H10  1  0.40956300  0.02208600  0.70985400  1
  H  H11  1  0.34335400  0.90063900  0.66300800  1
  H  H12  1  0.29285000  0.01276500  0.59151300  1
  H  H13  1  0.60109400  0.75043900  0.47058100  1
  H  H14  1  0.82048800  0.64239200  0.57120800  1
  H  H15  1  0.76452200  0.57249800  0.44835100  1
  H  H16  1  0.93071500  0.75414300  0.56735400  1
  H  H17  1  0.75040200  0.14220600  0.25681700  1
  H  H18  1  0.57093000  0.80004300  0.10745700  1
  H  H19  1  0.68733500  0.80676800  0.22399000  1
  H  H20  1  0.75252300  0.81646000  0.16623700  1
  H  H21  1  0.63289100  0.74702800  0.76829000  1
  H  H22  1  0.63241400  0.86228600  0.87868300  1
  H  H23  1  0.28724300  0.68941600  0.70055200  1
  H  H24  1  0.31766500  0.76617600  0.65798500  1
  H  H25  1  0.31774600  0.65578000  0.54355100  1
  H  H26  1  0.50268200  0.23562900  0.37256700  1
  H  H27  1  0.49987200  0.12107900  0.25786200  1
  H  H28  1  0.42342400  0.24816300  0.05021600  1
  H  H29  1  0.53843200  0.42610100  0.22170200  1
  C  C1  1  0.10666800  0.99180100  0.60801700  1
  C  C2  1  0.11432400  0.11466900  0.49219200  1
  C  C3  1  0.87871000  0.00507400  0.37506400  1
  C  C4  1  0.86972700  0.88185900  0.48897400  1
  C  C5  1  0.03679800  0.96184600  0.20806000  1
  C  C6  1  0.10583900  0.02854300  0.28984300  1
  C  C7  1  0.10630200  0.10544600  0.32982700  1
  C  C8  1  0.03924600  0.11681900  0.28600100  1
  C  C9  1  0.97029600  0.05010400  0.20410000  1
  C  C10  1  0.96875400  0.97242600  0.16541100  1
  C  C11  1  0.24539700  0.24219800  0.42000500  1
  C  C12  1  0.31685400  0.31161600  0.49934500  1
  C  C13  1  0.32267900  0.31414400  0.57649000  1
  C  C14  1  0.25515700  0.25019900  0.57240500  1
  C  C15  1  0.18415700  0.18102700  0.49298700  1
  C  C16  1  0.18024300  0.17640900  0.41613800  1
  C  C17  1  0.45815400  0.36916200  0.71090100  1
  C  C18  1  0.52739600  0.43550800  0.79282700  1
  C  C19  1  0.53513900  0.51693300  0.82759000  1
  C  C20  1  0.47345500  0.53202400  0.78051200  1
  C  C21  1  0.40416200  0.46570600  0.69872700  1
  C  C22  1  0.39658600  0.38438300  0.66333600  1
  C  C23  1  0.23550400  0.97453200  0.66555600  1
  C  C24  1  0.17200800  0.98981600  0.67538500  1
  C  C25  1  0.17499700  0.00791700  0.75484300  1
  C  C26  1  0.23889800  0.00836100  0.82026600  1
  C  C27  1  0.30294500  0.99354400  0.80770400  1
  C  C28  1  0.29885700  0.97903100  0.72921900  1
  C  C29  1  0.34499400  0.96386700  0.68000500  1
  C  C30  1  0.27056500  0.95869600  0.60518700  1
  C  C31  1  0.80798100  0.74607000  0.49342700  1
  C  C32  1  0.80068600  0.81468900  0.48788700  1
  C  C33  1  0.72439600  0.81542100  0.47972000  1
  C  C34  1  0.66004700  0.74883600  0.47776400  1
  C  C35  1  0.67204900  0.68239100  0.48669600  1
  C  C36  1  0.74841900  0.68501000  0.49527000  1
  C  C37  1  0.79776700  0.63831400  0.50637400  1
  C  C38  1  0.86793200  0.71020600  0.50445600  1
  C  C39  1  0.74682900  0.93191900  0.23218900  1
  C  C40  1  0.81325400  0.00779000  0.30800100  1
  C  C41  1  0.81319000  0.08470500  0.31657600  1
  C  C42  1  0.74885500  0.08189300  0.24924600  1
  C  C43  1  0.68191800  0.00296100  0.17478900  1
  C  C44  1  0.68354700  0.92914800  0.17017100  1
  C  C45  1  0.63615500  0.83264000  0.11441100  1
  C  C46  1  0.71029000  0.83588900  0.18772300  1
  C  C47  1  0.49513900  0.61343500  0.60881900  1
  C  C48  1  0.38304200  0.37982200  0.49770800  1
  C  C49  1  0.49435200  0.37820000  0.37451600  1
  C  C50  1  0.60684100  0.61330900  0.48737000  1
  C  C51  1  0.49238900  0.11155300  0.10708900  1
  C  C52  1  0.37230500  0.99423100  0.87411100  1
  C  C53  1  0.49302300  0.88004900  0.87140200  1
  C  C54  1  0.61281400  0.99946400  0.10568100  1
  C  C55  1  0.42107500  0.68599800  0.66556700  1
  C  C56  1  0.49544300  0.68158100  0.67661400  1
  C  C57  1  0.57189500  0.74604300  0.75555600  1
  C  C58  1  0.57185900  0.81207600  0.81853800  1
  C  C59  1  0.49473900  0.81244800  0.80543800  1
  C  C60  1  0.42070000  0.74655500  0.72762700  1
  C  C61  1  0.32717900  0.71732900  0.67439000  1
  C  C62  1  0.32746800  0.64678800  0.60105600  1
  C  C63  1  0.48680600  0.30920600  0.23136500  1
  C  C64  1  0.49290000  0.30907800  0.30650600  1
  C  C65  1  0.49851100  0.24009700  0.31533700  1
  C  C66  1  0.49654100  0.17450900  0.24970800  1
  C  C67  1  0.49303800  0.17892000  0.17602400  1
  C  C68  1  0.48988500  0.24941000  0.17124300  1
  C  C69  1  0.48437900  0.28965800  0.11487500  1
  C  C70  1  0.48068000  0.35964600  0.18526500  1
  Cl  Cl1  1  0.24038200  0.03564300  0.92025700  1
  Cl  Cl2  1  0.20205700  0.85124700  0.51271600  1
  Cl  Cl3  1  0.70461400  0.89639300  0.46625800  1
  Cl  Cl4  1  0.87514200  0.66625300  0.40860700  1
  Cl  Cl5  1  0.89391200  0.18749800  0.40916200  1
  Cl  Cl6  1  0.64048900  0.79992900  0.01590800  1
  Cl  Cl7  1  0.26076300  0.53959800  0.57718300  1
  Cl  Cl8  1  0.58350900  0.33501000  0.11381000  1
  Cl  Cl9  1  0.04193100  0.21622500  0.33333333  1
  Cl  Cl10  1  0.37668900  0.35223000  0.14360200  1
  Cl  Cl11  1  0.88507800  0.06435300  0.14865600  1
  Cl  Cl12  1  0.45056700  0.26672700  0.66681000  1
  Cl  Cl13  1  0.60594300  0.41644200  0.85255500  1
  O  O1  1  0.08323500  0.94490200  0.52583400  1
  O  O2  1  0.08001000  0.04667800  0.63378900  1
  O  O3  1  0.08268100  0.03202800  0.43776700  1
  O  O4  1  0.08815000  0.14070300  0.54794400  1
  O  O5  1  0.90292100  0.94765600  0.34927700  1
  O  O6  1  0.91363500  0.06250900  0.45752600  1
  O  O7  1  0.90388200  0.85620600  0.44199200  1
  O  O8  1  0.89638700  0.96452500  0.53825200  1
  O  O9  1  0.42514500  0.56411900  0.52973200  1
  O  O10  1  0.56497400  0.60428200  0.62986300  1
  O  O11  1  0.35831600  0.38818400  0.42732100  1
  O  O12  1  0.46403400  0.42846800  0.56453500  1
  O  O13  1  0.45909900  0.42322500  0.35208600  1
  O  O14  1  0.53076500  0.39226400  0.45541000  1
  O  O15  1  0.52609000  0.59940300  0.45486600  1
  O  O16  1  0.63189500  0.56828900  0.52091000  1
  O  O17  1  0.52164000  0.13319500  0.05793000  1
  O  O18  1  0.46282900  0.03220000  0.09727700  1
  O  O19  1  0.45049600  0.02602200  0.88165400  1
  O  O20  1  0.35305400  0.96065400  0.92152300  1
  O  O21  1  0.56075700  0.96046700  0.91783900  1
  O  O22  1  0.42472600  0.85708500  0.88289500  1
  O  O23  1  0.63176900  0.06786300  0.09417500  1
  O  O24  1  0.53452900  0.92876400  0.05886600  1
