# generated using pymatgen
data_V2H9C18NO10
_symmetry_space_group_name_H-M   'P 1'
_cell_length_a   17.04650200
_cell_length_b   6.83283600
_cell_length_c   14.43655100
_cell_angle_alpha   90.00000000
_cell_angle_beta   95.23946500
_cell_angle_gamma   90.00000000
_symmetry_Int_Tables_number   1
_chemical_formula_structural   V2H9C18NO10
_chemical_formula_sum   'V4 H18 C36 N2 O20'
_cell_volume   1674.48523074
_cell_formula_units_Z   2
loop_
 _symmetry_equiv_pos_site_id
 _symmetry_equiv_pos_as_xyz
  1  'x, y, z'
loop_
 _atom_site_type_symbol
 _atom_site_label
 _atom_site_symmetry_multiplicity
 _atom_site_fract_x
 _atom_site_fract_y
 _atom_site_fract_z
 _atom_site_occupancy
  V  V1  1  0.49927600  0.94166600  0.48903000  1
  V  V2  1  0.50072400  0.44166700  0.51097000  1
  V  V3  1  0.00002000  0.34695300  0.01097400  1
  V  V4  1  0.99998000  0.84695300  0.98902600  1
  H  H1  1  0.78577700  0.41156200  0.85528600  1
  H  H2  1  0.21422200  0.91156200  0.14471300  1
  H  H3  1  0.81248900  0.02191400  0.75862200  1
  H  H4  1  0.18751000  0.52191300  0.24137800  1
  H  H5  1  0.68400900  0.44889700  0.71318300  1
  H  H6  1  0.31599000  0.94889800  0.28681600  1
  H  H7  1  0.71260800  0.95648300  0.80604600  1
  H  H8  1  0.78795700  0.66930400  0.78914700  1
  H  H9  1  0.86477000  0.46951800  0.68788300  1
  H  H10  1  0.85738600  0.53737400  0.51993800  1
  H  H11  1  0.77364400  0.80506100  0.45356000  1
  H  H12  1  0.69704600  0.00395100  0.55479600  1
  H  H13  1  0.28739100  0.45648300  0.19395400  1
  H  H14  1  0.21204300  0.16930400  0.21085300  1
  H  H15  1  0.13523000  0.96951800  0.31211600  1
  H  H16  1  0.14261400  0.03737400  0.48006100  1
  H  H17  1  0.22635600  0.30506100  0.54643900  1
  H  H18  1  0.30295300  0.50395100  0.44520400  1
  C  C1  1  0.60973200  0.66189900  0.39856000  1
  C  C2  1  0.39026800  0.16189900  0.60143900  1
  C  C3  1  0.39049700  0.65977300  0.37581400  1
  C  C4  1  0.60950300  0.15977300  0.62418500  1
  C  C5  1  0.77314700  0.29262700  0.80659800  1
  C  C6  1  0.22685300  0.79262700  0.19340200  1
  C  C7  1  0.82044100  0.13753900  0.80987000  1
  C  C8  1  0.17955900  0.63753900  0.19013000  1
  C  C9  1  0.70592900  0.30638800  0.73615000  1
  C  C10  1  0.29407100  0.80638800  0.26385000  1
  C  C11  1  0.67253700  0.14533100  0.69902000  1
  C  C12  1  0.32746300  0.64533100  0.30097900  1
  C  C13  1  0.16636100  0.13931400  0.83023800  1
  C  C14  1  0.83363800  0.63931400  0.16976200  1
  C  C15  1  0.21735100  0.14461800  0.77741500  1
  C  C16  1  0.78264800  0.64461800  0.22258400  1
  C  C17  1  0.27726400  0.14939600  0.71557400  1
  C  C18  1  0.72273600  0.64939600  0.28442600  1
  C  C19  1  0.32859600  0.15397600  0.66319000  1
  C  C20  1  0.67140400  0.65397600  0.33681000  1
  C  C21  1  0.11352900  0.62721400  0.11892400  1
  C  C22  1  0.88647100  0.12721400  0.88107500  1
  C  C23  1  0.89446900  0.62961000  0.10693800  1
  C  C24  1  0.10553000  0.12961000  0.89306200  1
  C  C25  1  0.73666300  0.84581800  0.67802400  1
  C  C26  1  0.78425200  0.69727100  0.71527900  1
  C  C27  1  0.82751000  0.58614300  0.65855100  1
  C  C28  1  0.82343000  0.62430000  0.56444700  1
  C  C29  1  0.77644000  0.77425800  0.52723700  1
  C  C30  1  0.73320800  0.88535400  0.58403300  1
  C  C31  1  0.26333700  0.34581800  0.32197500  1
  C  C32  1  0.21574800  0.19727100  0.28472100  1
  C  C33  1  0.17249000  0.08614300  0.34144900  1
  C  C34  1  0.17657000  0.12430000  0.43555300  1
  C  C35  1  0.22356000  0.27425800  0.47276300  1
  C  C36  1  0.26679200  0.38535400  0.41596700  1
  N  N1  1  0.69296500  0.95953300  0.73644700  1
  N  N2  1  0.30703400  0.45953300  0.26355200  1
  O  O1  1  0.41657700  0.49291500  0.41125600  1
  O  O2  1  0.58342300  0.99291400  0.58874400  1
  O  O3  1  0.57908600  0.83504700  0.41131200  1
  O  O4  1  0.42091400  0.33504700  0.58868800  1
  O  O5  1  0.41563000  0.83670100  0.39883700  1
  O  O6  1  0.58437000  0.33670100  0.60116200  1
  O  O7  1  0.41472200  0.99415700  0.57024800  1
  O  O8  1  0.58527800  0.49415700  0.42975100  1
  O  O9  1  0.50070900  0.66756300  0.55566100  1
  O  O10  1  0.49929100  0.16756300  0.44433900  1
  O  O11  1  0.91924500  0.79722600  0.07531900  1
  O  O12  1  0.08075500  0.29722600  0.92468000  1
  O  O13  1  0.08285100  0.45326100  0.10179900  1
  O  O14  1  0.91714900  0.95326100  0.89820100  1
  O  O15  1  0.91975000  0.45313500  0.08819900  1
  O  O16  1  0.08025000  0.95313500  0.91180100  1
  O  O17  1  0.91194500  0.29474900  0.91624700  1
  O  O18  1  0.08805500  0.79474900  0.08375300  1
  O  O19  1  0.99810000  0.62093200  0.94415800  1
  O  O20  1  0.00190000  0.12093200  0.05584200  1
