# Generated by REPEAT Assigner based on pymatgen
data_DB0-m3_o14_o27_f0_pcu.sym.79
_audit_creation_date              2022-05-24
_audit_creation_method            REPEAT_Assigner
_cell_length_a                    19.374097
_cell_length_b                    11.002902
_cell_length_c                    9.849186
_cell_angle_alpha                 90.000177
_cell_angle_beta                  89.993311
_cell_angle_gamma                 90.005368
_cell_volume                      2099.563502
_symmetry_space_group_name_H-M    P1
_symmetry_Int_Tables_number       1
loop_
    _symmetry_equiv_pos_site_id
    _symmetry_equiv_pos_as_xyz
    1  x,y,z
loop_
    _atom_site_type_symbol
    _atom_site_label
    _atom_site_fract_x
    _atom_site_fract_y
    _atom_site_fract_z
    _atom_type_partial_charge
    O   O1   0.502354  0.316466  0.612929  -0.568773
    O   O2   0.504618  0.315974  0.381410  -0.716681
    C   C1   0.506391  0.258151  0.498162  0.743730
    O   O3   0.395710  0.493126  0.613100  -0.670378
    O   O4   0.396481  0.490890  0.381105  -0.549970
    C   C2   0.363417  0.492104  0.496385  0.610967
    Zn  Zn1  0.498539  0.496908  0.651406  0.930924
    Zn  Zn2  0.499185  0.497039  0.342757  0.978813
    O   O5   0.495774  0.677478  0.613701  -0.461090
    O   O6   0.494961  0.678486  0.379828  -0.592793
    O   O7   0.601487  0.502742  0.614505  -0.555794
    O   O8   0.601927  0.505032  0.379765  -0.496920
    C   C3   0.492638  0.735743  0.497959  0.639445
    C   C4   0.634019  0.505280  0.497263  0.543385
    C   C5   0.251557  0.450942  0.606154  -0.232749
    H   H1   0.278993  0.413216  0.691874  0.136956
    C   C6   0.180271  0.451953  0.608451  0.169960
    H   H2   0.153889  0.415718  0.696210  0.012379
    C   C7   0.143679  0.498457  0.499826  -0.538059
    C   C8   0.179385  0.544606  0.389983  0.270231
    H   H3   0.152414  0.583716  0.304527  -0.057134
    C   C9   0.250464  0.543787  0.386682  -0.114566
    C   C10  0.287433  0.495164  0.495112  0.112316
    N   N1   0.033745  0.545319  0.392022  -0.274872
    N   N2   0.965585  0.545319  0.389524  -0.320594
    C   C11  0.929489  0.498980  0.493880  0.779052
    N   N3   0.963503  0.455461  0.602795  -0.357771
    N   N4   0.031813  0.455419  0.605426  -0.287020
    C   C12  0.067802  0.499761  0.499522  0.846638
    C   C13  0.818040  0.503651  0.613718  -0.414042
    H   H4   0.845702  0.506642  0.708929  0.206390
    C   C14  0.746831  0.506540  0.616254  0.267080
    H   H5   0.720781  0.510145  0.713151  -0.041503
    C   C15  0.709833  0.505033  0.496471  -0.177341
    C   C16  0.744985  0.499256  0.374663  0.263111
    H   H6   0.717396  0.494925  0.279500  -0.067233
    C   C17  0.816093  0.495967  0.371132  -0.197290
    C   C18  0.853498  0.499567  0.491744  -0.036278
    H   H7   0.500852  0.106787  0.285022  0.152456
    C   C19  0.533105  0.108119  0.745485  -0.011595
    H   H8   0.563377  0.190130  0.749739  0.046274
    C   C20  0.520442  0.050997  0.866919  -0.163051
    H   H9   0.536321  0.092800  0.961223  0.087948
    C   C21  0.484463  0.944071  0.868130  -0.131575
    H   H10  0.469855  0.902667  0.963436  0.132505
    C   C22  0.469873  0.886657  0.747698  -0.199972
    H   H11  0.439213  0.805279  0.754265  0.107827
    C   C23  0.490356  0.936664  0.623978  0.257185
    C   C24  0.510921  0.057487  0.623297  0.065979
    C   C25  0.509254  0.123195  0.501391  -0.171464
    C   C26  0.501362  0.059654  0.381256  -0.192143
    H   H12  0.494717  0.887702  0.285016  0.031213
    C   C27  0.496121  0.934545  0.381349  0.105432
    C   C28  0.490165  0.870834  0.501847  -0.305686
    C   C29  0.414094  0.334379  0.135316  -0.214824
    H   H13  0.411380  0.328064  0.242443  0.198450
    C   C30  0.372155  0.255072  0.066833  -0.111754
    H   H14  0.339630  0.192504  0.122234  0.094396
    C   C31  0.371549  0.255707  0.928706  0.082964
    H   H15  0.338482  0.193757  0.873685  0.068681
    C   C32  0.413044  0.335405  0.859758  -0.318208
    H   H16  0.409390  0.330256  0.752649  0.192563
    C   C33  0.456378  0.416768  0.926418  0.246423
    C   C34  0.456809  0.416480  0.068169  0.184126
    N   N5   0.497956  0.494544  0.138740  -0.089819
    C   C35  0.538243  0.571651  0.066842  0.025924
    C   C36  0.538009  0.571626  0.926742  -0.002185
    N   N6   0.497295  0.494758  0.855330  -0.074631
    I   I1   0.605339  0.698875  0.157732  0.097084
    I   I2   0.605045  0.698754  0.835347  0.102390
    I   I3   0.295564  0.629682  0.216031  -0.054765
    I   I4   0.860713  0.473305  0.176668  -0.020671
