# Generated by REPEAT Assigner based on pymatgen
data_DB0-m2_o4_o17_f0_nbo.sym.2
_audit_creation_date              2022-05-24
_audit_creation_method            REPEAT_Assigner
_cell_length_a                    29.853048
_cell_length_b                    30.607838
_cell_length_c                    21.294355
_cell_angle_alpha                 90.000000
_cell_angle_beta                  134.484829
_cell_angle_gamma                 90.000000
_cell_volume                      13881.642230
_symmetry_space_group_name_H-M    P1
_symmetry_Int_Tables_number       1
loop_
    _symmetry_equiv_pos_site_id
    _symmetry_equiv_pos_as_xyz
    1  x,y,z
loop_
    _atom_site_type_symbol
    _atom_site_label
    _atom_site_fract_x
    _atom_site_fract_y
    _atom_site_fract_z
    _atom_type_partial_charge
    O   O1    0.332429  0.765400  0.143059  -0.632449
    O   O2    0.667572  0.765400  0.856941  -0.632455
    O   O3    0.832429  0.265400  0.143059  -0.632447
    O   O4    0.167572  0.265400  0.856941  -0.632446
    O   O5    0.252879  0.814259  0.038638  -0.619791
    O   O6    0.747121  0.814259  0.961362  -0.619766
    O   O7    0.752879  0.314259  0.038638  -0.619783
    O   O8    0.247121  0.314259  0.961362  -0.619765
    C   C1    0.306242  0.804506  0.119468  0.826478
    C   C2    0.693758  0.804506  0.880532  0.826464
    C   C3    0.806242  0.304506  0.119468  0.826456
    C   C4    0.193758  0.304506  0.880532  0.826441
    O   O9    0.334704  0.713869  0.039925  -0.636128
    O   O10   0.665296  0.713869  0.960076  -0.636120
    O   O11   0.834704  0.213869  0.039925  -0.636135
    O   O12   0.165296  0.213869  0.960076  -0.636132
    O   O13   0.298349  0.781928  0.971913  -0.600708
    O   O14   0.701651  0.781928  0.028087  -0.600658
    O   O15   0.798349  0.281928  0.971913  -0.600707
    O   O16   0.201651  0.281928  0.028087  -0.600658
    C   C5    0.339290  0.749415  0.009369  0.819170
    C   C6    0.660710  0.749415  0.990631  0.819105
    C   C7    0.839290  0.249415  0.009369  0.819176
    C   C8    0.160710  0.249415  0.990631  0.819113
    Cu  Cu1   0.283135  0.715663  0.065072  0.961777
    Cu  Cu2   0.716865  0.715663  0.934929  0.961752
    Cu  Cu3   0.783135  0.215663  0.065072  0.961753
    Cu  Cu4   0.216865  0.215663  0.934929  0.961734
    Cu  Cu5   0.220196  0.774932  0.942088  0.951110
    Cu  Cu6   0.779804  0.774932  0.057912  0.951115
    Cu  Cu7   0.720196  0.274932  0.942088  0.951133
    Cu  Cu8   0.279804  0.274932  0.057912  0.951132
    O   O17   0.223904  0.675264  0.967639  -0.610935
    O   O18   0.776096  0.675264  0.032362  -0.610977
    O   O19   0.723904  0.175264  0.967639  -0.610941
    O   O20   0.276096  0.175264  0.032362  -0.610971
    O   O21   0.197424  0.726285  0.864906  -0.607547
    O   O22   0.802576  0.726285  0.135094  -0.607555
    O   O23   0.697424  0.226285  0.864906  -0.607540
    O   O24   0.302576  0.226285  0.135094  -0.607552
    O   O25   0.221875  0.726982  0.071191  -0.629758
    O   O26   0.778126  0.726982  0.928809  -0.629789
    O   O27   0.721875  0.226982  0.071191  -0.629750
    O   O28   0.278125  0.226982  0.928809  -0.629792
    O   O29   0.152039  0.758669  0.931921  -0.624478
    O   O30   0.847961  0.758669  0.068079  -0.624487
    O   O31   0.652039  0.258669  0.931921  -0.624472
    O   O32   0.347961  0.258669  0.068079  -0.624488
    C   C9    0.196968  0.686190  0.887431  0.773719
    C   C10   0.803032  0.686190  0.112569  0.773836
    C   C11   0.696968  0.186190  0.887431  0.773727
    C   C12   0.303032  0.186190  0.112569  0.773856
    C   C13   0.165747  0.742308  0.001250  0.790918
    C   C14   0.834253  0.742308  0.998750  0.791041
    C   C15   0.665747  0.242308  0.001250  0.790903
    C   C16   0.334253  0.242308  0.998750  0.791043
    C   C17   0.582365  0.790666  0.979118  0.310684
    C   C18   0.417635  0.790666  0.020883  0.310636
    C   C19   0.082365  0.290666  0.979118  0.310681
    C   C20   0.917635  0.290666  0.020883  0.310633
    C   C21   0.609478  0.751565  0.986638  -0.379518
    C   C22   0.390522  0.751565  0.013363  -0.379532
    C   C23   0.109478  0.251565  0.986638  -0.379517
    C   C24   0.890522  0.251565  0.013363  -0.379531
    C   C25   0.588781  0.712903  0.992098  0.027798
    C   C26   0.411219  0.712903  0.007902  0.027752
    C   C27   0.088781  0.212903  0.992098  0.027796
    C   C28   0.911219  0.212903  0.007902  0.027750
    C   C29   0.542688  0.712232  0.992808  -0.143367
    C   C30   0.457313  0.712232  0.007192  -0.143272
    C   C31   0.042688  0.212232  0.992808  -0.143375
    C   C32   0.957313  0.212232  0.007192  -0.143274
    C   C33   0.521409  0.751359  0.996435  0.066285
    C   C34   0.478591  0.751359  0.003566  0.066080
    C   C35   0.021409  0.251359  0.996435  0.066287
    C   C36   0.978591  0.251359  0.003566  0.066078
    C   C37   0.541665  0.790518  0.990449  -0.007593
    C   C38   0.458335  0.790518  0.009551  -0.007354
    C   C39   0.041665  0.290518  0.990449  -0.007588
    C   C40   0.958335  0.290518  0.009551  -0.007346
    C   C41   0.519693  0.672761  0.993263  0.094875
    C   C42   0.480308  0.672761  0.006737  0.094786
    C   C43   0.019693  0.172761  0.993263  0.094880
    C   C44   0.980308  0.172761  0.006737  0.094784
    C   C45   0.479614  0.829344  0.004850  -0.177453
    C   C46   0.520386  0.829344  0.995151  -0.177143
    C   C47   0.979614  0.329344  0.004850  -0.177459
    C   C48   0.020386  0.329344  0.995151  -0.177146
    H   H1    0.611525  0.683256  0.999398  0.109704
    H   H2    0.388475  0.683256  0.000602  0.109709
    H   H3    0.111525  0.183256  0.999398  0.109709
    H   H4    0.888475  0.183256  0.000602  0.109713
    H   H5    0.464122  0.860819  0.006288  0.126746
    H   H6    0.535878  0.860819  0.993712  0.126687
    H   H7    0.964122  0.360819  0.006288  0.126747
    H   H8    0.035878  0.360819  0.993712  0.126688
    C   C49   0.402236  0.837838  0.257567  0.185232
    C   C50   0.597764  0.837838  0.742433  0.185225
    C   C51   0.902236  0.337838  0.257567  0.185230
    C   C52   0.097764  0.337838  0.742433  0.185215
    C   C53   0.338562  0.838910  0.186004  -0.270590
    C   C54   0.661438  0.838910  0.813997  -0.270573
    C   C55   0.838562  0.338910  0.186004  -0.270578
    C   C56   0.161438  0.338910  0.813997  -0.270553
    C   C57   0.306644  0.874529  0.179434  -0.099909
    C   C58   0.693357  0.874529  0.820566  -0.099949
    C   C59   0.806644  0.374529  0.179434  -0.099911
    C   C60   0.193357  0.374529  0.820566  -0.099952
    H   H9    0.256315  0.877131  0.124684  0.125297
    H   H10   0.743685  0.877131  0.875316  0.125310
    H   H11   0.756315  0.377131  0.124684  0.125297
    H   H12   0.243685  0.377131  0.875316  0.125312
    C   C61   0.338886  0.906826  0.244322  -0.055168
    C   C62   0.661114  0.906826  0.755678  -0.055135
    C   C63   0.838886  0.406826  0.244323  -0.055185
    C   C64   0.161114  0.406826  0.755678  -0.055146
    H   H13   0.312989  0.934060  0.238182  0.118560
    H   H14   0.687011  0.934060  0.761818  0.118552
    H   H15   0.812989  0.434060  0.238182  0.118571
    H   H16   0.187011  0.434060  0.761818  0.118557
    C   C65   0.403711  0.904736  0.314653  -0.295385
    C   C66   0.596289  0.904736  0.685347  -0.295425
    C   C67   0.903711  0.404736  0.314653  -0.295348
    C   C68   0.096289  0.404736  0.685347  -0.295392
    C   C69   0.433169  0.869384  0.317322  0.213201
    C   C70   0.566831  0.869384  0.682679  0.213233
    C   C71   0.933169  0.369384  0.317322  0.213181
    C   C72   0.066831  0.369384  0.682679  0.213219
    C   C73   0.495668  0.848917  0.369945  -0.188161
    C   C74   0.504332  0.848917  0.630055  -0.188173
    C   C75   0.995668  0.348917  0.369945  -0.188165
    C   C76   0.004332  0.348917  0.630055  -0.188171
    C   C77   0.459303  0.811945  0.299255  -0.182368
    C   C78   0.540697  0.811945  0.700746  -0.182405
    C   C79   0.959303  0.311945  0.299255  -0.182360
    C   C80   0.040697  0.311945  0.700746  -0.182401
    H   H17   0.526398  0.868289  0.368640  0.085997
    H   H18   0.473602  0.868289  0.631360  0.086002
    H   H19   0.026398  0.368289  0.368640  0.086004
    H   H20   0.973602  0.368289  0.631360  0.086006
    H   H21   0.516555  0.837987  0.435511  0.082522
    H   H22   0.483446  0.837987  0.564489  0.082535
    H   H23   0.016555  0.337987  0.435511  0.082523
    H   H24   0.983446  0.337987  0.564489  0.082534
    H   H25   0.469496  0.810857  0.258218  0.078893
    H   H26   0.530504  0.810857  0.741782  0.078913
    H   H27   0.969496  0.310857  0.258218  0.078890
    H   H28   0.030504  0.310857  0.741782  0.078911
    H   H29   0.460179  0.780304  0.325462  0.088856
    H   H30   0.539821  0.780304  0.674538  0.088858
    H   H31   0.960179  0.280304  0.325462  0.088853
    H   H32   0.039821  0.280304  0.674538  0.088857
    C   C81   0.867836  0.739761  0.921238  -0.057428
    C   C82   0.132164  0.739761  0.078762  -0.057515
    C   C83   0.367836  0.239761  0.921238  -0.057439
    C   C84   0.632164  0.239761  0.078762  -0.057508
    C   C85   0.883625  0.741020  0.999290  -0.198546
    C   C86   0.116375  0.741020  0.000710  -0.198331
    C   C87   0.383625  0.241020  0.999290  -0.198528
    C   C88   0.616375  0.241020  0.000710  -0.198323
    C   C89   0.945741  0.741198  0.077618  -0.009628
    C   C90   0.054259  0.741198  0.922383  -0.009581
    C   C91   0.445741  0.241198  0.077618  -0.009649
    C   C92   0.554259  0.241198  0.922383  -0.009586
    C   C93   0.992787  0.739020  0.078770  -0.035029
    C   C94   0.007213  0.739020  0.921230  -0.035212
    C   C95   0.492787  0.239020  0.078770  -0.035000
    C   C96   0.507213  0.239020  0.921230  -0.035205
    C   C97   0.976728  0.739719  0.999822  0.002963
    C   C98   0.023272  0.739719  0.000178  0.003118
    C   C99   0.476728  0.239719  0.999822  0.002944
    C   C100  0.523272  0.239719  0.000178  0.003126
    C   C101  0.914007  0.740581  0.920536  -0.008047
    C   C102  0.085993  0.740581  0.079464  -0.008187
    C   C103  0.414007  0.240581  0.920536  -0.008038
    C   C104  0.585993  0.240581  0.079464  -0.008204
    C   C105  0.055624  0.736978  0.158305  0.066159
    C   C106  0.944376  0.736978  0.841695  0.066345
    C   C107  0.555624  0.236978  0.158305  0.066127
    C   C108  0.444376  0.236978  0.841695  0.066333
    C   C109  0.102222  0.741654  0.158783  0.040218
    C   C110  0.897778  0.741654  0.841217  0.040009
    C   C111  0.602222  0.241654  0.158783  0.040242
    C   C112  0.397778  0.241654  0.841217  0.040016
    H   H33   0.818655  0.738526  0.861318  0.108164
    H   H34   0.181345  0.738526  0.138682  0.108155
    H   H35   0.318655  0.238526  0.861318  0.108157
    H   H36   0.681345  0.238526  0.138682  0.108144
    H   H37   0.956245  0.743101  0.137349  0.084500
    H   H38   0.043755  0.743101  0.862651  0.084456
    H   H39   0.456245  0.243101  0.137349  0.084504
    H   H40   0.543755  0.243101  0.862651  0.084458
    C   C113  0.136977  0.617049  0.821313  -0.095682
    C   C114  0.863023  0.617049  0.178687  -0.095635
    C   C115  0.636977  0.117049  0.821313  -0.095676
    C   C116  0.363023  0.117049  0.178687  -0.095551
    C   C117  0.164114  0.652462  0.819393  -0.118966
    C   C118  0.835886  0.652462  0.180608  -0.119172
    C   C119  0.664114  0.152462  0.819393  -0.118975
    C   C120  0.335886  0.152462  0.180608  -0.119234
    C   C121  0.157261  0.655497  0.747929  -0.129244
    C   C122  0.842740  0.655497  0.252071  -0.129073
    C   C123  0.657261  0.155497  0.747929  -0.129244
    C   C124  0.342740  0.155497  0.252071  -0.129049
    H   H41   0.177733  0.682610  0.742783  0.122097
    H   H42   0.822267  0.682610  0.257217  0.122060
    H   H43   0.677733  0.182610  0.742783  0.122098
    H   H44   0.322267  0.182610  0.257217  0.122057
    C   C125  0.124910  0.623360  0.682770  -0.058674
    C   C126  0.875091  0.623360  0.317230  -0.058771
    C   C127  0.624910  0.123360  0.682770  -0.058667
    C   C128  0.375091  0.123360  0.317230  -0.058776
    H   H45   0.120538  0.626446  0.628108  0.117154
    H   H46   0.879462  0.626446  0.371892  0.117167
    H   H47   0.620538  0.126446  0.628108  0.117150
    H   H48   0.379462  0.126446  0.371892  0.117163
    C   C129  0.096969  0.588579  0.686536  -0.254145
    C   C130  0.903031  0.588579  0.313464  -0.254061
    C   C131  0.596969  0.088579  0.686536  -0.254154
    C   C132  0.403031  0.088579  0.313464  -0.254060
    C   C133  0.104343  0.587278  0.757729  0.261981
    C   C134  0.895658  0.587278  0.242271  0.261957
    C   C135  0.604343  0.087278  0.757729  0.261977
    C   C136  0.395658  0.087278  0.242271  0.261926
    C   C137  0.087485  0.561541  0.797776  -0.328104
    C   C138  0.912515  0.561541  0.202225  -0.328167
    C   C139  0.587485  0.061541  0.797776  -0.328098
    C   C140  0.412515  0.061541  0.202225  -0.328094
    C   C141  0.125315  0.596761  0.872007  0.324103
    C   C142  0.874685  0.596761  0.127993  0.324266
    C   C143  0.625315  0.096761  0.872007  0.324098
    C   C144  0.374685  0.096761  0.127993  0.324077
    H   H49   0.036369  0.562242  0.757414  0.104344
    H   H50   0.963631  0.562242  0.242586  0.104364
    H   H51   0.536369  0.062242  0.757414  0.104341
    H   H52   0.463631  0.062242  0.242586  0.104338
    H   H53   0.110233  0.528954  0.820473  0.085254
    H   H54   0.889767  0.528954  0.179527  0.085257
    H   H55   0.610233  0.028954  0.820473  0.085254
    H   H56   0.389767  0.028954  0.179527  0.085250
    H   H57   0.168350  0.584138  0.937305  -0.016756
    H   H58   0.831651  0.584138  0.062695  -0.016786
    H   H59   0.668350  0.084138  0.937305  -0.016757
    H   H60   0.331651  0.084138  0.062695  -0.016754
    O   O33   0.979652  0.531510  0.390174  -0.593220
    O   O34   0.020348  0.531510  0.609827  -0.593245
    O   O35   0.479652  0.031510  0.390174  -0.593231
    O   O36   0.520348  0.031510  0.609827  -0.593247
    O   O37   0.928455  0.550065  0.432845  -0.609115
    O   O38   0.071545  0.550065  0.567156  -0.609105
    O   O39   0.428455  0.050065  0.432845  -0.609111
    O   O40   0.571545  0.050065  0.567156  -0.609112
    C   C145  0.938777  0.555150  0.382150  0.777566
    C   C146  0.061223  0.555150  0.617850  0.777609
    C   C147  0.438777  0.055150  0.382150  0.777556
    C   C148  0.561223  0.055150  0.617850  0.777606
    O   O41   0.498963  0.943696  0.427449  -0.628219
    O   O42   0.501037  0.943696  0.572551  -0.628235
    O   O43   0.998963  0.443696  0.427449  -0.628200
    O   O44   0.001037  0.443696  0.572551  -0.628226
    O   O45   0.409127  0.962226  0.395747  -0.612443
    O   O46   0.590873  0.962226  0.604253  -0.612447
    O   O47   0.909127  0.462226  0.395747  -0.612459
    O   O48   0.090873  0.462226  0.604253  -0.612445
    C   C149  0.438921  0.938520  0.382482  0.815459
    C   C150  0.561079  0.938520  0.617518  0.815488
    C   C151  0.938921  0.438520  0.382482  0.815448
    C   C152  0.061079  0.438520  0.617518  0.815468
    Cu  Cu9   0.541871  0.996857  0.496724  0.941801
    Cu  Cu10  0.458129  0.996857  0.503276  0.941857
    Cu  Cu11  0.041871  0.496857  0.496724  0.941776
    Cu  Cu12  0.958129  0.496857  0.503276  0.941817
    C   C153  0.592278  0.831973  0.951922  -0.399905
    H   H61   0.608950  0.825486  0.920012  0.130927
    H   H62   0.546828  0.848995  0.900445  0.098127
    H   H63   0.625862  0.853659  0.009695  0.107462
    C   C154  0.407722  0.831973  0.048078  -0.399887
    H   H64   0.391050  0.825486  0.079988  0.130926
    H   H65   0.453172  0.848995  0.099555  0.098120
    H   H66   0.374138  0.853659  0.990305  0.107470
    C   C155  0.092278  0.331973  0.951922  -0.399916
    H   H67   0.108950  0.325486  0.920012  0.130934
    H   H68   0.046828  0.348995  0.900445  0.098127
    H   H69   0.125862  0.353659  0.009695  0.107466
    C   C156  0.907722  0.331973  0.048078  -0.399897
    H   H70   0.891050  0.325486  0.079988  0.130932
    H   H71   0.953172  0.348995  0.099555  0.098121
    H   H72   0.874138  0.353659  0.990305  0.107474
    C   C157  0.072520  0.726607  0.241888  -0.251518
    H   H73   0.041303  0.700587  0.229617  0.071707
    H   H74   0.120109  0.712415  0.292889  0.082780
    H   H75   0.068687  0.756376  0.267594  0.085796
    C   C158  0.927480  0.726607  0.758112  -0.251592
    H   H76   0.958697  0.700587  0.770384  0.071719
    H   H77   0.879891  0.712415  0.707111  0.082799
    H   H78   0.931313  0.756376  0.732406  0.085810
    C   C159  0.572520  0.226607  0.241888  -0.251505
    H   H79   0.541303  0.200587  0.229617  0.071698
    H   H80   0.620109  0.212415  0.292889  0.082778
    H   H81   0.568687  0.256376  0.267594  0.085799
    C   C160  0.427480  0.226607  0.758112  -0.251585
    H   H82   0.458697  0.200587  0.770384  0.071716
    H   H83   0.379891  0.212415  0.707111  0.082797
    H   H84   0.431313  0.256376  0.732406  0.085811
    C   C161  0.169006  0.750911  0.243329  -0.208069
    H   H85   0.188083  0.778114  0.233449  0.062250
    H   H86   0.172907  0.762922  0.295991  0.073318
    H   H87   0.198232  0.721208  0.265954  0.072148
    C   C162  0.830994  0.750911  0.756671  -0.207961
    H   H88   0.811918  0.778114  0.766551  0.062229
    H   H89   0.827093  0.762922  0.704009  0.073308
    H   H90   0.801768  0.721208  0.734047  0.072106
    C   C163  0.669006  0.250911  0.243329  -0.208062
    H   H91   0.688082  0.278114  0.233449  0.062250
    H   H92   0.672907  0.262922  0.295991  0.073315
    H   H93   0.698232  0.221208  0.265954  0.072145
    C   C164  0.330994  0.250911  0.756671  -0.207960
    H   H94   0.311918  0.278114  0.766551  0.062230
    H   H95   0.327093  0.262922  0.704009  0.073306
    H   H96   0.301768  0.221208  0.734047  0.072105
    C   C165  0.083387  0.624928  0.871692  -0.336892
    H   H97   0.111379  0.651885  0.919728  0.087509
    H   H98   0.044776  0.638911  0.805164  0.102352
    H   H99   0.063418  0.604809  0.890501  0.065087
    C   C166  0.916613  0.624928  0.128308  -0.337181
    H   H100  0.888621  0.651885  0.080272  0.087605
    H   H101  0.955224  0.638911  0.194836  0.102407
    H   H102  0.936582  0.604809  0.109499  0.065145
    C   C167  0.583387  0.124928  0.871692  -0.336880
    H   H103  0.611379  0.151885  0.919728  0.087505
    H   H104  0.544776  0.138911  0.805164  0.102353
    H   H105  0.563418  0.104809  0.890501  0.065083
    C   C168  0.416613  0.124928  0.128308  -0.336916
    H   H106  0.388621  0.151885  0.080272  0.087528
    H   H107  0.455224  0.138911  0.194836  0.102355
    H   H108  0.436582  0.104809  0.109499  0.065095
    C   C169  0.533316  0.630960  0.972018  -0.262498
    H   H109  0.530085  0.636403  0.917462  0.082110
    H   H110  0.580718  0.618730  0.031129  0.076158
    H   H111  0.497711  0.605451  0.946390  0.085977
    C   C170  0.466684  0.630960  0.027983  -0.262453
    H   H112  0.469915  0.636403  0.082538  0.082123
    H   H113  0.419282  0.618730  0.968871  0.076147
    H   H114  0.502289  0.605451  0.053610  0.085942
    C   C171  0.033316  0.130960  0.972018  -0.262496
    H   H115  0.030085  0.136403  0.917462  0.082108
    H   H116  0.080718  0.118730  0.031129  0.076156
    H   H117  0.997711  0.105451  0.946390  0.085977
    C   C172  0.966684  0.130960  0.027983  -0.262443
    H   H118  0.969915  0.136403  0.082538  0.082120
    H   H119  0.919282  0.118730  0.968871  0.076143
    H   H120  0.002289  0.105451  0.053610  0.085940
