data_DB0-m3_o11_o25_f0_pcu.sym.75_repeat
_audit_creation_date              2024-02-23
_audit_creation_method            'Materials Studio'
_symmetry_space_group_name_H-M    'P1'
_symmetry_Int_Tables_number       1
_symmetry_cell_setting            triclinic
loop_
_symmetry_equiv_pos_as_xyz
  x,y,z
_cell_length_a                    15.9857
_cell_length_b                    11.1342
_cell_length_c                    9.9500
_cell_angle_alpha                 89.9974
_cell_angle_beta                  89.9946
_cell_angle_gamma                 90.0034
loop_
_atom_site_label
_atom_site_type_symbol
_atom_site_fract_x
_atom_site_fract_y
_atom_site_fract_z
_atom_site_U_iso_or_equiv
_atom_site_adp_type
_atom_site_occupancy
O1     O     0.49272   0.32808   0.63255   0.00000  Uiso   1.00
O2     O     0.49656   0.32759   0.40034   0.00000  Uiso   1.00
C1     C     0.49412   0.27189   0.51674   0.00000  Uiso   1.00
O3     O     0.37044   0.50987   0.62401   0.00000  Uiso   1.00
O4     O     0.37420   0.50871   0.39168   0.00000  Uiso   1.00
C2     C     0.33352   0.50980   0.50633   0.00000  Uiso   1.00
Zn1    Zn    0.49404   0.50705   0.66868   0.00000  Uiso   1.00
Zn2    Zn    0.49966   0.50642   0.36247   0.00000  Uiso   1.00
O5     O     0.49651   0.68568   0.63083   0.00000  Uiso   1.00
O6     O     0.49954   0.68567   0.39867   0.00000  Uiso   1.00
O7     O     0.61949   0.50454   0.63936   0.00000  Uiso   1.00
O8     O     0.62325   0.50397   0.40736   0.00000  Uiso   1.00
C3     C     0.49851   0.74164   0.51501   0.00000  Uiso   1.00
C4     C     0.66021   0.50333   0.52487   0.00000  Uiso   1.00
C5     C     0.97201   0.40903   0.57995   0.00000  Uiso   1.00
C6     C     0.02329   0.41001   0.45114   0.00000  Uiso   1.00
H1     H     0.04747   0.32999   0.39732   0.00000  Uiso   1.00
H2     H     0.94916   0.32813   0.63362   0.00000  Uiso   1.00
H3     H     0.93890   0.50570   0.28998   0.00000  Uiso   1.00
C7     C     0.24377   0.50987   0.50395   0.00000  Uiso   1.00
C8     C     0.74996   0.50326   0.52726   0.00000  Uiso   1.00
C9     C     0.02726   0.50699   0.63896   0.00000  Uiso   1.00
C10    C     0.07692   0.50794   0.51021   0.00000  Uiso   1.00
C11    C     0.97043   0.60311   0.58008   0.00000  Uiso   1.00
C12    C     0.91680   0.50518   0.52101   0.00000  Uiso   1.00
C13    C     0.02171   0.60409   0.45126   0.00000  Uiso   1.00
C14    C     0.96646   0.50613   0.39226   0.00000  Uiso   1.00
C15    C     0.16839   0.50926   0.50541   0.00000  Uiso   1.00
C16    C     0.82533   0.50386   0.52580   0.00000  Uiso   1.00
H4     H     0.04457   0.68499   0.39760   0.00000  Uiso   1.00
H5     H     0.94625   0.68313   0.63389   0.00000  Uiso   1.00
H6     H     0.05483   0.50742   0.74123   0.00000  Uiso   1.00
C17    C     0.49410   0.94053   0.40828   0.00000  Uiso   1.00
C18    C     0.49976   0.87319   0.51937   0.00000  Uiso   1.00
H7     H     0.48910   0.89672   0.31148   0.00000  Uiso   1.00
H8     H     0.50576   0.91260   0.61795   0.00000  Uiso   1.00
C19    C     0.49540   0.07361   0.40876   0.00000  Uiso   1.00
C20    C     0.49223   0.14035   0.52065   0.00000  Uiso   1.00
H9     H     0.49818   0.11791   0.31192   0.00000  Uiso   1.00
H10    H     0.48739   0.10052   0.61919   0.00000  Uiso   1.00
C21    C     0.55504   0.54248   0.93543   0.00000  Uiso   1.00
N1     N     0.48981   0.50946   0.86967   0.00000  Uiso   1.00
H11    H     0.61185   0.56311   0.88108   0.00000  Uiso   1.00
H12    H     0.43426   0.50663   0.92152   0.00000  Uiso   1.00
C22    C     0.55430   0.56529   0.08193   0.00000  Uiso   1.00
N2     N     0.50523   0.50634   0.16136   0.00000  Uiso   1.00
H13    H     0.47082   0.43965   0.11634   0.00000  Uiso   1.00
C23    C     0.61765   0.65261   0.13422   0.00000  Uiso   1.00
C24    C     0.60348   0.77585   0.07266   0.00000  Uiso   1.00
C25    C     0.66336   0.86593   0.13480   0.00000  Uiso   1.00
C26    C     0.65028   0.98860   0.07214   0.00000  Uiso   1.00
H14    H     0.68117   0.62055   0.10732   0.00000  Uiso   1.00
H15    H     0.61388   0.66098   0.24380   0.00000  Uiso   1.00
H16    H     0.53808   0.80424   0.09172   0.00000  Uiso   1.00
H17    H     0.61464   0.77262   0.96279   0.00000  Uiso   1.00
H18    H     0.72873   0.83674   0.11677   0.00000  Uiso   1.00
H19    H     0.65213   0.87204   0.24455   0.00000  Uiso   1.00
H20    H     0.66294   0.98417   0.96266   0.00000  Uiso   1.00
H21    H     0.69381   0.05384   0.11908   0.00000  Uiso   1.00
H22    H     0.58498   0.01859   0.08912   0.00000  Uiso   1.00
