# Generated by REPEAT Assigner based on pymatgen
data_DB0-m2_o4_o6_f0_nbo.sym.56
_audit_creation_date              2022-05-24
_audit_creation_method            REPEAT_Assigner
_cell_length_a                    30.687674
_cell_length_b                    30.710320
_cell_length_c                    22.191271
_cell_angle_alpha                 90.000000
_cell_angle_beta                  46.249477
_cell_angle_gamma                 90.000000
_cell_volume                      15107.157751
_symmetry_space_group_name_H-M    P1
_symmetry_Int_Tables_number       1
loop_
    _symmetry_equiv_pos_site_id
    _symmetry_equiv_pos_as_xyz
    1  x,y,z
loop_
    _atom_site_type_symbol
    _atom_site_label
    _atom_site_fract_x
    _atom_site_fract_y
    _atom_site_fract_z
    _atom_type_partial_charge
    O   O1    0.184987  0.233572  0.493204  -0.601480
    O   O2    0.817398  0.233818  0.508480  -0.611646
    O   O3    0.684987  0.733572  0.493204  -0.601481
    O   O4    0.317398  0.733818  0.508480  -0.611633
    O   O5    0.230645  0.180929  0.508130  -0.594023
    O   O6    0.768012  0.180893  0.500954  -0.585556
    O   O7    0.730645  0.680929  0.508130  -0.594026
    O   O8    0.268012  0.680893  0.500954  -0.585575
    C   C1    0.193776  0.192832  0.500227  0.739892
    C   C2    0.808822  0.193075  0.501225  0.741160
    C   C3    0.693776  0.692832  0.500227  0.739899
    C   C4    0.308822  0.693075  0.501225  0.741170
    O   O9    0.288462  0.276482  0.377698  -0.581859
    O   O10   0.713637  0.276369  0.625165  -0.591067
    O   O11   0.788462  0.776482  0.377698  -0.581856
    O   O12   0.213637  0.776369  0.625165  -0.591047
    O   O13   0.340656  0.225292  0.383298  -0.614270
    O   O14   0.661049  0.224771  0.620780  -0.597676
    O   O15   0.840656  0.725292  0.383298  -0.614277
    O   O16   0.161049  0.724771  0.620780  -0.597699
    C   C5    0.334571  0.250464  0.341724  0.788655
    C   C6    0.667671  0.250033  0.661730  0.822610
    C   C7    0.834571  0.750464  0.341724  0.788659
    C   C8    0.167671  0.750033  0.661730  0.822613
    Cu  Cu1   0.222901  0.282487  0.498546  0.980659
    Cu  Cu2   0.778721  0.282596  0.504273  0.989876
    Cu  Cu3   0.722901  0.782487  0.498546  0.980686
    Cu  Cu4   0.278721  0.782596  0.504273  0.989978
    Cu  Cu5   0.281293  0.221417  0.504912  0.982881
    Cu  Cu6   0.719821  0.221339  0.499152  0.975292
    Cu  Cu7   0.781293  0.721417  0.504912  0.982851
    Cu  Cu8   0.219821  0.721339  0.499152  0.975192
    O   O17   0.272322  0.323050  0.497753  -0.563305
    O   O18   0.728838  0.322997  0.505732  -0.567632
    O   O19   0.772322  0.823050  0.497753  -0.563307
    O   O20   0.228838  0.822997  0.505732  -0.567612
    O   O21   0.320490  0.270296  0.507834  -0.556325
    O   O22   0.676542  0.270038  0.504058  -0.552554
    O   O23   0.820490  0.770296  0.507834  -0.556311
    O   O24   0.176542  0.770038  0.504058  -0.552570
    O   O25   0.162772  0.277727  0.620062  -0.626080
    O   O26   0.838374  0.278021  0.382754  -0.630272
    O   O27   0.662772  0.777727  0.620062  -0.626079
    O   O28   0.338374  0.778021  0.382754  -0.630255
    O   O29   0.216559  0.228326  0.625711  -0.604265
    O   O30   0.783953  0.228703  0.378371  -0.620981
    O   O31   0.716559  0.728326  0.625711  -0.604267
    O   O32   0.283953  0.728703  0.378371  -0.620998
    C   C9    0.310488  0.311121  0.503315  0.624143
    C   C10   0.690253  0.310915  0.501054  0.623907
    C   C11   0.810488  0.811120  0.503315  0.624144
    C   C12   0.190253  0.810915  0.501054  0.623900
    C   C13   0.169637  0.253468  0.661678  0.835903
    C   C14   0.830955  0.253840  0.341735  0.811358
    C   C15   0.669637  0.753468  0.661678  0.835905
    C   C16   0.330955  0.753840  0.341735  0.811360
    C   C17   0.518837  0.207541  0.958977  -0.103883
    C   C18   0.476143  0.207810  0.045566  -0.093909
    C   C19   0.018837  0.707541  0.958977  -0.103888
    C   C20   0.976143  0.707810  0.045566  -0.093904
    C   C21   0.543936  0.246381  0.915724  0.185254
    C   C22   0.459932  0.246821  0.087731  0.189186
    C   C23   0.043936  0.746381  0.915724  0.185259
    C   C24   0.959932  0.746821  0.087731  0.189185
    C   C25   0.527339  0.285023  0.958318  -0.196008
    C   C26   0.485712  0.285217  0.044076  -0.180277
    C   C27   0.027339  0.785023  0.958318  -0.196013
    C   C28   0.985712  0.785217  0.044076  -0.180275
    H   H1    0.546989  0.315263  0.924270  0.173123
    H   H2    0.473239  0.315550  0.077265  0.175334
    H   H3    0.046989  0.815263  0.924270  0.173125
    H   H4    0.973239  0.815550  0.077265  0.175334
    C   C29   0.586621  0.247219  0.826257  -0.074977
    C   C30   0.416821  0.247840  0.177204  -0.105119
    C   C31   0.086621  0.747219  0.826257  -0.074979
    C   C32   0.916821  0.747840  0.177204  -0.105118
    C   C33   0.379833  0.248921  0.252320  -0.188185
    C   C34   0.623097  0.248331  0.751151  -0.231602
    C   C35   0.879833  0.748921  0.252320  -0.188187
    C   C36   0.123097  0.748331  0.751151  -0.231602
    C   C37   0.151001  0.160851  0.448216  0.189165
    C   C38   0.856029  0.163045  0.548173  0.201518
    C   C39   0.651001  0.660851  0.448216  0.189165
    C   C40   0.356029  0.663045  0.548173  0.201518
    C   C41   0.160552  0.158978  0.500031  -0.200160
    C   C42   0.841963  0.159261  0.501707  -0.220839
    C   C43   0.660552  0.658978  0.500031  -0.200164
    C   C44   0.341963  0.659261  0.501707  -0.220840
    C   C45   0.137216  0.123154  0.552486  -0.107492
    C   C46   0.860645  0.121523  0.454933  -0.090344
    C   C47   0.637216  0.623154  0.552486  -0.107492
    C   C48   0.360645  0.621523  0.454933  -0.090347
    H   H5    0.143183  0.120064  0.594931  0.131415
    H   H6    0.851066  0.116890  0.416769  0.121551
    H   H7    0.643183  0.620064  0.594931  0.131416
    H   H8    0.351066  0.616890  0.416769  0.121552
    C   C49   0.103903  0.091812  0.553337  -0.161600
    C   C50   0.893895  0.090129  0.454122  -0.169095
    C   C51   0.603903  0.591812  0.553337  -0.161607
    C   C52   0.393895  0.590129  0.454122  -0.169099
    H   H9    0.084966  0.064621  0.595920  0.162259
    H   H10   0.909255  0.061379  0.415883  0.161043
    H   H11   0.584966  0.564621  0.595920  0.162261
    H   H12   0.409255  0.561379  0.415883  0.161044
    C   C53   0.096301  0.094772  0.498650  -0.150812
    C   C54   0.905996  0.095063  0.503523  -0.140958
    C   C55   0.596301  0.594772  0.498650  -0.150795
    C   C56   0.405996  0.595063  0.503523  -0.140944
    C   C57   0.122040  0.129875  0.445964  0.145994
    C   C58   0.884850  0.132115  0.550782  0.147702
    C   C59   0.622040  0.629875  0.445964  0.145990
    C   C60   0.384850  0.632115  0.550782  0.147698
    C   C61   0.128837  0.151239  0.379965  -0.132098
    C   C62   0.884085  0.155904  0.609604  -0.197475
    C   C63   0.628837  0.651239  0.379965  -0.132098
    C   C64   0.384085  0.655904  0.609604  -0.197475
    C   C65   0.163462  0.187507  0.382022  -0.233362
    C   C66   0.849633  0.192162  0.607196  -0.178469
    C   C67   0.663462  0.687507  0.382022  -0.233360
    C   C68   0.349633  0.692162  0.607196  -0.178470
    H   H13   0.158177  0.132364  0.320994  0.075497
    H   H14   0.855808  0.139426  0.670983  0.093606
    H   H15   0.658177  0.632364  0.320994  0.075496
    H   H16   0.355808  0.639426  0.670983  0.093605
    H   H17   0.085040  0.162500  0.403388  0.069341
    H   H18   0.929898  0.166031  0.580174  0.082903
    H   H19   0.585040  0.662500  0.403388  0.069342
    H   H20   0.429898  0.666031  0.580174  0.082904
    H   H21   0.212249  0.188686  0.324406  0.092068
    H   H22   0.801967  0.195765  0.667103  0.080823
    H   H23   0.712249  0.688686  0.324406  0.092067
    H   H24   0.301967  0.695765  0.667103  0.080823
    H   H25   0.139200  0.219080  0.406018  0.108149
    H   H26   0.876057  0.222612  0.576974  0.095305
    H   H27   0.639200  0.719080  0.406018  0.108149
    H   H28   0.376057  0.722612  0.576974  0.095305
    H   H29   0.108083  0.256608  0.923004  0.149923
    H   H30   0.891791  0.256322  0.080399  0.150263
    H   H31   0.608083  0.756608  0.923004  0.149923
    H   H32   0.391791  0.756322  0.080399  0.150263
    C   C69   0.018237  0.256746  0.043603  -0.187617
    C   C70   0.981643  0.256474  0.959783  -0.176585
    C   C71   0.518237  0.756746  0.043603  -0.187617
    C   C72   0.481643  0.756474  0.959783  -0.176583
    H   H33   0.032570  0.256705  0.076452  0.149336
    H   H34   0.967314  0.256224  0.926930  0.146656
    H   H35   0.532570  0.756705  0.076452  0.149336
    H   H36   0.467314  0.756224  0.926930  0.146655
    C   C73   0.957627  0.256595  0.087679  0.279888
    C   C74   0.042256  0.256483  0.915713  0.262532
    C   C75   0.457627  0.756595  0.087679  0.279889
    C   C76   0.542256  0.756483  0.915713  0.262531
    C   C77   0.939325  0.256531  0.045789  -0.194927
    C   C78   0.060549  0.256690  0.957609  -0.187693
    C   C79   0.439325  0.756531  0.045789  -0.194929
    C   C80   0.560549  0.756690  0.957609  -0.187694
    C   C81   0.913529  0.255961  0.177149  -0.109751
    C   C82   0.086422  0.255743  0.826245  -0.087832
    C   C83   0.413529  0.755961  0.177149  -0.109752
    C   C84   0.586422  0.755743  0.826245  -0.087831
    C   C85   0.124032  0.254852  0.751109  -0.228325
    C   C86   0.876131  0.255149  0.252287  -0.196871
    C   C87   0.624032  0.754852  0.751109  -0.228327
    C   C88   0.376131  0.755149  0.252287  -0.196872
    C   C89   0.340450  0.387918  0.491067  0.062921
    C   C90   0.662794  0.387937  0.508467  0.038535
    C   C91   0.840450  0.887918  0.491067  0.062928
    C   C92   0.162794  0.887937  0.508467  0.038541
    C   C93   0.343620  0.344861  0.504308  -0.098636
    C   C94   0.656973  0.344581  0.500153  -0.090602
    C   C95   0.843620  0.844861  0.504308  -0.098643
    C   C96   0.156973  0.844581  0.500153  -0.090601
    C   C97   0.380238  0.334831  0.518290  -0.137099
    C   C98   0.618042  0.334227  0.490327  -0.141323
    C   C99   0.880238  0.834831  0.518290  -0.137100
    C   C100  0.118042  0.834227  0.490327  -0.141326
    H   H37   0.384650  0.301598  0.529440  0.144502
    H   H38   0.611516  0.300743  0.483105  0.141839
    H   H39   0.884650  0.801598  0.529440  0.144499
    H   H40   0.111516  0.800743  0.483105  0.141838
    C   C101  0.411437  0.367547  0.518979  -0.115388
    C   C102  0.587130  0.366900  0.488947  -0.101531
    C   C103  0.911437  0.867547  0.518979  -0.115380
    C   C104  0.087130  0.866900  0.488947  -0.101521
    H   H41   0.439529  0.359287  0.530259  0.129222
    H   H42   0.557016  0.358357  0.481297  0.123425
    H   H43   0.939529  0.859287  0.530259  0.129219
    H   H44   0.057016  0.858357  0.481297  0.123423
    C   C105  0.407332  0.410483  0.504186  -0.194771
    C   C106  0.594294  0.410197  0.498136  -0.212143
    C   C107  0.907332  0.910483  0.504186  -0.194790
    C   C108  0.094294  0.910197  0.498136  -0.212158
    C   C109  0.371317  0.418799  0.489920  0.195312
    C   C110  0.632708  0.418852  0.508110  0.216969
    C   C111  0.871317  0.918799  0.489920  0.195313
    C   C112  0.132708  0.918852  0.508110  0.216966
    C   C113  0.348860  0.454795  0.472861  -0.304668
    C   C114  0.657928  0.455215  0.520071  -0.351137
    C   C115  0.848860  0.954795  0.472861  -0.304677
    C   C116  0.157928  0.955215  0.520071  -0.351142
    C   C117  0.311977  0.418604  0.475182  -0.088172
    C   C118  0.693740  0.418950  0.519788  -0.054218
    C   C119  0.811977  0.918604  0.475182  -0.088166
    C   C120  0.193740  0.918950  0.519788  -0.054213
    H   H45   0.319974  0.477844  0.525919  0.112848
    H   H46   0.687322  0.476761  0.464655  0.138317
    H   H47   0.819974  0.977844  0.525919  0.112851
    H   H48   0.187322  0.976761  0.464655  0.138319
    H   H49   0.385029  0.469539  0.410451  0.096535
    H   H50   0.623245  0.471687  0.581095  0.099757
    H   H51   0.885029  0.969539  0.410451  0.096536
    H   H52   0.123245  0.971687  0.581095  0.099758
    H   H53   0.262631  0.421708  0.529280  0.109210
    H   H54   0.743062  0.420565  0.464646  0.106552
    H   H55   0.762631  0.921708  0.529280  0.109208
    H   H56   0.243062  0.920565  0.464646  0.106550
    O   O33   0.581565  0.458442  0.427424  -0.635906
    O   O34   0.420223  0.458624  0.574746  -0.627735
    O   O35   0.081565  0.958442  0.427424  -0.635907
    O   O36   0.920223  0.958624  0.574746  -0.627735
    O   O37   0.509220  0.456656  0.571407  -0.620450
    O   O38   0.492538  0.456846  0.430764  -0.619010
    O   O39   0.009220  0.956656  0.571407  -0.620449
    O   O40   0.992538  0.956846  0.430764  -0.619011
    C   C121  0.561360  0.444752  0.499023  0.852185
    C   C122  0.440338  0.445020  0.503167  0.836196
    C   C123  0.061360  0.944752  0.499023  0.852202
    C   C124  0.940338  0.945020  0.503167  0.836217
    O   O41   0.082012  0.048066  0.427694  -0.636908
    O   O42   0.920167  0.048256  0.574436  -0.630446
    O   O43   0.582012  0.548066  0.427694  -0.636902
    O   O44   0.420167  0.548256  0.574436  -0.630442
    O   O45   0.013655  0.045987  0.571177  -0.633810
    O   O46   0.988512  0.046186  0.430949  -0.642287
    O   O47   0.513655  0.545987  0.571177  -0.633805
    O   O48   0.488512  0.546186  0.430949  -0.642280
    C   C125  0.061220  0.062450  0.499197  0.727492
    C   C126  0.941065  0.062729  0.502925  0.735131
    C   C127  0.561220  0.562450  0.499197  0.727473
    C   C128  0.441065  0.562729  0.502925  0.735112
    Cu  Cu9   0.541707  0.503546  0.417935  1.025027
    Cu  Cu10  0.460273  0.503545  0.584211  1.014707
    Cu  Cu11  0.041707  0.003546  0.417935  1.025010
    Cu  Cu12  0.960273  0.003545  0.584211  1.014713
    C   C129  0.449582  0.167088  0.092814  0.260828
    C   C130  0.389025  0.158671  0.141760  -0.141507
    C   C131  0.364018  0.120414  0.186436  -0.126441
    C   C132  0.399479  0.090398  0.182159  0.042176
    Cl  Cl1   0.367720  0.041806  0.238920  -0.107554
    C   C133  0.459943  0.098664  0.133251  -0.051631
    C   C134  0.484963  0.136962  0.088717  -0.228599
    H   H57   0.361147  0.182019  0.144898  0.108699
    H   H58   0.316596  0.113951  0.224782  0.128262
    H   H59   0.487732  0.075155  0.129986  0.107099
    H   H60   0.532302  0.143451  0.050910  0.117835
    C   C135  0.536380  0.166713  0.912945  0.285325
    C   C136  0.495144  0.143891  0.918064  -0.235356
    C   C137  0.511636  0.105301  0.875174  -0.051901
    C   C138  0.569382  0.089441  0.826972  0.025360
    Cl  Cl2   0.590300  0.040424  0.772522  -0.100519
    C   C139  0.610661  0.112173  0.821661  -0.072799
    C   C140  0.594202  0.150729  0.864602  -0.192609
    H   H61   0.449902  0.156315  0.955485  0.119237
    H   H62   0.479279  0.087493  0.879283  0.107688
    H   H63   0.655927  0.099721  0.783949  0.107204
    H   H64   0.626567  0.168295  0.860792  0.124838
    C   C141  0.949582  0.667088  0.092814  0.260823
    C   C142  0.889025  0.658671  0.141760  -0.141508
    C   C143  0.864018  0.620414  0.186436  -0.126437
    C   C144  0.899479  0.590398  0.182159  0.042171
    Cl  Cl3   0.867720  0.541806  0.238920  -0.107554
    C   C145  0.959943  0.598664  0.133251  -0.051625
    C   C146  0.984963  0.636962  0.088717  -0.228601
    H   H65   0.861147  0.682019  0.144898  0.108700
    H   H66   0.816596  0.613951  0.224782  0.128261
    H   H67   0.987732  0.575155  0.129986  0.107097
    H   H68   0.032302  0.643451  0.050910  0.117835
    C   C147  0.036380  0.666713  0.912945  0.285325
    C   C148  0.995144  0.643891  0.918064  -0.235350
    C   C149  0.011636  0.605301  0.875174  -0.051906
    C   C150  0.069382  0.589441  0.826972  0.025366
    Cl  Cl4   0.090300  0.540424  0.772522  -0.100521
    C   C151  0.110661  0.612173  0.821661  -0.072808
    C   C152  0.094201  0.650729  0.864602  -0.192595
    H   H69   0.949902  0.656315  0.955485  0.119235
    H   H70   0.979279  0.587493  0.879283  0.107688
    H   H71   0.155927  0.599721  0.783949  0.107207
    H   H72   0.126567  0.668295  0.860792  0.124827
    C   C153  0.330831  0.411258  0.393250  0.246428
    C   C154  0.389751  0.400893  0.321857  -0.181948
    C   C155  0.405155  0.393732  0.247719  -0.095800
    C   C156  0.362052  0.396866  0.244402  0.053971
    Cl  Cl5   0.381722  0.388259  0.150125  -0.126516
    C   C157  0.303395  0.406967  0.315340  -0.036080
    C   C158  0.287821  0.414065  0.389527  -0.269594
    H   H73   0.424394  0.398374  0.322798  0.116671
    H   H74   0.451178  0.385726  0.192038  0.108132
    H   H75   0.269540  0.409361  0.312819  0.097277
    H   H76   0.241617  0.421913  0.444828  0.135994
    C   C159  0.675678  0.413750  0.601601  0.226995
    C   C160  0.616484  0.405527  0.674679  -0.150895
    C   C161  0.601689  0.400332  0.748762  -0.134213
    C   C162  0.645668  0.403274  0.750387  0.079392
    Cl  Cl6   0.626720  0.397071  0.844607  -0.135674
    C   C163  0.704597  0.411249  0.677810  -0.050657
    C   C164  0.719564  0.416404  0.603652  -0.254474
    H   H77   0.581125  0.403188  0.675140  0.114398
    H   H78   0.555452  0.394009  0.805729  0.122149
    H   H79   0.739139  0.413492  0.679012  0.100792
    H   H80   0.765973  0.422593  0.547058  0.126660
    C   C165  0.830831  0.911258  0.393250  0.246427
    C   C166  0.889751  0.900893  0.321857  -0.181949
    C   C167  0.905155  0.893732  0.247719  -0.095801
    C   C168  0.862052  0.896866  0.244402  0.053972
    Cl  Cl7   0.881722  0.888259  0.150125  -0.126517
    C   C169  0.803395  0.906967  0.315340  -0.036083
    C   C170  0.787821  0.914065  0.389527  -0.269594
    H   H81   0.924394  0.898374  0.322798  0.116671
    H   H82   0.951178  0.885726  0.192038  0.108131
    H   H83   0.769540  0.909361  0.312819  0.097277
    H   H84   0.741617  0.921913  0.444828  0.135995
    C   C171  0.175678  0.913750  0.601601  0.226993
    C   C172  0.116484  0.905527  0.674679  -0.150895
    C   C173  0.101689  0.900332  0.748762  -0.134209
    C   C174  0.145668  0.903274  0.750387  0.079391
    Cl  Cl8   0.126720  0.897071  0.844607  -0.135674
    C   C175  0.204597  0.911249  0.677810  -0.050658
    C   C176  0.219564  0.916404  0.603652  -0.254473
    H   H85   0.081125  0.903188  0.675140  0.114397
    H   H86   0.055452  0.894009  0.805729  0.122147
    H   H87   0.239139  0.913492  0.679012  0.100793
    H   H88   0.265973  0.922593  0.547058  0.126661
