# generated using pymatgen
data_Cu3H20C44(O2F)6
_symmetry_space_group_name_H-M   'P 1'
_cell_length_a   43.68778100
_cell_length_b   30.12264400
_cell_length_c   29.94283400
_cell_angle_alpha   90.00000000
_cell_angle_beta   46.76535700
_cell_angle_gamma   90.00000000
_symmetry_Int_Tables_number   1
_chemical_formula_structural   Cu3H20C44(O2F)6
_chemical_formula_sum   'Cu12 H80 C176 O48 F24'
_cell_volume   28708.33986556
_cell_formula_units_Z   4
loop_
 _symmetry_equiv_pos_site_id
 _symmetry_equiv_pos_as_xyz
  1  'x, y, z'
loop_
 _atom_site_type_symbol
 _atom_site_label
 _atom_site_symmetry_multiplicity
 _atom_site_fract_x
 _atom_site_fract_y
 _atom_site_fract_z
 _atom_site_occupancy
  Cu  Cu1  1  0.50000000  0.95704300  0.00000000  1
  Cu  Cu2  1  0.00000000  0.45704300  0.00000000  1
  Cu  Cu3  1  0.50000000  0.04381800  0.00000000  1
  Cu  Cu4  1  0.00000000  0.54381800  0.00000000  1
  Cu  Cu5  1  0.99967600  0.00111100  0.54477700  1
  Cu  Cu6  1  0.00032300  0.00111100  0.45522200  1
  Cu  Cu7  1  0.49967600  0.50111100  0.54477700  1
  Cu  Cu8  1  0.50032300  0.50111100  0.45522200  1
  Cu  Cu9  1  0.45916900  0.00069000  0.54487000  1
  Cu  Cu10  1  0.54083100  0.00069000  0.45513000  1
  Cu  Cu11  1  0.95916900  0.50069000  0.54487000  1
  Cu  Cu12  1  0.04083100  0.50069000  0.45513000  1
  H  H1  1  0.27764000  0.03724600  0.28776100  1
  H  H2  1  0.72235900  0.03724900  0.71224100  1
  H  H3  1  0.77764000  0.53724600  0.28776100  1
  H  H4  1  0.22235900  0.53724900  0.71224100  1
  H  H5  1  0.22513800  0.96166700  0.34016000  1
  H  H6  1  0.77486100  0.96167000  0.65983800  1
  H  H7  1  0.72513800  0.46166700  0.34016000  1
  H  H8  1  0.27486100  0.46167000  0.65983800  1
  H  H9  1  0.22466700  0.07607300  0.27594500  1
  H  H10  1  0.77533300  0.07607300  0.72405700  1
  H  H11  1  0.72466700  0.57607300  0.27594500  1
  H  H12  1  0.27533300  0.57607300  0.72405700  1
  H  H13  1  0.27588700  0.03876000  0.15751000  1
  H  H14  1  0.72411300  0.03875800  0.84249100  1
  H  H15  1  0.77588700  0.53876000  0.15751000  1
  H  H16  1  0.22411300  0.53875800  0.84249100  1
  H  H17  1  0.22339300  0.96318300  0.20990200  1
  H  H18  1  0.77660600  0.96318100  0.79009600  1
  H  H19  1  0.72339300  0.46318300  0.20990200  1
  H  H20  1  0.27660600  0.46318100  0.79009600  1
  H  H21  1  0.27638000  0.92435000  0.22170400  1
  H  H22  1  0.72361900  0.92435000  0.77829300  1
  H  H23  1  0.77638000  0.42435000  0.22170400  1
  H  H24  1  0.22361900  0.42435000  0.77829300  1
  H  H25  1  0.49783100  0.07164500  0.22175300  1
  H  H26  1  0.50216900  0.07164500  0.77824700  1
  H  H27  1  0.99783100  0.57164500  0.22175300  1
  H  H28  1  0.00216900  0.57164500  0.77824700  1
  H  H29  1  0.50244700  0.07137400  0.13654000  1
  H  H30  1  0.49755200  0.07137400  0.86346000  1
  H  H31  1  0.00244700  0.57137400  0.13654000  1
  H  H32  1  0.99755200  0.57137400  0.86346000  1
  H  H33  1  0.48915600  0.92999400  0.14949400  1
  H  H34  1  0.51084400  0.92999400  0.85050500  1
  H  H35  1  0.98915600  0.42999400  0.14949400  1
  H  H36  1  0.01084400  0.42999400  0.85050500  1
  H  H37  1  0.48672300  0.93001700  0.23249000  1
  H  H38  1  0.51327600  0.93001700  0.76750900  1
  H  H39  1  0.98672300  0.43001700  0.23249000  1
  H  H40  1  0.01327600  0.43001700  0.76750900  1
  H  H41  1  0.44320800  0.95129700  0.33402200  1
  H  H42  1  0.55679200  0.95129700  0.66597700  1
  H  H43  1  0.94320800  0.45129700  0.33402200  1
  H  H44  1  0.05679200  0.45129700  0.66597700  1
  H  H45  1  0.53599600  0.05058000  0.32552400  1
  H  H46  1  0.46400400  0.05058100  0.67447600  1
  H  H47  1  0.03599600  0.55058000  0.32552400  1
  H  H48  1  0.96400400  0.55058100  0.67447600  1
  H  H49  1  0.53775700  0.05087500  0.24361800  1
  H  H50  1  0.46224200  0.05087500  0.75638200  1
  H  H51  1  0.03775700  0.55087500  0.24361800  1
  H  H52  1  0.96224200  0.55087500  0.75638200  1
  H  H53  1  0.94483600  0.77934400  0.51569600  1
  H  H54  1  0.05516300  0.77934400  0.48430300  1
  H  H55  1  0.44483600  0.27934400  0.51569600  1
  H  H56  1  0.55516300  0.27934400  0.48430300  1
  H  H57  1  0.56701900  0.21943300  0.42684800  1
  H  H58  1  0.43298100  0.21943300  0.57315100  1
  H  H59  1  0.06701900  0.71943300  0.42684800  1
  H  H60  1  0.93298100  0.71943300  0.57315100  1
  H  H61  1  0.56700100  0.13920800  0.42833000  1
  H  H62  1  0.43299800  0.13920800  0.57166900  1
  H  H63  1  0.06700100  0.63920800  0.42833000  1
  H  H64  1  0.93299800  0.63920800  0.57166900  1
  H  H65  1  0.01382100  0.22146200  0.41636500  1
  H  H66  1  0.98617800  0.22146200  0.58363500  1
  H  H67  1  0.51382100  0.72146200  0.41636500  1
  H  H68  1  0.48617800  0.72146200  0.58363500  1
  H  H69  1  0.01400500  0.14098800  0.41609900  1
  H  H70  1  0.98599400  0.14098800  0.58390100  1
  H  H71  1  0.51400500  0.64098800  0.41609900  1
  H  H72  1  0.48599400  0.64098800  0.58390100  1
  H  H73  1  0.44444200  0.78156400  0.59556800  1
  H  H74  1  0.55555800  0.78156400  0.40443200  1
  H  H75  1  0.94444200  0.28156400  0.59556800  1
  H  H76  1  0.05555800  0.28156400  0.40443200  1
  H  H77  1  0.44445700  0.86204500  0.59577400  1
  H  H78  1  0.55554300  0.86204500  0.40422600  1
  H  H79  1  0.94445700  0.36204500  0.59577400  1
  H  H80  1  0.05554300  0.36204500  0.40422600  1
  C  C1  1  0.49795100  0.00049500  0.08652800  1
  C  C2  1  0.50204800  0.00049500  0.91347200  1
  C  C3  1  0.99795100  0.50049500  0.08652800  1
  C  C4  1  0.00204800  0.50049500  0.91347200  1
  C  C5  1  0.42031900  0.00038900  0.07778700  1
  C  C6  1  0.57968100  0.00038900  0.92221200  1
  C  C7  1  0.92031900  0.50038900  0.07778700  1
  C  C8  1  0.07968100  0.50038900  0.92221200  1
  C  C9  1  0.23720300  0.97916000  0.29815100  1
  C  C10  1  0.76279700  0.97916100  0.70184800  1
  C  C11  1  0.73720300  0.47916000  0.29815100  1
  C  C12  1  0.26279700  0.47916100  0.70184800  1
  C  C13  1  0.26478000  0.02043100  0.27064300  1
  C  C14  1  0.73521900  0.02043200  0.72935700  1
  C  C15  1  0.76478000  0.52043100  0.27064300  1
  C  C16  1  0.23521900  0.52043200  0.72935700  1
  C  C17  1  0.37503900  0.00013600  0.12291800  1
  C  C18  1  0.62496000  0.00013600  0.87708100  1
  C  C19  1  0.87503900  0.50013600  0.12291800  1
  C  C20  1  0.12496000  0.50013600  0.87708100  1
  C  C21  1  0.12601200  0.00103800  0.37459300  1
  C  C22  1  0.87398700  0.00103800  0.62540700  1
  C  C23  1  0.62601200  0.50103800  0.37459300  1
  C  C24  1  0.37398700  0.50103800  0.62540700  1
  C  C25  1  0.26410000  0.95879200  0.23457500  1
  C  C26  1  0.73589900  0.95879200  0.76542300  1
  C  C27  1  0.76410000  0.45879200  0.23457500  1
  C  C28  1  0.23589900  0.45879200  0.76542300  1
  C  C29  1  0.29090300  0.00007000  0.20785200  1
  C  C30  1  0.70909700  0.00007000  0.79214800  1
  C  C31  1  0.79090300  0.50007000  0.20785200  1
  C  C32  1  0.20909700  0.50007000  0.79214800  1
  C  C33  1  0.23625700  0.97999800  0.22701400  1
  C  C34  1  0.76374200  0.97999600  0.77298400  1
  C  C35  1  0.73625700  0.47999800  0.22701400  1
  C  C36  1  0.26374200  0.47999600  0.77298400  1
  C  C37  1  0.21014000  0.00036300  0.28980100  1
  C  C38  1  0.78986000  0.00036300  0.71019900  1
  C  C39  1  0.71014000  0.50036300  0.28980100  1
  C  C40  1  0.28986000  0.50036300  0.71019900  1
  C  C41  1  0.26383100  0.02126800  0.19951500  1
  C  C42  1  0.73616800  0.02126700  0.80048600  1
  C  C43  1  0.76383100  0.52126800  0.19951500  1
  C  C44  1  0.23616800  0.52126700  0.80048600  1
  C  C45  1  0.23694900  0.04163300  0.26307200  1
  C  C46  1  0.76305000  0.04163300  0.73693000  1
  C  C47  1  0.73694900  0.54163300  0.26307200  1
  C  C48  1  0.26305000  0.54163300  0.73693000  1
  C  C49  1  0.33706600  0.00004000  0.16112200  1
  C  C50  1  0.66293300  0.00004000  0.83887700  1
  C  C51  1  0.83706600  0.50004000  0.16112200  1
  C  C52  1  0.16293300  0.50004000  0.83887700  1
  C  C53  1  0.16398000  0.00066700  0.33647400  1
  C  C54  1  0.83601900  0.00066700  0.66352500  1
  C  C55  1  0.66398000  0.50066700  0.33647400  1
  C  C56  1  0.33601900  0.50066700  0.66352500  1
  C  C57  1  0.49662000  0.04024900  0.20557000  1
  C  C58  1  0.50337900  0.04024900  0.79443000  1
  C  C59  1  0.99662000  0.54024900  0.20557000  1
  C  C60  1  0.00337900  0.54024900  0.79443000  1
  C  C61  1  0.49899300  0.04013400  0.15733300  1
  C  C62  1  0.50100600  0.04013400  0.84266700  1
  C  C63  1  0.99899300  0.54013400  0.15733300  1
  C  C64  1  0.00100600  0.54013400  0.84266700  1
  C  C65  1  0.49607900  0.00067300  0.13704700  1
  C  C66  1  0.50392000  0.00067300  0.86295200  1
  C  C67  1  0.99607900  0.50067300  0.13704700  1
  C  C68  1  0.00392000  0.50067300  0.86295200  1
  C  C69  1  0.49101200  0.96133100  0.16507800  1
  C  C70  1  0.50898800  0.96133100  0.83492200  1
  C  C71  1  0.99101200  0.46133100  0.16507800  1
  C  C72  1  0.00898800  0.46133100  0.83492200  1
  C  C73  1  0.48920300  0.96139700  0.21274700  1
  C  C74  1  0.51079700  0.96139700  0.78725200  1
  C  C75  1  0.98920300  0.46139700  0.21274700  1
  C  C76  1  0.01079700  0.46139700  0.78725200  1
  C  C77  1  0.49180400  0.00086900  0.23348600  1
  C  C78  1  0.50819500  0.00086900  0.76651300  1
  C  C79  1  0.99180400  0.50086900  0.23348600  1
  C  C80  1  0.00819500  0.50086900  0.76651300  1
  C  C81  1  0.46406600  0.97197800  0.33247800  1
  C  C82  1  0.53593400  0.97197800  0.66752100  1
  C  C83  1  0.96406600  0.47197800  0.33247800  1
  C  C84  1  0.03593400  0.47197800  0.66752100  1
  C  C85  1  0.46379000  0.97002100  0.37900000  1
  C  C86  1  0.53621000  0.97002100  0.62099900  1
  C  C87  1  0.96379000  0.47002100  0.37900000  1
  C  C88  1  0.03621000  0.47002100  0.62099900  1
  C  C89  1  0.48970200  0.99903600  0.37702800  1
  C  C90  1  0.51029800  0.99903600  0.62297100  1
  C  C91  1  0.98970200  0.49903600  0.37702800  1
  C  C92  1  0.01029800  0.49903600  0.62297100  1
  C  C93  1  0.51559000  0.02796100  0.32821700  1
  C  C94  1  0.48441000  0.02796100  0.67178300  1
  C  C95  1  0.01559000  0.52796100  0.32821700  1
  C  C96  1  0.98441000  0.52796100  0.67178300  1
  C  C97  1  0.51613100  0.02877000  0.28191800  1
  C  C98  1  0.48386800  0.02877000  0.71808200  1
  C  C99  1  0.01613100  0.52877000  0.28191800  1
  C  C100  1  0.98386800  0.52877000  0.71808200  1
  C  C101  1  0.49038500  0.00080500  0.28378000  1
  C  C102  1  0.50961400  0.00080600  0.71621900  1
  C  C103  1  0.99038500  0.50080500  0.28378000  1
  C  C104  1  0.00961400  0.50080600  0.71621900  1
  C  C105  1  0.00000000  0.91574100  0.50000000  1
  C  C106  1  0.50000000  0.41574100  0.50000000  1
  C  C107  1  0.08074000  0.00158100  0.41959600  1
  C  C108  1  0.91925900  0.00158200  0.58040300  1
  C  C109  1  0.58074000  0.50158100  0.41959600  1
  C  C110  1  0.41925900  0.50158200  0.58040300  1
  C  C111  1  0.00000000  0.08646200  0.50000000  1
  C  C112  1  0.50000000  0.58646200  0.50000000  1
  C  C113  1  0.50000000  0.08484800  0.50000000  1
  C  C114  1  0.00000000  0.58484800  0.50000000  1
  C  C115  1  0.49285600  0.99952400  0.42276300  1
  C  C116  1  0.50714400  0.99952400  0.57723600  1
  C  C117  1  0.99285600  0.49952400  0.42276300  1
  C  C118  1  0.00714400  0.49952400  0.57723600  1
  C  C119  1  0.50000000  0.91651600  0.50000000  1
  C  C120  1  0.00000000  0.41651600  0.50000000  1
  C  C121  1  0.96851100  0.79769400  0.50999400  1
  C  C122  1  0.03148900  0.79769400  0.49000500  1
  C  C123  1  0.46851100  0.29769400  0.50999400  1
  C  C124  1  0.53148900  0.29769400  0.49000500  1
  C  C125  1  0.96774200  0.84364800  0.51115500  1
  C  C126  1  0.03225800  0.84364800  0.48884500  1
  C  C127  1  0.46774200  0.34364800  0.51115500  1
  C  C128  1  0.53225800  0.34364800  0.48884500  1
  C  C129  1  0.00000000  0.86693200  0.50000000  1
  C  C130  1  0.50000000  0.36693200  0.50000000  1
  C  C131  1  0.00000000  0.77458000  0.50000000  1
  C  C132  1  0.50000000  0.27458000  0.50000000  1
  C  C133  1  0.53736900  0.20232500  0.45991500  1
  C  C134  1  0.46263000  0.20232500  0.54008400  1
  C  C135  1  0.03736900  0.70232500  0.45991500  1
  C  C136  1  0.96263000  0.70232500  0.54008400  1
  C  C137  1  0.53738500  0.15657200  0.46035300  1
  C  C138  1  0.46261400  0.15657200  0.53964600  1
  C  C139  1  0.03738500  0.65657200  0.46035300  1
  C  C140  1  0.96261400  0.65657200  0.53964600  1
  C  C141  1  0.50000000  0.13345600  0.50000000  1
  C  C142  1  0.00000000  0.63345600  0.50000000  1
  C  C143  1  0.50000000  0.22566500  0.50000000  1
  C  C144  1  0.00000000  0.72566500  0.50000000  1
  C  C145  1  0.00809900  0.20401400  0.45302400  1
  C  C146  1  0.99190000  0.20401400  0.54697600  1
  C  C147  1  0.50809900  0.70401400  0.45302400  1
  C  C148  1  0.49190000  0.70401400  0.54697600  1
  C  C149  1  0.00779800  0.15825900  0.45322900  1
  C  C150  1  0.99220200  0.15825900  0.54677100  1
  C  C151  1  0.50779800  0.65825900  0.45322900  1
  C  C152  1  0.49220200  0.65825900  0.54677100  1
  C  C153  1  0.00000000  0.13511300  0.50000000  1
  C  C154  1  0.50000000  0.63511300  0.50000000  1
  C  C155  1  0.00000000  0.22716500  0.50000000  1
  C  C156  1  0.50000000  0.72716500  0.50000000  1
  C  C157  1  0.46921000  0.79901000  0.55346100  1
  C  C158  1  0.53079000  0.79901000  0.44653900  1
  C  C159  1  0.96921000  0.29901000  0.55346100  1
  C  C160  1  0.03079000  0.29901000  0.44653900  1
  C  C161  1  0.46900800  0.84476200  0.55339200  1
  C  C162  1  0.53099200  0.84476200  0.44660800  1
  C  C163  1  0.96900800  0.34476200  0.55339200  1
  C  C164  1  0.03099200  0.34476200  0.44660800  1
  C  C165  1  0.50000000  0.86789200  0.50000000  1
  C  C166  1  0.00000000  0.36789200  0.50000000  1
  C  C167  1  0.50000000  0.77586000  0.50000000  1
  C  C168  1  0.00000000  0.27586000  0.50000000  1
  C  C169  1  0.43711600  0.93522800  0.42796700  1
  C  C170  1  0.56288400  0.93522800  0.57203300  1
  C  C171  1  0.93711600  0.43522800  0.42796700  1
  C  C172  1  0.06288400  0.43522800  0.57203300  1
  C  C173  1  0.93129500  0.86742100  0.52635900  1
  C  C174  1  0.06870400  0.86742100  0.47364100  1
  C  C175  1  0.43129500  0.36742100  0.52635900  1
  C  C176  1  0.56870400  0.36742100  0.47364100  1
  O  O1  1  0.48710500  0.96378900  0.07627000  1
  O  O2  1  0.51289400  0.96378900  0.92373000  1
  O  O3  1  0.98710500  0.46378900  0.07627000  1
  O  O4  1  0.01289400  0.46378900  0.92373000  1
  O  O5  1  0.51005500  0.03708400  0.05385900  1
  O  O6  1  0.48994400  0.03708400  0.94614100  1
  O  O7  1  0.01005500  0.53708400  0.05385900  1
  O  O8  1  0.98994400  0.53708400  0.94614100  1
  O  O9  1  0.44030500  0.96376800  0.04596600  1
  O  O10  1  0.55969400  0.96376800  0.95403400  1
  O  O11  1  0.94030500  0.46376800  0.04596600  1
  O  O12  1  0.05969400  0.46376800  0.95403400  1
  O  O13  1  0.43976800  0.03709500  0.07086800  1
  O  O14  1  0.56023100  0.03709500  0.92913200  1
  O  O15  1  0.93976800  0.53709500  0.07086800  1
  O  O16  1  0.06023100  0.53709500  0.92913200  1
  O  O17  1  0.99794800  0.93657500  0.54049400  1
  O  O18  1  0.00205100  0.93657500  0.45950600  1
  O  O19  1  0.49794800  0.43657500  0.54049400  1
  O  O20  1  0.50205100  0.43657500  0.45950600  1
  O  O21  1  0.06079800  0.99942700  0.47784000  1
  O  O22  1  0.93920100  0.99942700  0.52216000  1
  O  O23  1  0.56079800  0.49942700  0.47784000  1
  O  O24  1  0.43920100  0.49942700  0.52216000  1
  O  O25  1  0.06140300  0.99954200  0.40030000  1
  O  O26  1  0.93859600  0.99954200  0.59970000  1
  O  O27  1  0.56140300  0.49954200  0.40030000  1
  O  O28  1  0.43859600  0.49954200  0.59970000  1
  O  O29  1  0.99798800  0.06563700  0.54039200  1
  O  O30  1  0.00201100  0.06563700  0.45960700  1
  O  O31  1  0.49798800  0.56563700  0.54039200  1
  O  O32  1  0.50201100  0.56563700  0.45960700  1
  O  O33  1  0.46441800  0.06401700  0.52675100  1
  O  O34  1  0.53558100  0.06401700  0.47324800  1
  O  O35  1  0.96441800  0.56401700  0.52675100  1
  O  O36  1  0.03558100  0.56401700  0.47324800  1
  O  O37  1  0.45996800  0.98839100  0.48004600  1
  O  O38  1  0.54003200  0.98839100  0.51995400  1
  O  O39  1  0.95996800  0.48839100  0.48004600  1
  O  O40  1  0.04003200  0.48839100  0.51995400  1
  O  O41  1  0.52882400  0.01277200  0.40428800  1
  O  O42  1  0.47117500  0.01277200  0.59571100  1
  O  O43  1  0.02882400  0.51277200  0.40428800  1
  O  O44  1  0.97117500  0.51277200  0.59571100  1
  O  O45  1  0.46663800  0.93737400  0.54904900  1
  O  O46  1  0.53336100  0.93737400  0.45095000  1
  O  O47  1  0.96663800  0.43737400  0.54904900  1
  O  O48  1  0.03336100  0.43737400  0.45095000  1
  F  F1  1  0.46104100  0.91117300  0.43407700  1
  F  F2  1  0.42111200  0.90583400  0.41288500  1
  F  F3  1  0.40372600  0.95509300  0.48308000  1
  F  F4  1  0.53895900  0.91117300  0.56592200  1
  F  F5  1  0.57888800  0.90583500  0.58711500  1
  F  F6  1  0.59627400  0.95509400  0.51691900  1
  F  F7  1  0.96104100  0.41117300  0.43407700  1
  F  F8  1  0.92111200  0.40583400  0.41288500  1
  F  F9  1  0.90372600  0.45509300  0.48308000  1
  F  F10  1  0.03895900  0.41117300  0.56592200  1
  F  F11  1  0.07888800  0.40583500  0.58711500  1
  F  F12  1  0.09627400  0.45509400  0.51691900  1
  F  F13  1  0.91409800  0.89727700  0.57345700  1
  F  F14  1  0.90022600  0.83772500  0.54531600  1
  F  F15  1  0.94441800  0.88951300  0.47527900  1
  F  F16  1  0.08590100  0.89727700  0.42654300  1
  F  F17  1  0.09977400  0.83772500  0.45468400  1
  F  F18  1  0.05558200  0.88951300  0.52472000  1
  F  F19  1  0.41409800  0.39727700  0.57345700  1
  F  F20  1  0.40022600  0.33772500  0.54531600  1
  F  F21  1  0.44441800  0.38951300  0.47527900  1
  F  F22  1  0.58590100  0.39727700  0.42654300  1
  F  F23  1  0.59977400  0.33772500  0.45468400  1
  F  F24  1  0.55558200  0.38951300  0.52472000  1
