# generated using pymatgen
data_ZnH5C11NO4
_symmetry_space_group_name_H-M   'P 1'
_cell_length_a   8.53440000
_cell_length_b   12.27291900
_cell_length_c   13.09386400
_cell_angle_alpha   94.56751800
_cell_angle_beta   84.70284900
_cell_angle_gamma   90.00663600
_symmetry_Int_Tables_number   1
_chemical_formula_structural   ZnH5C11NO4
_chemical_formula_sum   'Zn2 H10 C22 N2 O8'
_cell_volume   1361.24718607
_cell_formula_units_Z   2
loop_
 _symmetry_equiv_pos_site_id
 _symmetry_equiv_pos_as_xyz
  1  'x, y, z'
loop_
 _atom_site_type_symbol
 _atom_site_label
 _atom_site_symmetry_multiplicity
 _atom_site_fract_x
 _atom_site_fract_y
 _atom_site_fract_z
 _atom_site_occupancy
  Zn  Zn1  1  0.49627100  0.12152700  0.51925900  1
  Zn  Zn2  1  0.50372900  0.87847300  0.48074100  1
  H  H1  1  0.79200600  0.98779500  0.16081300  1
  H  H2  1  0.20799300  0.01220500  0.83918700  1
  H  H3  1  0.16575200  0.94907600  0.98853800  1
  H  H4  1  0.83424800  0.05092400  0.01146200  1
  H  H5  1  0.29517700  0.98772800  0.14839600  1
  H  H6  1  0.70482300  0.01227200  0.85160400  1
  H  H7  1  0.01770300  0.04956400  0.43339000  1
  H  H8  1  0.98229700  0.95043600  0.56661000  1
  H  H9  1  0.47521100  0.52607100  0.61661600  1
  H  H10  1  0.52478900  0.47392900  0.38338400  1
  C  C1  1  0.17071200  0.01776700  0.29735500  1
  C  C2  1  0.82928800  0.98223300  0.70264500  1
  C  C3  1  0.18115600  0.99886700  0.19134300  1
  C  C4  1  0.81884400  0.00113300  0.80865700  1
  C  C5  1  0.04524700  0.99688700  0.14028900  1
  C  C6  1  0.95475300  0.00311300  0.85971100  1
  C  C7  1  0.89970300  0.00141500  0.19688900  1
  C  C8  1  0.10029700  0.99858500  0.80311100  1
  C  C9  1  0.89090600  0.02004500  0.30215800  1
  C  C10  1  0.10909400  0.97995500  0.69784200  1
  C  C11  1  0.02573000  0.03413600  0.35099600  1
  C  C12  1  0.97427000  0.96586400  0.64900400  1
  C  C13  1  0.05787300  0.98422700  0.02711600  1
  C  C14  1  0.94212700  0.01577300  0.97288400  1
  C  C15  1  0.30619400  0.01166700  0.35766600  1
  C  C16  1  0.69380600  0.98833300  0.64233400  1
  C  C17  1  0.25799700  0.98667600  0.63511100  1
  C  C18  1  0.74200300  0.01332400  0.36488900  1
  C  C19  1  0.50935000  0.52365200  0.45586200  1
  C  C20  1  0.49065100  0.47634800  0.54413800  1
  C  C21  1  0.49099200  0.35911700  0.54307700  1
  C  C22  1  0.50900800  0.64088300  0.45692300  1
  N  N1  1  0.50827000  0.73534800  0.45996500  1
  N  N2  1  0.49173000  0.26465200  0.54003500  1
  O  O1  1  0.35243000  0.91440800  0.37857300  1
  O  O2  1  0.64757000  0.08559200  0.62142700  1
  O  O3  1  0.35232300  0.10245600  0.40554300  1
  O  O4  1  0.64767700  0.89754500  0.59445700  1
  O  O5  1  0.31055100  0.08419100  0.61632800  1
  O  O6  1  0.68944900  0.91580900  0.38367200  1
  O  O7  1  0.32068800  0.89600500  0.58958600  1
  O  O8  1  0.67931200  0.10399500  0.41041400  1
