# generated using pymatgen
data_FeH9(C11O4)2
_symmetry_space_group_name_H-M   'P 1'
_cell_length_a   15.80843900
_cell_length_b   17.13637200
_cell_length_c   11.39130800
_cell_angle_alpha   108.28017600
_cell_angle_beta   88.00212700
_cell_angle_gamma   108.39827400
_symmetry_Int_Tables_number   1
_chemical_formula_structural   FeH9(C11O4)2
_chemical_formula_sum   'Fe2 H18 C44 O16'
_cell_volume   2773.33751111
_cell_formula_units_Z   2
loop_
 _symmetry_equiv_pos_site_id
 _symmetry_equiv_pos_as_xyz
  1  'x, y, z'
loop_
 _atom_site_type_symbol
 _atom_site_label
 _atom_site_symmetry_multiplicity
 _atom_site_fract_x
 _atom_site_fract_y
 _atom_site_fract_z
 _atom_site_occupancy
  Fe  Fe1  1  0.52277500  0.99961300  0.20666500  1
  Fe  Fe2  1  0.50945600  0.99742500  0.70061200  1
  H  H1  1  0.93498400  0.02430600  0.78011700  1
  H  H2  1  0.18731800  0.99210700  0.77161000  1
  H  H3  1  0.04323200  0.98901100  0.81154700  1
  H  H4  1  0.79206500  0.02142600  0.72283800  1
  H  H5  1  0.24111500  0.99182100  0.19313400  1
  H  H6  1  0.09069800  0.98852400  0.23373700  1
  H  H7  1  0.94602100  0.99357600  0.27995200  1
  H  H8  1  0.80410700  0.99682200  0.22430400  1
  H  H9  1  0.50002000  0.26554600  0.36052200  1
  H  H10  1  0.51171700  0.43030400  0.73288200  1
  H  H11  1  0.51572000  0.31464400  0.80867200  1
  H  H12  1  0.46572200  0.55169900  0.17104800  1
  H  H13  1  0.46432300  0.66852700  0.09716300  1
  H  H14  1  0.50217300  0.72209100  0.54418600  1
  H  H15  1  0.60065800  0.52652100  0.62833600  1
  H  H16  1  0.59241600  0.64108200  0.55271100  1
  H  H17  1  0.38865500  0.45679700  0.27611600  1
  H  H18  1  0.39884200  0.34202200  0.35041900  1
  C  C1  1  0.88434900  0.01177200  0.84334600  1
  C  C2  1  0.28372900  0.99535500  0.90209500  1
  C  C3  1  0.20007300  0.99207100  0.86411100  1
  C  C4  1  0.13248900  0.99087300  0.94420000  1
  C  C5  1  0.05090400  0.99171000  0.90617600  1
  C  C6  1  0.98272000  0.99424300  0.98700500  1
  C  C7  1  0.80222700  0.01269000  0.81060400  1
  C  C8  1  0.73203900  0.99705400  0.88346500  1
  C  C9  1  0.89963000  0.99815000  0.95364800  1
  C  C10  1  0.83109200  0.99144800  0.03435200  1
  C  C11  1  0.74543500  0.98714000  0.99710000  1
  C  C12  1  0.29830200  0.99531200  0.02199100  1
  C  C13  1  0.22908300  0.99048600  0.09958700  1
  C  C14  1  0.14690300  0.98974600  0.06149600  1
  C  C15  1  0.07948300  0.98947000  0.14120900  1
  C  C16  1  0.99815700  0.99166800  0.10432200  1
  C  C17  1  0.93299500  0.99291800  0.18706900  1
  C  C18  1  0.85053000  0.99272100  0.15305200  1
  C  C19  1  0.66970700  0.97469700  0.07694000  1
  C  C20  1  0.48914200  0.83473500  0.22658200  1
  C  C21  1  0.38698200  0.00917400  0.07467400  1
  C  C22  1  0.49558200  0.12593100  0.40823600  1
  C  C23  1  0.51531300  0.86312100  0.49747100  1
  C  C24  1  0.64386000  0.98680800  0.83347100  1
  C  C25  1  0.50937200  0.15294900  0.67915700  1
  C  C26  1  0.35359700  0.99757300  0.81296200  1
  C  C27  1  0.50367700  0.20946400  0.50137100  1
  C  C28  1  0.50323400  0.27661800  0.45925300  1
  C  C29  1  0.50564700  0.35628200  0.54107800  1
  C  C30  1  0.51094000  0.36898600  0.66675000  1
  C  C31  1  0.51206200  0.30248000  0.70972300  1
  C  C32  1  0.50805200  0.22190700  0.62815700  1
  C  C33  1  0.55316800  0.51067900  0.55170200  1
  C  C34  1  0.54804900  0.57600100  0.50876200  1
  C  C35  1  0.48937000  0.55788600  0.40903000  1
  C  C36  1  0.43658300  0.47292600  0.35231200  1
  C  C37  1  0.44234600  0.40748200  0.39465500  1
  C  C38  1  0.50053000  0.42588800  0.49486500  1
  C  C39  1  0.47244500  0.61434900  0.23813200  1
  C  C40  1  0.47270700  0.68162100  0.19591900  1
  C  C41  1  0.48654300  0.76451600  0.27749000  1
  C  C42  1  0.49734000  0.77793100  0.40401100  1
  C  C43  1  0.49455800  0.70974800  0.44552600  1
  C  C44  1  0.48438300  0.62805100  0.36344500  1
  O  O1  1  0.61219900  0.01699700  0.08337500  1
  O  O2  1  0.47166300  0.81601500  0.10730400  1
  O  O3  1  0.65762100  0.91928000  0.13822400  1
  O  O4  1  0.51406400  0.91632900  0.29754500  1
  O  O5  1  0.40163900  0.95065700  0.11558000  1
  O  O6  1  0.44963100  0.08424400  0.09252900  1
  O  O7  1  0.55920800  0.11846200  0.33269500  1
  O  O8  1  0.42212600  0.06000800  0.39456100  1
  O  O9  1  0.45783400  0.87715200  0.58086000  1
  O  O10  1  0.59339300  0.92270300  0.50671200  1
  O  O11  1  0.63573900  0.03810600  0.77295100  1
  O  O12  1  0.57483500  0.92019100  0.83561400  1
  O  O13  1  0.33773200  0.00339100  0.70422800  1
  O  O14  1  0.51708300  0.07912400  0.60745600  1
  O  O15  1  0.43088300  0.99127400  0.83875900  1
  O  O16  1  0.50350200  0.16560700  0.79846200  1
