# Generated by REPEAT Assigner based on pymatgen
data_DB0-m3_o22_o23_f0_pcu.sym.22
_audit_creation_date              2022-05-24
_audit_creation_method            REPEAT_Assigner
_cell_length_a                    10.794802
_cell_length_b                    9.735590
_cell_length_c                    15.963526
_cell_angle_alpha                 90.000000
_cell_angle_beta                  89.991855
_cell_angle_gamma                 90.000000
_cell_volume                      1677.666972
_symmetry_space_group_name_H-M    P1
_symmetry_Int_Tables_number       1
loop_
    _symmetry_equiv_pos_site_id
    _symmetry_equiv_pos_as_xyz
    1  x,y,z
loop_
    _atom_site_type_symbol
    _atom_site_label
    _atom_site_fract_x
    _atom_site_fract_y
    _atom_site_fract_z
    _atom_type_partial_charge
    O   O1   0.320274  0.623381  0.501142  -0.686338
    O   O2   0.320020  0.386066  0.497920  -0.599081
    C   C1   0.262035  0.504681  0.499804  0.670901
    O   O3   0.505047  0.621229  0.376419  -0.566746
    O   O4   0.506648  0.381241  0.374958  -0.550832
    C   C2   0.505995  0.501786  0.337102  0.696891
    Zn  Zn1  0.505573  0.657973  0.501429  0.911226
    Zn  Zn2  0.503881  0.343350  0.499732  0.889633
    O   O5   0.689230  0.615659  0.500596  -0.523794
    O   O6   0.689287  0.377695  0.499536  -0.625897
    O   O7   0.504807  0.617259  0.625844  -0.518558
    O   O8   0.504525  0.383208  0.624305  -0.514918
    C   C3   0.747282  0.497241  0.499429  0.489359
    C   C4   0.504509  0.499602  0.664334  0.663892
    C   C5   0.434353  0.624269  0.046951  -0.338392
    C   C6   0.437120  0.373538  0.048647  0.025123
    C   C7   0.429290  0.379029  0.953574  -0.202904
    C   C8   0.451601  0.633665  0.952750  -0.025428
    H   H1   0.360271  0.651611  0.922880  0.050029
    H   H2   0.331213  0.394383  0.935121  0.053823
    H   H3   0.334489  0.607306  0.059434  0.114841
    H   H4   0.341467  0.375914  0.073946  0.036410
    H   H5   0.461907  0.281899  0.924900  0.113374
    H   H6   0.514311  0.719229  0.935564  0.062138
    C   C9   0.504914  0.498451  0.754221  -0.101040
    C   C10  0.505853  0.500452  0.079948  0.606764
    C   C11  0.505766  0.499139  0.921333  0.507005
    C   C12  0.637699  0.486169  0.952707  -0.260893
    C   C13  0.638620  0.500897  0.047185  -0.020483
    C   C14  0.505321  0.498437  0.829699  -0.297602
    C   C15  0.506189  0.502077  0.171645  -0.436594
    C   C16  0.506226  0.502660  0.247160  -0.029016
    H   H7   0.686893  0.596812  0.064374  0.040985
    H   H8   0.692990  0.416649  0.075732  0.055569
    H   H9   0.695896  0.567978  0.924602  0.067402
    H   H10  0.676071  0.384903  0.934453  0.073271
    C   C17  0.073008  0.645767  0.519661  -0.073210
    C   C18  0.075337  0.404381  0.565423  -0.113415
    H   H11  0.097300  0.718856  0.469070  0.044290
    H   H12  0.115144  0.300668  0.556143  0.071958
    H   H13  0.113390  0.683269  0.579335  0.029728
    H   H14  0.100416  0.441888  0.628798  0.043019
    C   C19  0.933267  0.639025  0.529512  -0.100169
    C   C20  0.935843  0.392920  0.558248  -0.142037
    H   H15  0.910275  0.649171  0.596938  0.076239
    H   H16  0.894711  0.410475  0.621022  0.066691
    H   H17  0.892090  0.727835  0.496177  0.058373
    H   H18  0.911020  0.287345  0.539444  0.062772
    H   H19  0.131857  0.503429  0.363974  0.099148
    H   H20  0.094595  0.345235  0.410277  0.139850
    C   C21  0.076522  0.456165  0.414681  -0.327301
    C   C22  0.123086  0.503659  0.499663  0.119186
    C   C23  0.886332  0.500627  0.497398  0.159955
    C   C24  0.936672  0.480857  0.407660  0.387139
    C   C25  0.387178  0.072637  0.461586  0.131641
    C   C26  0.401829  0.916620  0.452429  0.010600
    H   H21  0.308173  0.084316  0.503342  0.010351
    H   H22  0.316241  0.871362  0.476648  0.012597
    H   H23  0.592109  0.100766  0.382832  0.026910
    H   H24  0.641339  0.873384  0.403115  0.090092
    C   C27  0.603134  0.080644  0.449887  0.033134
    C   C28  0.619026  0.925262  0.462597  -0.063135
    C   C29  0.511329  0.082416  0.587749  0.832146
    C   C30  0.499869  0.921816  0.589540  0.708083
    N   N1   0.499127  0.136341  0.499257  -0.183010
    N   N2   0.508575  0.864757  0.501771  -0.208231
    H   H25  0.690294  0.134686  0.462965  0.083395
    H   H26  0.704229  0.906876  0.497902  0.062142
    N   N3   0.910562  0.604377  0.357933  0.353438
    O   O9   0.796571  0.641507  0.344312  -0.307851
    O   O10  0.999153  0.676685  0.324727  -0.287628
    N   N4   0.878539  0.363667  0.365905  0.408804
    O   O11  0.893473  0.239208  0.393622  -0.319024
    O   O12  0.826275  0.381225  0.293306  -0.299988
    N   N5   0.342596  0.137941  0.384556  0.379570
    O   O13  0.223423  0.147931  0.375458  -0.339568
    O   O14  0.411433  0.156732  0.318809  -0.191667
    N   N6   0.400073  0.870504  0.365017  0.680806
    O   O15  0.303798  0.801813  0.339688  -0.307010
    O   O16  0.483147  0.905217  0.309956  -0.288663
    N   N7   0.631775  0.126196  0.624396  0.118494
    O   O17  0.738366  0.081138  0.598153  -0.271682
    O   O18  0.632350  0.195904  0.693890  -0.205938
    N   N8   0.600342  0.871611  0.644659  0.327306
    O   O19  0.686410  0.788687  0.619120  -0.332318
    O   O20  0.602597  0.908160  0.723161  -0.277614
    N   N9   0.414173  0.135734  0.644532  0.320731
    O   O21  0.416303  0.103153  0.723678  -0.312357
    O   O22  0.324744  0.214455  0.619162  -0.334206
    N   N10  0.382163  0.878274  0.630514  0.251880
    O   O23  0.387625  0.808044  0.699707  -0.258057
    O   O24  0.273653  0.925463  0.609784  -0.273801
    N   N11  0.494547  0.246523  0.077420  0.524709
    O   O25  0.434967  0.170164  0.130699  -0.335092
    O   O26  0.592695  0.197394  0.040847  -0.346795
    N   N12  0.469496  0.751413  0.088860  0.671493
    O   O27  0.387733  0.814772  0.134493  -0.356449
    O   O28  0.575958  0.809602  0.074950  -0.370574
