# generated using pymatgen
data_Cu3H26C42(ClO6)2
_symmetry_space_group_name_H-M   'P 1'
_cell_length_a   43.49020700
_cell_length_b   30.03776500
_cell_length_c   29.84054000
_cell_angle_alpha   90.00000000
_cell_angle_beta   133.00505400
_cell_angle_gamma   90.00000000
_symmetry_Int_Tables_number   1
_chemical_formula_structural   Cu3H26C42(ClO6)2
_chemical_formula_sum   'Cu12 H104 C168 Cl8 O48'
_cell_volume   28507.39315538
_cell_formula_units_Z   4
loop_
 _symmetry_equiv_pos_site_id
 _symmetry_equiv_pos_as_xyz
  1  'x, y, z'
loop_
 _atom_site_type_symbol
 _atom_site_label
 _atom_site_symmetry_multiplicity
 _atom_site_fract_x
 _atom_site_fract_y
 _atom_site_fract_z
 _atom_site_occupancy
  Cu  Cu1  1  0.50000100  0.95961400  0.50000100  1
  Cu  Cu2  1  0.00000100  0.45961400  0.50000100  1
  Cu  Cu3  1  0.50000100  0.04655400  0.50000200  1
  Cu  Cu4  1  0.00000100  0.54655400  0.50000200  1
  Cu  Cu5  1  0.99909100  0.99901200  0.04285900  1
  Cu  Cu6  1  0.00091100  0.99901300  0.95714300  1
  Cu  Cu7  1  0.49909100  0.49901200  0.04285900  1
  Cu  Cu8  1  0.50091100  0.49901300  0.95714300  1
  Cu  Cu9  1  0.45897800  0.99890100  0.95844100  1
  Cu  Cu10  1  0.54102700  0.99890100  0.04156300  1
  Cu  Cu11  1  0.95897800  0.49890100  0.95844100  1
  Cu  Cu12  1  0.04102700  0.49890100  0.04156300  1
  H  H1  1  0.28148300  0.96593700  0.34709400  1
  H  H2  1  0.71851900  0.96593300  0.65291100  1
  H  H3  1  0.78148300  0.46593700  0.34709400  1
  H  H4  1  0.21851900  0.46593300  0.65291100  1
  H  H5  1  0.28194800  0.07368800  0.28766300  1
  H  H6  1  0.71805300  0.07368800  0.71233600  1
  H  H7  1  0.78194800  0.57368800  0.28766300  1
  H  H8  1  0.21805300  0.57368800  0.71233600  1
  H  H9  1  0.28626600  0.04774200  0.34634500  1
  H  H10  1  0.71373500  0.04773900  0.65365500  1
  H  H11  1  0.78626600  0.54774200  0.34634500  1
  H  H12  1  0.21373500  0.54773900  0.65365500  1
  H  H13  1  0.21570600  0.03893500  0.28054900  1
  H  H14  1  0.78429600  0.03893300  0.71945000  1
  H  H15  1  0.71570600  0.53893500  0.28054900  1
  H  H16  1  0.28429600  0.53893300  0.71945000  1
  H  H17  1  0.21149300  0.07198800  0.22639500  1
  H  H18  1  0.78850900  0.07198800  0.77360300  1
  H  H19  1  0.71149300  0.57198800  0.22639500  1
  H  H20  1  0.28850900  0.57198800  0.77360300  1
  H  H21  1  0.28377800  0.96797900  0.22469700  1
  H  H22  1  0.71622400  0.96798200  0.77530600  1
  H  H23  1  0.78377800  0.46797900  0.22469700  1
  H  H24  1  0.21622400  0.46798200  0.77530600  1
  H  H25  1  0.28844200  0.02769200  0.22458900  1
  H  H26  1  0.71156000  0.02769600  0.77541200  1
  H  H27  1  0.78844200  0.52769200  0.22458900  1
  H  H28  1  0.21156000  0.52769600  0.77541200  1
  H  H29  1  0.21332700  0.97742900  0.14802800  1
  H  H30  1  0.78667500  0.97743300  0.85197600  1
  H  H31  1  0.71332700  0.47742900  0.14802800  1
  H  H32  1  0.28667500  0.47743300  0.85197600  1
  H  H33  1  0.28933200  0.93159500  0.30592500  1
  H  H34  1  0.71067100  0.93159400  0.69408100  1
  H  H35  1  0.78933200  0.43159500  0.30592500  1
  H  H36  1  0.21067100  0.43159400  0.69408100  1
  H  H37  1  0.21985700  0.93016300  0.22092600  1
  H  H38  1  0.78014500  0.93016300  0.77908000  1
  H  H39  1  0.71985700  0.43016300  0.22092600  1
  H  H40  1  0.28014500  0.43016300  0.77908000  1
  H  H41  1  0.21784500  0.03699500  0.15881400  1
  H  H42  1  0.78215700  0.03699800  0.84118700  1
  H  H43  1  0.71784500  0.53699500  0.15881400  1
  H  H44  1  0.28215700  0.53699800  0.84118700  1
  H  H45  1  0.54926700  0.05300800  0.77116500  1
  H  H46  1  0.45073700  0.05301200  0.22884000  1
  H  H47  1  0.04926700  0.55300800  0.77116500  1
  H  H48  1  0.95073700  0.55301200  0.22884000  1
  H  H49  1  0.46037100  0.94902700  0.59837600  1
  H  H50  1  0.53963100  0.94902800  0.40162500  1
  H  H51  1  0.96037100  0.44902700  0.59837600  1
  H  H52  1  0.03963100  0.44902800  0.40162500  1
  H  H53  1  0.46084900  0.94588200  0.67954900  1
  H  H54  1  0.53915400  0.94588500  0.32045300  1
  H  H55  1  0.96084900  0.44588200  0.67954900  1
  H  H56  1  0.03915400  0.44588500  0.32045300  1
  H  H57  1  0.43723500  0.98909400  0.71656500  1
  H  H58  1  0.56276800  0.98909700  0.28343900  1
  H  H59  1  0.93723500  0.48909400  0.71656500  1
  H  H60  1  0.06276800  0.48909700  0.28343900  1
  H  H61  1  0.43589100  0.98790800  0.79612200  1
  H  H62  1  0.56411300  0.98791000  0.20388300  1
  H  H63  1  0.93589100  0.48790800  0.79612200  1
  H  H64  1  0.06411300  0.48791000  0.20388300  1
  H  H65  1  0.56908100  0.00897200  0.93123100  1
  H  H66  1  0.43092300  0.00897500  0.06877400  1
  H  H67  1  0.06908100  0.50897200  0.93123100  1
  H  H68  1  0.93092300  0.50897500  0.06877400  1
  H  H69  1  0.57059000  0.00815100  0.85185000  1
  H  H70  1  0.42941500  0.00815600  0.14815400  1
  H  H71  1  0.07059000  0.50815100  0.85185000  1
  H  H72  1  0.92941500  0.50815600  0.14815400  1
  H  H73  1  0.97447100  0.77918700  0.90837400  1
  H  H74  1  0.02553200  0.77918700  0.09162800  1
  H  H75  1  0.47447100  0.27918700  0.90837400  1
  H  H76  1  0.52553200  0.27918700  0.09162800  1
  H  H77  1  0.97410400  0.85979600  0.90805700  1
  H  H78  1  0.02589800  0.85979600  0.09194500  1
  H  H79  1  0.47410400  0.35979600  0.90805700  1
  H  H80  1  0.52589800  0.35979600  0.09194500  1
  H  H81  1  0.56084100  0.21864800  0.09088600  1
  H  H82  1  0.43916200  0.21864800  0.90911500  1
  H  H83  1  0.06084100  0.71864800  0.09088600  1
  H  H84  1  0.93916200  0.71864800  0.90911500  1
  H  H85  1  0.56077900  0.13804000  0.09121400  1
  H  H86  1  0.43922500  0.13804000  0.90878800  1
  H  H87  1  0.06077900  0.63804000  0.09121400  1
  H  H88  1  0.93922500  0.63804000  0.90878800  1
  H  H89  1  0.02788700  0.21876600  0.96255900  1
  H  H90  1  0.97211600  0.21876600  0.03744600  1
  H  H91  1  0.52788700  0.71876600  0.96255900  1
  H  H92  1  0.47211600  0.71876600  0.03744600  1
  H  H93  1  0.02826300  0.13816700  0.96299500  1
  H  H94  1  0.97174000  0.13816700  0.03700900  1
  H  H95  1  0.52826300  0.63816700  0.96299500  1
  H  H96  1  0.47174000  0.63816700  0.03700900  1
  H  H97  1  0.43808300  0.77922400  0.96628200  1
  H  H98  1  0.56192100  0.77922400  0.03372400  1
  H  H99  1  0.93808300  0.27922400  0.96628200  1
  H  H100  1  0.06192100  0.27922400  0.03372400  1
  H  H101  1  0.43813200  0.85982400  0.96673600  1
  H  H102  1  0.56187200  0.85982300  0.03327000  1
  H  H103  1  0.93813200  0.35982400  0.96673600  1
  H  H104  1  0.06187200  0.35982300  0.03327000  1
  C  C1  1  0.50361500  0.00285600  0.58832800  1
  C  C2  1  0.49638700  0.00285700  0.41167500  1
  C  C3  1  0.00361500  0.50285600  0.58832800  1
  C  C4  1  0.99638700  0.50285700  0.41167500  1
  C  C5  1  0.42016100  0.00312100  0.42345000  1
  C  C6  1  0.57984200  0.00312100  0.57655200  1
  C  C7  1  0.92016100  0.50312100  0.42345000  1
  C  C8  1  0.07984200  0.50312100  0.57655200  1
  C  C9  1  0.27402800  0.96220200  0.30357700  1
  C  C10  1  0.72597500  0.96220100  0.69642800  1
  C  C11  1  0.77402800  0.46220200  0.30357700  1
  C  C12  1  0.22597500  0.46220100  0.69642800  1
  C  C13  1  0.27298200  0.04420600  0.29897000  1
  C  C14  1  0.72702100  0.04420500  0.70103100  1
  C  C15  1  0.77298200  0.54420600  0.29897000  1
  C  C16  1  0.22702100  0.54420500  0.70103100  1
  C  C17  1  0.22536700  0.04128400  0.25456400  1
  C  C18  1  0.77463600  0.04128300  0.74543600  1
  C  C19  1  0.72536700  0.54128400  0.25456400  1
  C  C20  1  0.27463600  0.54128300  0.74543600  1
  C  C21  1  0.12538100  0.99969200  0.12740900  1
  C  C22  1  0.87462100  0.99969200  0.87259300  1
  C  C23  1  0.62538100  0.49969200  0.12740900  1
  C  C24  1  0.37462100  0.49969200  0.87259300  1
  C  C25  1  0.29011900  0.00244100  0.29407900  1
  C  C26  1  0.70988300  0.00244100  0.70592300  1
  C  C27  1  0.79011900  0.50244100  0.29407900  1
  C  C28  1  0.20988300  0.50244100  0.70592300  1
  C  C29  1  0.22676100  0.95844200  0.25051700  1
  C  C30  1  0.77324100  0.95844100  0.74948700  1
  C  C31  1  0.72676100  0.45844200  0.25051700  1
  C  C32  1  0.27324100  0.45844100  0.74948700  1
  C  C33  1  0.20990900  0.00107000  0.21296600  1
  C  C34  1  0.79009300  0.00107100  0.78703700  1
  C  C35  1  0.70990900  0.50107000  0.21296600  1
  C  C36  1  0.29009300  0.50107100  0.78703700  1
  C  C37  1  0.22678000  0.00440600  0.18232500  1
  C  C38  1  0.77322200  0.00440800  0.81767800  1
  C  C39  1  0.72678000  0.50440600  0.18232500  1
  C  C40  1  0.27322200  0.50440800  0.81767800  1
  C  C41  1  0.27440400  0.00023100  0.23045500  1
  C  C42  1  0.72559800  0.00023300  0.76954800  1
  C  C43  1  0.77440400  0.50023100  0.23045500  1
  C  C44  1  0.22559800  0.50023300  0.76954800  1
  C  C45  1  0.16349800  0.00026300  0.16605400  1
  C  C46  1  0.83650400  0.00026300  0.83394800  1
  C  C47  1  0.66349800  0.50026300  0.16605400  1
  C  C48  1  0.33650400  0.50026300  0.83394800  1
  C  C49  1  0.33652600  0.00305900  0.34075400  1
  C  C50  1  0.66347700  0.00305900  0.65924800  1
  C  C51  1  0.83652600  0.50305900  0.34075400  1
  C  C52  1  0.16347700  0.50305900  0.65924800  1
  C  C53  1  0.37464700  0.00329000  0.37872000  1
  C  C54  1  0.62535600  0.00329000  0.62128300  1
  C  C55  1  0.87464700  0.50329000  0.37872000  1
  C  C56  1  0.12535600  0.50329000  0.62128300  1
  C  C57  1  0.53001700  0.02967100  0.73365200  1
  C  C58  1  0.46998700  0.02967500  0.26635200  1
  C  C59  1  0.03001700  0.52967100  0.73365200  1
  C  C60  1  0.96998700  0.52967500  0.26635200  1
  C  C61  1  0.53070600  0.03112300  0.68837600  1
  C  C62  1  0.46929700  0.03112600  0.31162800  1
  C  C63  1  0.03070600  0.53112300  0.68837600  1
  C  C64  1  0.96929700  0.53112600  0.31162800  1
  C  C65  1  0.50518500  0.00234900  0.63871500  1
  C  C66  1  0.49481800  0.00235100  0.36128900  1
  C  C67  1  0.00518500  0.50234900  0.63871500  1
  C  C68  1  0.99481800  0.50235100  0.36128900  1
  C  C69  1  0.48038600  0.97183700  0.63639400  1
  C  C70  1  0.51961700  0.97184000  0.36360900  1
  C  C71  1  0.98038600  0.47183700  0.63639400  1
  C  C72  1  0.01961700  0.47184000  0.36360900  1
  C  C73  1  0.48010500  0.97046100  0.68203200  1
  C  C74  1  0.51989800  0.97046400  0.31797100  1
  C  C75  1  0.98010500  0.47046100  0.68203200  1
  C  C76  1  0.01989800  0.47046400  0.31797100  1
  C  C77  1  0.50470800  0.99960200  0.73060100  1
  C  C78  1  0.49529600  0.99960500  0.26940300  1
  C  C79  1  0.00470800  0.49960200  0.73060100  1
  C  C80  1  0.99529600  0.49960500  0.26940300  1
  C  C81  1  0.46647300  0.99257900  0.76372300  1
  C  C82  1  0.53353100  0.99258200  0.23628100  1
  C  C83  1  0.96647300  0.49257900  0.76372300  1
  C  C84  1  0.03353100  0.49258200  0.23628100  1
  C  C85  1  0.46567600  0.99228400  0.80889200  1
  C  C86  1  0.53432800  0.99228700  0.19111200  1
  C  C87  1  0.96567600  0.49228400  0.80889200  1
  C  C88  1  0.03432800  0.49228700  0.19111200  1
  C  C89  1  0.50237500  0.99853000  0.86916100  1
  C  C90  1  0.49762900  0.99853300  0.13084300  1
  C  C91  1  0.00237500  0.49853000  0.86916100  1
  C  C92  1  0.99762900  0.49853300  0.13084300  1
  C  C93  1  0.53992000  0.00459900  0.88420700  1
  C  C94  1  0.46008400  0.00460200  0.11579800  1
  C  C95  1  0.03992000  0.50459900  0.88420700  1
  C  C96  1  0.96008400  0.50460200  0.11579800  1
  C  C97  1  0.54074300  0.00446700  0.83906900  1
  C  C98  1  0.45926100  0.00447100  0.16093500  1
  C  C99  1  0.04074300  0.50446700  0.83906900  1
  C  C100  1  0.95926100  0.50447100  0.16093500  1
  C  C101  1  0.50399500  0.99870400  0.77866300  1
  C  C102  1  0.49600900  0.99870800  0.22134100  1
  C  C103  1  0.00399500  0.49870400  0.77866300  1
  C  C104  1  0.99600900  0.49870800  0.22134100  1
  C  C105  1  0.00000100  0.91456300  0.00000100  1
  C  C106  1  0.50000100  0.41456300  0.00000100  1
  C  C107  1  0.07987400  0.99915500  0.08125300  1
  C  C108  1  0.92012800  0.99915500  0.91875000  1
  C  C109  1  0.57987400  0.49915500  0.08125300  1
  C  C110  1  0.42012800  0.49915500  0.91875000  1
  C  C111  1  0.00000100  0.08344400  0.00000200  1
  C  C112  1  0.50000100  0.58344400  0.00000200  1
  C  C113  1  0.50000200  0.08327600  0.00000100  1
  C  C114  1  0.00000200  0.58327600  0.00000100  1
  C  C115  1  0.50148200  0.99875500  0.91689900  1
  C  C116  1  0.49852200  0.99875700  0.08310500  1
  C  C117  1  0.00148200  0.49875500  0.91689900  1
  C  C118  1  0.99852200  0.49875700  0.08310500  1
  C  C119  1  0.50000200  0.91454300  0.00000300  1
  C  C120  1  0.00000200  0.41454300  0.00000300  1
  C  C121  1  0.98535600  0.79662000  0.94866600  1
  C  C122  1  0.01464700  0.79662000  0.05133600  1
  C  C123  1  0.48535600  0.29662000  0.94866600  1
  C  C124  1  0.51464700  0.29662000  0.05133600  1
  C  C125  1  0.98553800  0.84251100  0.94873900  1
  C  C126  1  0.01446500  0.84251100  0.05126300  1
  C  C127  1  0.48553800  0.34251100  0.94873900  1
  C  C128  1  0.51446500  0.34251100  0.05126300  1
  C  C129  1  0.00000100  0.86574700  0.00000100  1
  C  C130  1  0.50000100  0.36574700  0.00000100  1
  C  C131  1  0.00000200  0.77336000  0.00000100  1
  C  C132  1  0.50000200  0.27336000  0.00000100  1
  C  C133  1  0.53375300  0.20121600  0.05093500  1
  C  C134  1  0.46625100  0.20121500  0.94906700  1
  C  C135  1  0.03375300  0.70121600  0.05093500  1
  C  C136  1  0.96625100  0.70121500  0.94906700  1
  C  C137  1  0.53386300  0.15532400  0.05085600  1
  C  C138  1  0.46614100  0.15532400  0.94914600  1
  C  C139  1  0.03386300  0.65532400  0.05085600  1
  C  C140  1  0.96614100  0.65532400  0.94914600  1
  C  C141  1  0.50000200  0.13208900  0.00000100  1
  C  C142  1  0.00000200  0.63208900  0.00000100  1
  C  C143  1  0.50000200  0.22447500  0.00000100  1
  C  C144  1  0.00000200  0.72447500  0.00000100  1
  C  C145  1  0.01595800  0.20132800  0.97970600  1
  C  C146  1  0.98404500  0.20132800  0.02029900  1
  C  C147  1  0.51595800  0.70132800  0.97970600  1
  C  C148  1  0.48404500  0.70132800  0.02029900  1
  C  C149  1  0.01578700  0.15545000  0.97942400  1
  C  C150  1  0.98421600  0.15545000  0.02058000  1
  C  C151  1  0.51578700  0.65545000  0.97942400  1
  C  C152  1  0.48421600  0.65545000  0.02058000  1
  C  C153  1  0.00000100  0.13223300  0.00000200  1
  C  C154  1  0.50000100  0.63223300  0.00000200  1
  C  C155  1  0.00000200  0.22456700  0.00000200  1
  C  C156  1  0.50000200  0.72456700  0.00000200  1
  C  C157  1  0.46563000  0.79666200  0.98179200  1
  C  C158  1  0.53437300  0.79666200  0.01821400  1
  C  C159  1  0.96563000  0.29666200  0.98179200  1
  C  C160  1  0.03437300  0.29666200  0.01821400  1
  C  C161  1  0.46553000  0.84254100  0.98150700  1
  C  C162  1  0.53447400  0.84254000  0.01849900  1
  C  C163  1  0.96553000  0.34254100  0.98150700  1
  C  C164  1  0.03447400  0.34254000  0.01849900  1
  C  C165  1  0.50000200  0.86575700  0.00000300  1
  C  C166  1  0.00000200  0.36575700  0.00000300  1
  C  C167  1  0.50000200  0.77342300  0.00000300  1
  C  C168  1  0.00000200  0.27342300  0.00000300  1
  Cl  Cl1  1  0.20235000  0.94778200  0.27883600  1
  Cl  Cl2  1  0.79765200  0.94777800  0.72116900  1
  Cl  Cl3  1  0.70235000  0.44778200  0.27883600  1
  Cl  Cl4  1  0.29765200  0.44777800  0.72116900  1
  Cl  Cl5  1  0.56633200  0.06833000  0.69886900  1
  Cl  Cl6  1  0.43367200  0.06833300  0.30113500  1
  Cl  Cl7  1  0.06633200  0.56833000  0.69886900  1
  Cl  Cl8  1  0.93367200  0.56833300  0.30113500  1
  O  O1  1  0.49060100  0.96641800  0.55493900  1
  O  O2  1  0.50940200  0.96641900  0.44506300  1
  O  O3  1  0.99060100  0.46641800  0.55493900  1
  O  O4  1  0.00940200  0.46641900  0.44506300  1
  O  O5  1  0.51370800  0.03975900  0.57703700  1
  O  O6  1  0.48629500  0.03976000  0.42296700  1
  O  O7  1  0.01370800  0.53975900  0.57703700  1
  O  O8  1  0.98629500  0.53976000  0.42296700  1
  O  O9  1  0.43960700  0.96636600  0.42992000  1
  O  O10  1  0.56039600  0.96636600  0.57008200  1
  O  O11  1  0.93960700  0.46636600  0.42992000  1
  O  O12  1  0.06039600  0.46636600  0.57008200  1
  O  O13  1  0.44041000  0.03979600  0.45535400  1
  O  O14  1  0.55959200  0.03979700  0.54464900  1
  O  O15  1  0.94041000  0.53979600  0.45535400  1
  O  O16  1  0.05959200  0.53979700  0.54464900  1
  O  O17  1  0.01077300  0.93549800  0.04792100  1
  O  O18  1  0.98923000  0.93549800  0.95208100  1
  O  O19  1  0.51077300  0.43549800  0.04792100  1
  O  O20  1  0.48923000  0.43549800  0.95208100  1
  O  O21  1  0.05925100  0.01123700  0.09727700  1
  O  O22  1  0.94075200  0.01123700  0.90272500  1
  O  O23  1  0.55925100  0.51123700  0.09727700  1
  O  O24  1  0.44075200  0.51123700  0.90272500  1
  O  O25  1  0.06079600  0.98682000  0.02489700  1
  O  O26  1  0.93920700  0.98682000  0.97510500  1
  O  O27  1  0.56079600  0.48682000  0.02489700  1
  O  O28  1  0.43920700  0.48682000  0.97510500  1
  O  O29  1  0.98768900  0.06252300  0.02442900  1
  O  O30  1  0.01231400  0.06252300  0.97557400  1
  O  O31  1  0.48768900  0.56252300  0.02442900  1
  O  O32  1  0.51231400  0.56252300  0.97557400  1
  O  O33  1  0.46562500  0.06234600  0.95253900  1
  O  O34  1  0.53437900  0.06234600  0.04746400  1
  O  O35  1  0.96562500  0.56234600  0.95253900  1
  O  O36  1  0.03437900  0.56234600  0.04746400  1
  O  O37  1  0.46647800  0.98631700  0.90223000  1
  O  O38  1  0.53352600  0.98631800  0.09777500  1
  O  O39  1  0.96647800  0.48631700  0.90223000  1
  O  O40  1  0.03352600  0.48631800  0.09777500  1
  O  O41  1  0.53570200  0.01144300  0.97237900  1
  O  O42  1  0.46430200  0.01144400  0.02762500  1
  O  O43  1  0.03570200  0.51144300  0.97237900  1
  O  O44  1  0.96430200  0.51144400  0.02762500  1
  O  O45  1  0.46520400  0.93546000  0.97739000  1
  O  O46  1  0.53480000  0.93545900  0.02261500  1
  O  O47  1  0.96520400  0.43546000  0.97739000  1
  O  O48  1  0.03480000  0.43545900  0.02261500  1
