data_DB0-m3_o12_o29_f0_pcu.sym.33_repeat
_audit_creation_date              2024-02-23
_audit_creation_method            'Materials Studio'
_symmetry_space_group_name_H-M    'P1'
_symmetry_Int_Tables_number       1
_symmetry_cell_setting            triclinic
loop_
_symmetry_equiv_pos_as_xyz
  x,y,z
_cell_length_a                    10.0842
_cell_length_b                    11.2463
_cell_length_c                    27.6600
_cell_angle_alpha                 89.9861
_cell_angle_beta                  80.7104
_cell_angle_gamma                 92.4663
loop_
_atom_site_label
_atom_site_type_symbol
_atom_site_fract_x
_atom_site_fract_y
_atom_site_fract_z
_atom_site_U_iso_or_equiv
_atom_site_adp_type
_atom_site_occupancy
O1     O     0.42514   0.68674   0.50584   0.00000  Uiso   1.00
O2     O     0.57269   0.30536   0.49711   0.00000  Uiso   1.00
O3     O     0.65271   0.65564   0.49301   0.00000  Uiso   1.00
O4     O     0.34480   0.33651   0.51019   0.00000  Uiso   1.00
C1     C     0.55109   0.72609   0.49880   0.00000  Uiso   1.00
C2     C     0.44659   0.26609   0.50433   0.00000  Uiso   1.00
O5     O     0.38543   0.51042   0.58035   0.00000  Uiso   1.00
O6     O     0.61209   0.48214   0.42282   0.00000  Uiso   1.00
O7     O     0.61339   0.48025   0.56683   0.00000  Uiso   1.00
O8     O     0.38430   0.51164   0.43631   0.00000  Uiso   1.00
C3     C     0.49943   0.49506   0.59623   0.00000  Uiso   1.00
C4     C     0.49821   0.49711   0.40690   0.00000  Uiso   1.00
Zn1    Zn    0.34875   0.51681   0.51048   0.00000  Uiso   1.00
Zn2    Zn    0.64889   0.47536   0.49266   0.00000  Uiso   1.00
C5     C     0.58315   0.57163   0.82047   0.00000  Uiso   1.00
C6     C     0.42670   0.41291   0.18208   0.00000  Uiso   1.00
O9     O     0.66318   0.64945   0.79105   0.00000  Uiso   1.00
O10    O     0.35745   0.32770   0.21097   0.00000  Uiso   1.00
N1     N     0.49990   0.49493   0.80118   0.00000  Uiso   1.00
N2     N     0.49890   0.49781   0.20197   0.00000  Uiso   1.00
C7     C     0.41664   0.41850   0.83041   0.00000  Uiso   1.00
C8     C     0.57127   0.58235   0.17341   0.00000  Uiso   1.00
C9     C     0.61587   0.47284   0.71750   0.00000  Uiso   1.00
C10    C     0.38060   0.51181   0.28561   0.00000  Uiso   1.00
C11    C     0.61594   0.47299   0.66764   0.00000  Uiso   1.00
C12    C     0.38037   0.51203   0.33548   0.00000  Uiso   1.00
C13    C     0.38322   0.51652   0.68141   0.00000  Uiso   1.00
C14    C     0.61684   0.48400   0.32165   0.00000  Uiso   1.00
C15    C     0.38353   0.51665   0.73124   0.00000  Uiso   1.00
C16    C     0.61692   0.48449   0.27179   0.00000  Uiso   1.00
C17    C     0.49976   0.49477   0.74954   0.00000  Uiso   1.00
C18    C     0.49882   0.49809   0.25357   0.00000  Uiso   1.00
C19    C     0.49980   0.49554   0.90098   0.00000  Uiso   1.00
C20    C     0.49922   0.49706   0.10221   0.00000  Uiso   1.00
C21    C     0.58419   0.57265   0.87045   0.00000  Uiso   1.00
C22    C     0.42586   0.41167   0.13210   0.00000  Uiso   1.00
C23    C     0.67003   0.65016   0.88993   0.00000  Uiso   1.00
C24    C     0.35347   0.32418   0.11184   0.00000  Uiso   1.00
C25    C     0.41550   0.41809   0.88052   0.00000  Uiso   1.00
C26    C     0.57241   0.58284   0.12330   0.00000  Uiso   1.00
C27    C     0.49952   0.49480   0.64927   0.00000  Uiso   1.00
C28    C     0.49846   0.49774   0.35383   0.00000  Uiso   1.00
H1     H     0.29096   0.53434   0.66812   0.00000  Uiso   1.00
H2     H     0.71062   0.47261   0.33491   0.00000  Uiso   1.00
H3     H     0.29232   0.53529   0.75589   0.00000  Uiso   1.00
H4     H     0.70989   0.47270   0.24704   0.00000  Uiso   1.00
H5     H     0.73945   0.71013   0.86686   0.00000  Uiso   1.00
H6     H     0.29719   0.25441   0.13417   0.00000  Uiso   1.00
C29    C     0.57732   0.58173   0.02224   0.00000  Uiso   1.00
C30    C     0.41666   0.41462   0.98124   0.00000  Uiso   1.00
C31    C     0.42161   0.41121   0.03157   0.00000  Uiso   1.00
C32    C     0.58257   0.57754   0.97132   0.00000  Uiso   1.00
C33    C     0.49938   0.49667   0.05184   0.00000  Uiso   1.00
C34    C     0.49968   0.49590   0.95134   0.00000  Uiso   1.00
C35    C     0.64731   0.66988   0.04461   0.00000  Uiso   1.00
C36    C     0.32953   0.33924   0.95985   0.00000  Uiso   1.00
C37    C     0.64498   0.66994   0.09434   0.00000  Uiso   1.00
C38    C     0.32958   0.34090   0.91025   0.00000  Uiso   1.00
O11    O     0.64042   0.66789   0.19399   0.00000  Uiso   1.00
O12    O     0.33662   0.34042   0.81055   0.00000  Uiso   1.00
C39    C     0.66986   0.65252   0.93954   0.00000  Uiso   1.00
C40    C     0.35147   0.32347   0.06236   0.00000  Uiso   1.00
H7     H     0.28663   0.52358   0.35973   0.00000  Uiso   1.00
H8     H     0.70813   0.45524   0.64343   0.00000  Uiso   1.00
H9     H     0.28775   0.52371   0.27173   0.00000  Uiso   1.00
H10    H     0.70719   0.45425   0.73135   0.00000  Uiso   1.00
H11    H     0.70114   0.73999   0.10991   0.00000  Uiso   1.00
H12    H     0.26024   0.28067   0.89545   0.00000  Uiso   1.00
H13    H     0.70321   0.74349   0.02520   0.00000  Uiso   1.00
H14    H     0.25590   0.27880   0.98027   0.00000  Uiso   1.00
H15    H     0.74342   0.71318   0.95119   0.00000  Uiso   1.00
H16    H     0.29568   0.24959   0.04969   0.00000  Uiso   1.00
H17    H     0.61992   0.09131   0.49476   0.00000  Uiso   1.00
H18    H     0.37777   0.90085   0.50830   0.00000  Uiso   1.00
C41    C     0.58063   0.85493   0.49713   0.00000  Uiso   1.00
C42    C     0.41705   0.13725   0.50599   0.00000  Uiso   1.00
C43    C     0.48237   0.93188   0.50251   0.00000  Uiso   1.00
C44    C     0.51531   0.06029   0.50057   0.00000  Uiso   1.00
H19    H     0.31299   0.10450   0.51182   0.00000  Uiso   1.00
H20    H     0.68469   0.88768   0.49134   0.00000  Uiso   1.00
H21    H     0.10955   0.39972   0.48272   0.00000  Uiso   1.00
H22    H     0.87668   0.54172   0.54099   0.00000  Uiso   1.00
N3     N     0.84610   0.44765   0.48067   0.00000  Uiso   1.00
N4     N     0.15166   0.54507   0.52224   0.00000  Uiso   1.00
C45    C     0.92340   0.49507   0.50885   0.00000  Uiso   1.00
C46    C     0.07002   0.47767   0.50203   0.00000  Uiso   1.00
C47    C     0.10940   0.65737   0.54062   0.00000  Uiso   1.00
O13    O     0.15767   0.70106   0.57454   0.00000  Uiso   1.00
O14    O     0.02796   0.72544   0.51639   0.00000  Uiso   1.00
H23    H     0.01388   0.80500   0.53309   0.00000  Uiso   1.00
C48    C     0.90388   0.40099   0.43483   0.00000  Uiso   1.00
O15    O     0.84565   0.31876   0.41713   0.00000  Uiso   1.00
O16    O     0.01586   0.45774   0.40677   0.00000  Uiso   1.00
H24    H     0.03850   0.41603   0.37425   0.00000  Uiso   1.00
