# Generated by REPEAT Assigner based on pymatgen
data_DB0-m29_o90_o45_f0_pts.sym.46
_audit_creation_date              2022-05-24
_audit_creation_method            REPEAT_Assigner
_cell_length_a                    9.565726
_cell_length_b                    16.711547
_cell_length_c                    17.274890
_cell_angle_alpha                 105.503022
_cell_angle_beta                  89.031298
_cell_angle_gamma                 75.600671
_cell_volume                      2567.157581
_symmetry_space_group_name_H-M    P1
_symmetry_Int_Tables_number       1
loop_
    _symmetry_equiv_pos_site_id
    _symmetry_equiv_pos_as_xyz
    1  x,y,z
loop_
    _atom_site_type_symbol
    _atom_site_label
    _atom_site_fract_x
    _atom_site_fract_y
    _atom_site_fract_z
    _atom_type_partial_charge
    C   C1   0.126678  0.987405  0.771487  0.158097
    C   C2   0.146778  0.979497  0.848317  -0.290402
    H   H1   0.250845  0.978092  0.872096  0.176843
    C   C3   0.033312  0.976545  0.897204  0.376732
    C   C4   0.899182  0.975640  0.867168  -0.224225
    C   C5   0.878103  0.984928  0.790409  0.208231
    C   C6   0.990542  0.992617  0.743833  -0.303808
    N   N1   0.057176  0.977021  0.977917  -0.157783
    N   N2   0.955848  0.027605  0.026936  -0.188741
    C   C7   0.867389  0.027027  0.157551  -0.327072
    H   H2   0.764235  0.026550  0.133178  0.200850
    C   C8   0.885711  0.023877  0.236092  0.191738
    C   C9   0.020928  0.022155  0.264490  -0.206372
    C   C10  0.133648  0.025194  0.215234  0.129517
    C   C11  0.113981  0.030828  0.137403  -0.244801
    C   C12  0.980277  0.028990  0.107771  0.457815
    H   H3   0.972662  0.997828  0.683576  0.189617
    O   O1   0.639080  0.016855  0.255393  -0.485877
    C   C13  0.762275  0.020021  0.286211  0.469219
    O   O2   0.707321  0.850559  0.284377  -0.434730
    O   O3   0.773883  0.015556  0.360590  -0.395926
    O   O4   0.558792  0.919875  0.398350  -0.454703
    C   C14  0.655678  0.850744  0.355274  0.519920
    Fe  Fe1  0.503381  0.006296  0.337493  1.378174
    O   O5   0.340228  0.969365  0.279628  -0.517628
    O   O6   0.315707  0.099896  0.257434  -0.506939
    C   C15  0.269542  0.030775  0.250132  0.596428
    O   O7   0.465276  0.122811  0.417542  -0.539321
    O   O8   0.301615  0.068443  0.468623  -0.462737
    C   C16  0.360570  0.132175  0.471992  0.566513
    O   O9   0.549831  0.879739  0.581465  -0.527601
    O   O10  0.719970  0.932586  0.533682  -0.479825
    C   C17  0.658271  0.869721  0.528931  0.601200
    O   O11  0.675977  0.034149  0.717736  -0.571433
    O   O12  0.693078  0.910756  0.752672  -0.424826
    C   C18  0.742642  0.977583  0.754062  0.548127
    O   O13  0.226214  0.999215  0.647130  -0.484574
    O   O14  0.452192  0.082226  0.600685  -0.461758
    C   C19  0.359862  0.150798  0.647039  0.512219
    O   O15  0.378609  0.984969  0.744713  -0.517541
    C   C20  0.248093  0.990500  0.719563  0.566068
    O   O16  0.340258  0.155128  0.723433  -0.455123
    Fe  Fe2  0.511706  0.996235  0.661534  1.410374
    C   C21  0.300645  0.215342  0.532182  0.005149
    C   C22  0.242664  0.285256  0.503402  0.033407
    H   H4   0.251114  0.276902  0.439117  0.073151
    C   C23  0.164600  0.362457  0.555109  -0.324152
    C   C24  0.149118  0.370112  0.636344  -0.013019
    H   H5   0.086854  0.429474  0.677978  0.102210
    C   C25  0.206488  0.301820  0.666539  -0.025154
    C   C26  0.286077  0.223047  0.614896  0.030865
    N   N3   0.986018  0.499233  0.574631  -0.259672
    N   N4   0.914026  0.564139  0.549094  -0.165551
    C   C27  0.942211  0.566814  0.473480  0.716418
    N   N5   0.042119  0.500875  0.423171  -0.210643
    N   N6   0.113890  0.435361  0.448596  -0.254056
    C   C28  0.087638  0.434345  0.525122  0.772739
    C   C29  0.850798  0.628426  0.363680  -0.004023
    H   H6   0.896767  0.565650  0.322120  0.091113
    C   C30  0.774556  0.694401  0.334425  -0.009877
    C   C31  0.713898  0.775984  0.387102  0.018836
    C   C32  0.718323  0.786338  0.469750  -0.013471
    C   C33  0.792510  0.719248  0.498410  0.107254
    C   C34  0.862088  0.640004  0.445208  -0.333427
    C   C35  0.752586  0.673158  0.247933  0.627820
    O   O17  0.844766  0.617870  0.199553  -0.493705
    O   O18  0.621291  0.709368  0.221612  -0.563816
    H   H7   0.622905  0.685294  0.161168  0.422284
    C   C36  0.811008  0.737593  0.584932  0.505261
    O   O19  0.709226  0.747649  0.633148  -0.445193
    O   O20  0.947561  0.737404  0.611542  -0.534325
    H   H8   0.942694  0.748649  0.672197  0.409653
    C   C37  0.782014  0.961165  0.913870  0.521496
    O   O21  0.809770  0.907351  0.951056  -0.395948
    O   O22  0.639517  0.009339  0.916887  -0.527682
    H   H9   0.573891  0.991309  0.951668  0.390321
    C   C38  0.231183  0.044264  0.089805  0.565982
    O   O23  0.356375  0.003238  0.088576  -0.458240
    O   O24  0.199155  0.103647  0.045194  -0.480465
    H   H10  0.291008  0.104898  0.016147  0.399186
    C   C39  0.044244  0.026336  0.348955  0.731446
    O   O25  0.103654  0.961410  0.367442  -0.435838
    O   O26  0.990048  0.103555  0.408730  -0.639509
    H   H11  0.008576  0.094811  0.463767  0.460651
    C   C40  0.171941  0.316671  0.753188  0.618964
    O   O27  0.196359  0.378657  0.801385  -0.488765
    O   O28  0.093292  0.267744  0.779701  -0.528349
    H   H12  0.072116  0.289295  0.840379  0.406741
