# generated using pymatgen
data_ZnH18C25NO4
_symmetry_space_group_name_H-M   'P 1'
_cell_length_a   13.69996600
_cell_length_b   16.64481400
_cell_length_c   17.80871900
_cell_angle_alpha   90.00028800
_cell_angle_beta   89.98850600
_cell_angle_gamma   73.81369400
_symmetry_Int_Tables_number   1
_chemical_formula_structural   ZnH18C25NO4
_chemical_formula_sum   'Zn2 H36 C50 N2 O8'
_cell_volume   3900.00643454
_cell_formula_units_Z   2
loop_
 _symmetry_equiv_pos_site_id
 _symmetry_equiv_pos_as_xyz
  1  'x, y, z'
loop_
 _atom_site_type_symbol
 _atom_site_label
 _atom_site_symmetry_multiplicity
 _atom_site_fract_x
 _atom_site_fract_y
 _atom_site_fract_z
 _atom_site_occupancy
  Zn  Zn1  1  0.50440500  0.41418200  0.50552900  1
  Zn  Zn2  1  0.49577700  0.59879100  0.50624200  1
  H  H1  1  0.18221400  0.69179100  0.45313400  1
  H  H2  1  0.84724800  0.67912700  0.40582800  1
  H  H3  1  0.18085700  0.45235200  0.52813800  1
  H  H4  1  0.81476400  0.32473600  0.56194400  1
  H  H5  1  0.09603500  0.37520100  0.56077100  1
  H  H6  1  0.99495400  0.28483800  0.58704200  1
  H  H7  1  0.75624000  0.58206700  0.42566400  1
  H  H8  1  0.58374100  0.36840500  0.13444500  1
  H  H9  1  0.58568100  0.37652900  0.27113500  1
  H  H10  1  0.41710900  0.62432000  0.12184600  1
  H  H11  1  0.43982900  0.39106500  0.87736500  1
  H  H12  1  0.43847100  0.39921200  0.74069800  1
  H  H13  1  0.55937500  0.59967400  0.89078300  1
  H  H14  1  0.41085900  0.15607300  0.41325300  1
  H  H15  1  0.61267100  0.84701600  0.58500900  1
  H  H16  1  0.61351300  0.69936500  0.58241900  1
  H  H17  1  0.36781900  0.75505100  0.43136500  1
  H  H18  1  0.36407900  0.90370800  0.43203600  1
  H  H19  1  0.35679200  0.70206600  0.22434400  1
  H  H20  1  0.34138800  0.64843100  0.30897500  1
  H  H21  1  0.45225100  0.68724600  0.29568400  1
  H  H22  1  0.63662600  0.59861200  0.70522300  1
  H  H23  1  0.51361300  0.67607300  0.71686500  1
  H  H24  1  0.60738700  0.65947500  0.78947000  1
  H  H25  1  0.58062700  0.04147500  0.63215600  1
  H  H26  1  0.68466000  0.08550600  0.62425500  1
  H  H27  1  0.57664000  0.13257200  0.68428300  1
  H  H28  1  0.70112200  0.21764900  0.61947300  1
  H  H29  1  0.64086500  0.32285000  0.60510000  1
  H  H30  1  0.58925700  0.26913300  0.67421700  1
  H  H31  1  0.35491300  0.27867300  0.35874400  1
  H  H32  1  0.35570300  0.37312500  0.40350100  1
  H  H33  1  0.46254100  0.31648900  0.34493700  1
  H  H34  1  0.92463200  0.78347300  0.44863500  1
  H  H35  1  0.04436400  0.78773600  0.41068500  1
  H  H36  1  0.96398900  0.74258300  0.35522300  1
  C  C1  1  0.49675500  0.50692400  0.65325400  1
  C  C2  1  0.69964400  0.46661500  0.50740300  1
  C  C3  1  0.50300200  0.50684300  0.35863700  1
  C  C4  1  0.30116500  0.54669800  0.50233500  1
  C  C5  1  0.03915100  0.66547400  0.44641800  1
  C  C6  1  0.19048700  0.56915000  0.49231700  1
  C  C7  1  0.85823600  0.36672300  0.54510400  1
  C  C8  1  0.96016000  0.34411400  0.56012000  1
  C  C9  1  0.01785100  0.39734500  0.54413300  1
  C  C10  1  0.97526500  0.47404300  0.50901300  1
  C  C11  1  0.87182900  0.49541700  0.49122000  1
  C  C12  1  0.03302300  0.53002600  0.49188600  1
  C  C13  1  0.98561200  0.60669600  0.45876400  1
  C  C14  1  0.88561100  0.62317400  0.43614600  1
  C  C15  1  0.83097800  0.56741400  0.44997100  1
  C  C16  1  0.13726500  0.51147900  0.50635600  1
  C  C17  1  0.14062400  0.64672700  0.46450200  1
  C  C18  1  0.81191900  0.44306700  0.51266700  1
  C  C19  1  0.54709800  0.42679600  0.16218000  1
  C  C20  1  0.54764200  0.43171300  0.23942900  1
  C  C21  1  0.50212200  0.50627200  0.27587500  1
  C  C22  1  0.45408300  0.57659000  0.23322400  1
  C  C23  1  0.45389800  0.57059600  0.15579400  1
  C  C24  1  0.50016400  0.49628000  0.12042400  1
  C  C25  1  0.49995400  0.49249600  0.03992700  1
  C  C26  1  0.49951400  0.49220200  0.97226800  1
  C  C27  1  0.46605300  0.43905600  0.84978000  1
  C  C28  1  0.46572900  0.44389400  0.77246700  1
  C  C29  1  0.49788800  0.50565400  0.73614400  1
  C  C30  1  0.53279600  0.56229500  0.77918300  1
  C  C31  1  0.53283600  0.55640200  0.85658500  1
  C  C32  1  0.49945600  0.49549000  0.89175200  1
  C  C33  1  0.55057900  0.15717700  0.56607100  1
  C  C34  1  0.55902200  0.23877800  0.56075100  1
  C  C35  1  0.45633400  0.26183500  0.45277000  1
  C  C36  1  0.45088500  0.18043200  0.45596100  1
  C  C37  1  0.49657900  0.12810200  0.51229700  1
  C  C38  1  0.49121400  0.04307300  0.51068900  1
  C  C39  1  0.48857600  0.97130300  0.50942900  1
  C  C40  1  0.55803500  0.82750300  0.55098900  1
  C  C41  1  0.55837800  0.74468300  0.54941700  1
  C  C42  1  0.42159200  0.77570900  0.46532500  1
  C  C43  1  0.41932700  0.85914300  0.46564100  1
  C  C44  1  0.48816500  0.88519800  0.50878100  1
  C  C45  1  0.39804400  0.65816700  0.26800700  1
  C  C46  1  0.57486700  0.62780400  0.74524600  1
  C  C47  1  0.60084100  0.10121800  0.62975200  1
  C  C48  1  0.62525900  0.26386900  0.61797800  1
  C  C49  1  0.40493500  0.31146100  0.38687000  1
  C  C50  1  0.98981100  0.74961200  0.41326900  1
  N  N1  1  0.50968200  0.29218300  0.50535300  1
  N  N2  1  0.49074800  0.71999000  0.50688300  1
  O  O1  1  0.50001300  0.43727800  0.61746800  1
  O  O2  1  0.49320400  0.57664500  0.61792400  1
  O  O3  1  0.65476100  0.40643200  0.50655600  1
  O  O4  1  0.64796100  0.54580100  0.50916100  1
  O  O5  1  0.50589900  0.43682200  0.39377800  1
  O  O6  1  0.50021300  0.57641100  0.39431200  1
  O  O7  1  0.35208700  0.46714900  0.50330800  1
  O  O8  1  0.34544400  0.60717200  0.50368400  1
