# generated using pymatgen
data_ZnH13C26NO4
_symmetry_space_group_name_H-M   'P 1'
_cell_length_a   8.53855600
_cell_length_b   11.02089300
_cell_length_c   17.47596500
_cell_angle_alpha   90.84527500
_cell_angle_beta   90.08728300
_cell_angle_gamma   102.64512200
_symmetry_Int_Tables_number   1
_chemical_formula_structural   ZnH13C26NO4
_chemical_formula_sum   'Zn2 H26 C52 N2 O8'
_cell_volume   1604.44987091
_cell_formula_units_Z   2
loop_
 _symmetry_equiv_pos_site_id
 _symmetry_equiv_pos_as_xyz
  1  'x, y, z'
loop_
 _atom_site_type_symbol
 _atom_site_label
 _atom_site_symmetry_multiplicity
 _atom_site_fract_x
 _atom_site_fract_y
 _atom_site_fract_z
 _atom_site_occupancy
  Zn  Zn1  1  0.48998000  0.48145100  0.91506000  1
  Zn  Zn2  1  0.50341700  0.51823100  0.08502000  1
  H  H1  1  0.97388000  0.41655500  0.03546100  1
  H  H2  1  0.01937200  0.58312500  0.96462800  1
  H  H3  1  0.62928900  0.08072100  0.99624200  1
  H  H4  1  0.36405800  0.91892800  0.00382400  1
  H  H5  1  0.27932600  0.11112800  0.01022400  1
  H  H6  1  0.71403800  0.88858400  0.98984700  1
  H  H7  1  0.40565400  0.16559400  0.66716900  1
  H  H8  1  0.59320400  0.83411600  0.33293800  1
  H  H9  1  0.56990400  0.78299800  0.70563600  1
  H  H10  1  0.42135700  0.21666500  0.29442900  1
  H  H11  1  0.38139400  0.07188200  0.54524000  1
  H  H12  1  0.61671500  0.92781900  0.45485600  1
  H  H13  1  0.38681800  0.09006200  0.40598500  1
  H  H14  1  0.60775600  0.90961900  0.59409300  1
  H  H15  1  0.53440400  0.65884700  0.81467100  1
  H  H16  1  0.45442400  0.34081900  0.18539100  1
  H  H17  1  0.31724500  0.17152900  0.78568400  1
  H  H18  1  0.41730900  0.23664400  0.86985300  1
  H  H19  1  0.66928700  0.22280000  0.75807700  1
  H  H20  1  0.46936300  0.01084600  0.85044700  1
  H  H21  1  0.67044300  0.01842200  0.80527800  1
  H  H22  1  0.50400300  0.82701900  0.21360500  1
  H  H23  1  0.57182500  0.76299600  0.13017800  1
  H  H24  1  0.82843700  0.78019900  0.24425900  1
  H  H25  1  0.74634400  0.99027800  0.15059300  1
  H  H26  1  0.94257200  0.98531600  0.19755300  1
  C  C1  1  0.06852000  0.25571800  0.01879500  1
  C  C2  1  0.92480500  0.74399800  0.98128400  1
  C  C3  1  0.94585200  0.31736100  0.02648700  1
  C  C4  1  0.04743800  0.68232000  0.97359700  1
  C  C5  1  0.78890600  0.25622100  0.01626900  1
  C  C6  1  0.20439500  0.74342900  0.98381000  1
  C  C7  1  0.75274900  0.12918200  0.00439200  1
  C  C8  1  0.24059100  0.87048100  0.99567600  1
  C  C9  1  0.87492300  0.06450300  0.00343800  1
  C  C10  1  0.11843800  0.93519200  0.99663400  1
  C  C11  1  0.03360600  0.12787800  0.00884500  1
  C  C12  1  0.95975100  0.87183000  0.99123300  1
  C  C13  1  0.83831500  0.93671000  0.99484000  1
  C  C14  1  0.15505000  0.06299500  0.00523400  1
  C  C15  1  0.76248800  0.66808200  0.98741100  1
  C  C16  1  0.23081800  0.33167300  0.01265300  1
  C  C17  1  0.66797100  0.33128300  0.01077900  1
  C  C18  1  0.32529500  0.66832700  0.98931700  1
  C  C19  1  0.45764000  0.35660000  0.77140100  1
  C  C20  1  0.54352500  0.64312700  0.22870300  1
  C  C21  1  0.51208600  0.57431700  0.78071500  1
  C  C22  1  0.47893000  0.42535200  0.21935500  1
  C  C23  1  0.43182200  0.25816200  0.64457800  1
  C  C24  1  0.56849400  0.74155400  0.35552700  1
  C  C25  1  0.45977200  0.36389000  0.69145600  1
  C  C26  1  0.54011400  0.63582300  0.30864500  1
  C  C27  1  0.49012800  0.47890900  0.65743700  1
  C  C28  1  0.50677800  0.52078500  0.34265200  1
  C  C29  1  0.51678400  0.58418900  0.70252600  1
  C  C30  1  0.47703500  0.41548800  0.29755000  1
  C  C31  1  0.54868000  0.70016600  0.66980800  1
  C  C32  1  0.44456500  0.29950700  0.33026500  1
  C  C33  1  0.40651900  0.16305700  0.52004800  1
  C  C34  1  0.59122200  0.83664100  0.48004600  1
  C  C35  1  0.43517500  0.26872700  0.56591800  1
  C  C36  1  0.56368000  0.73097800  0.43418100  1
  C  C37  1  0.46690100  0.38421800  0.53297700  1
  C  C38  1  0.53124800  0.61548400  0.46711800  1
  C  C39  1  0.40957700  0.17321100  0.44154900  1
  C  C40  1  0.58619300  0.82647600  0.55853500  1
  C  C41  1  0.44164900  0.28901700  0.40871700  1
  C  C42  1  0.55386100  0.71066800  0.59136600  1
  C  C43  1  0.49450000  0.48933400  0.57874900  1
  C  C44  1  0.50297800  0.51036300  0.42134200  1
  C  C45  1  0.52652100  0.60513400  0.54573400  1
  C  C46  1  0.47053600  0.39456100  0.45435600  1
  C  C47  1  0.43032200  0.23147300  0.80769700  1
  C  C48  1  0.56890500  0.17324300  0.79125300  1
  C  C49  1  0.56957900  0.06062800  0.81726200  1
  C  C50  1  0.58545400  0.76835200  0.19246600  1
  C  C51  1  0.75577600  0.82861100  0.21029900  1
  C  C52  1  0.81870600  0.94163300  0.18456100  1
  N  N1  1  0.48260700  0.46264600  0.81496300  1
  N  N2  1  0.51083900  0.53704200  0.18511800  1
  O  O1  1  0.70649600  0.63998400  0.05634200  1
  O  O2  1  0.28666800  0.35994800  0.94372500  1
  O  O3  1  0.69176500  0.61565400  0.92490600  1
  O  O4  1  0.30163500  0.38401700  0.07515500  1
  O  O5  1  0.62534600  0.35949100  0.94218800  1
  O  O6  1  0.36768000  0.63994200  0.05790400  1
  O  O7  1  0.62900900  0.38403400  0.07361600  1
  O  O8  1  0.36440800  0.61566500  0.92648400  1
