# generated using pymatgen
data_ZnH19C22N3O4
_symmetry_space_group_name_H-M   'P 1'
_cell_length_a   15.91635600
_cell_length_b   15.94761000
_cell_length_c   17.10292700
_cell_angle_alpha   89.99383900
_cell_angle_beta   89.11947700
_cell_angle_gamma   92.71795100
_symmetry_Int_Tables_number   1
_chemical_formula_structural   ZnH19C22N3O4
_chemical_formula_sum   'Zn2 H38 C44 N6 O8'
_cell_volume   4335.80185205
_cell_formula_units_Z   2
loop_
 _symmetry_equiv_pos_site_id
 _symmetry_equiv_pos_as_xyz
  1  'x, y, z'
loop_
 _atom_site_type_symbol
 _atom_site_label
 _atom_site_symmetry_multiplicity
 _atom_site_fract_x
 _atom_site_fract_y
 _atom_site_fract_z
 _atom_site_occupancy
  Zn  Zn1  1  0.58799900  0.50871800  0.50150500  1
  Zn  Zn2  1  0.39687900  0.49831500  0.49364900  1
  H  H1  1  0.57167600  0.94073000  0.39325100  1
  H  H2  1  0.59364100  0.07957000  0.40521200  1
  H  H3  1  0.37232100  0.07891300  0.46836400  1
  H  H4  1  0.44440500  0.06744500  0.38730500  1
  H  H5  1  0.41564500  0.92768800  0.39736700  1
  H  H6  1  0.36205200  0.93917300  0.49055800  1
  H  H7  1  0.53541200  0.07811000  0.62310000  1
  H  H8  1  0.42508500  0.06562300  0.60275000  1
  H  H9  1  0.55308300  0.93783700  0.61090800  1
  H  H10  1  0.62722700  0.92395800  0.48219600  1
  H  H11  1  0.43981700  0.92612200  0.61391500  1
  H  H12  1  0.61080700  0.51050200  0.75217200  1
  H  H13  1  0.60300600  0.50990700  0.89206900  1
  H  H14  1  0.65121200  0.51157200  0.11191600  1
  H  H15  1  0.64288300  0.51094200  0.25411900  1
  H  H16  1  0.34200200  0.49606800  0.74105200  1
  H  H17  1  0.38188800  0.49717200  0.10308900  1
  H  H18  1  0.33368300  0.49544000  0.88325500  1
  H  H19  1  0.37407900  0.49657800  0.24298400  1
  H  H20  1  0.72649900  0.42872200  0.41471200  1
  H  H21  1  0.87814400  0.43151200  0.41948600  1
  H  H22  1  0.11565900  0.39679300  0.38847000  1
  H  H23  1  0.26966500  0.40405400  0.39665000  1
  H  H24  1  0.71537600  0.60187700  0.59934600  1
  H  H25  1  0.10664500  0.57563200  0.57519800  1
  H  H26  1  0.86936800  0.60864800  0.60765500  1
  H  H27  1  0.25835100  0.57930500  0.57951900  1
  H  H28  1  0.66809100  0.03284500  0.56323300  1
  H  H29  1  0.74177700  0.98639700  0.43640200  1
  H  H30  1  0.80211900  0.04877300  0.50320000  1
  H  H31  1  0.72218800  0.11082300  0.35253400  1
  H  H32  1  0.83095200  0.09343000  0.36917700  1
  H  H33  1  0.79865800  0.24411000  0.38146700  1
  H  H34  1  0.83795800  0.20172200  0.47102800  1
  H  H35  1  0.65317200  0.22325500  0.43017900  1
  H  H36  1  0.71517800  0.28758200  0.49656500  1
  H  H37  1  0.63401700  0.18404600  0.57666300  1
  H  H38  1  0.74141600  0.16342000  0.57712000  1
  C  C1  1  0.50222500  0.50361100  0.34462600  1
  C  C2  1  0.49330000  0.33969900  0.49800300  1
  C  C3  1  0.48265400  0.50343600  0.65053100  1
  C  C4  1  0.49168300  0.66734200  0.49718300  1
  C  C5  1  0.58691100  0.05257000  0.46463800  1
  C  C6  1  0.43133000  0.05021400  0.44927100  1
  C  C7  1  0.42022500  0.95602600  0.45643900  1
  C  C8  1  0.49131400  0.75727100  0.49714800  1
  C  C9  1  0.50357500  0.08309500  0.49976300  1
  C  C10  1  0.57502400  0.95716800  0.45616000  1
  C  C11  1  0.49538100  0.92461800  0.49793000  1
  C  C12  1  0.49470300  0.95535600  0.58176100  1
  C  C13  1  0.48883700  0.04978400  0.58226500  1
  C  C14  1  0.49233400  0.83284800  0.49733500  1
  C  C15  1  0.49891000  0.17456400  0.49901900  1
  C  C16  1  0.49490100  0.24985800  0.49848500  1
  C  C17  1  0.50776800  0.50377500  0.25896000  1
  C  C18  1  0.43549100  0.49990100  0.21503600  1
  C  C19  1  0.44040400  0.50027400  0.13443300  1
  C  C20  1  0.51840300  0.50453900  0.09683800  1
  C  C21  1  0.59029800  0.50827300  0.14086300  1
  C  C22  1  0.58531100  0.50791100  0.22136100  1
  C  C23  1  0.54448800  0.50678900  0.86072700  1
  C  C24  1  0.54939600  0.50716300  0.78012200  1
  C  C25  1  0.46649300  0.50250500  0.89832600  1
  C  C26  1  0.47711700  0.50327100  0.73620000  1
  C  C27  1  0.39957700  0.49911600  0.77380500  1
  C  C28  1  0.39459500  0.49875400  0.85430400  1
  C  C29  1  0.22638200  0.53896300  0.53755500  1
  C  C30  1  0.13973800  0.53651400  0.53461300  1
  C  C31  1  0.09887900  0.48501400  0.48048800  1
  C  C32  1  0.14631200  0.43732300  0.43109200  1
  C  C33  1  0.23276700  0.44142300  0.43574200  1
  C  C34  1  0.84511400  0.47040300  0.46032200  1
  C  C35  1  0.75850100  0.46847000  0.45712700  1
  C  C36  1  0.88601900  0.52123200  0.51494000  1
  C  C37  1  0.75222100  0.56484300  0.55991600  1
  C  C38  1  0.83866100  0.56863100  0.56466300  1
  C  C39  1  0.66988400  0.07268200  0.51012700  1
  C  C40  1  0.74841800  0.04960500  0.46271100  1
  C  C41  1  0.77147600  0.11178200  0.39754400  1
  C  C42  1  0.78450800  0.19944200  0.43012800  1
  C  C43  1  0.70524700  0.22353200  0.47229400  1
  C  C44  1  0.68565400  0.16265300  0.53902700  1
  N  N1  1  0.52686300  0.50521700  0.01436400  1
  N  N2  1  0.45803500  0.50182700  0.98080100  1
  N  N3  1  0.27135300  0.49190100  0.48851400  1
  N  N4  1  0.01027800  0.47995900  0.47404600  1
  N  N5  1  0.97461200  0.52612100  0.52142500  1
  N  N6  1  0.71358900  0.51508700  0.50661400  1
  O  O1  1  0.57230400  0.50763400  0.38417900  1
  O  O2  1  0.42744100  0.49955500  0.37821100  1
  O  O3  1  0.56541000  0.38267500  0.50081500  1
  O  O4  1  0.42039500  0.37454900  0.49495000  1
  O  O5  1  0.55744400  0.50748800  0.61694600  1
  O  O6  1  0.41256700  0.49939900  0.61097800  1
  O  O7  1  0.56449200  0.63242900  0.50021700  1
  O  O8  1  0.41943100  0.62442800  0.49435900  1
