# generated using pymatgen
data_Cu2H49C80N6O8F7
_symmetry_space_group_name_H-M   'P 1'
_cell_length_a   15.54116200
_cell_length_b   15.87452500
_cell_length_c   16.95983200
_cell_angle_alpha   89.99408300
_cell_angle_beta   96.37189800
_cell_angle_gamma   92.79374300
_symmetry_Int_Tables_number   1
_chemical_formula_structural   Cu2H49C80N6O8F7
_chemical_formula_sum   'Cu2 H49 C80 N6 O8 F7'
_cell_volume   4153.28659027
_cell_formula_units_Z   1
loop_
 _symmetry_equiv_pos_site_id
 _symmetry_equiv_pos_as_xyz
  1  'x, y, z'
loop_
 _atom_site_type_symbol
 _atom_site_label
 _atom_site_symmetry_multiplicity
 _atom_site_fract_x
 _atom_site_fract_y
 _atom_site_fract_z
 _atom_site_occupancy
  Cu  Cu1  1  0.58585300  0.50043500  0.50534100  1
  Cu  Cu2  1  0.41265600  0.49281000  0.49469400  1
  H  H1  1  0.59442700  0.05740400  0.59832800  1
  H  H2  1  0.59969900  0.92758300  0.58541800  1
  H  H3  1  0.36591800  0.93360500  0.51339700  1
  H  H4  1  0.45878300  0.05952100  0.61762400  1
  H  H5  1  0.37436800  0.06645900  0.54149700  1
  H  H6  1  0.52813400  0.93676100  0.37435100  1
  H  H7  1  0.53119500  0.06700500  0.38097700  1
  H  H8  1  0.62630800  0.48943300  0.26129800  1
  H  H9  1  0.65360000  0.53293700  0.90211600  1
  H  H10  1  0.64895600  0.52346200  0.75845900  1
  H  H11  1  0.34976800  0.46709400  0.24214500  1
  H  H12  1  0.34498700  0.45879700  0.09842800  1
  H  H13  1  0.37223800  0.50641900  0.73892500  1
  H  H14  1  0.71662400  0.40462200  0.43280500  1
  H  H15  1  0.87199700  0.40950900  0.43531700  1
  H  H16  1  0.11012700  0.37764400  0.39881900  1
  H  H17  1  0.26883300  0.38651400  0.40495000  1
  H  H18  1  0.72960600  0.60940800  0.59164800  1
  H  H19  1  0.12662300  0.58130500  0.56668500  1
  H  H20  1  0.88816300  0.61880400  0.59692900  1
  H  H21  1  0.28197100  0.58624200  0.56943400  1
  H  H22  1  0.66062500  0.99347900  0.38227100  1
  H  H23  1  0.77993500  0.92969800  0.32890400  1
  H  H24  1  0.80884500  0.76384000  0.52578000  1
  H  H25  1  0.68867200  0.82548400  0.58084000  1
  H  H26  1  0.74595500  0.03611000  0.61351900  1
  H  H27  1  0.88359100  0.10929600  0.59410500  1
  H  H28  1  0.76085400  0.23961900  0.39701000  1
  H  H29  1  0.62446000  0.16851400  0.41385100  1
  H  H30  1  0.29823300  0.02420000  0.42681200  1
  H  H31  1  0.18232600  0.10403600  0.36163200  1
  H  H32  1  0.36365200  0.25100600  0.24266100  1
  H  H33  1  0.48175400  0.17301800  0.30807700  1
  H  H34  1  0.61057900  0.35893400  0.04815500  1
  H  H35  1  0.74962300  0.35330500  0.99320800  1
  H  H36  1  0.83832000  0.58179400  0.11385200  1
  H  H37  1  0.69929400  0.58847400  0.16849100  1
  H  H38  1  0.29753600  0.40970600  0.83111300  1
  H  H39  1  0.15881900  0.41813300  0.88585300  1
  H  H40  1  0.25171200  0.64389800  0.00920000  1
  H  H41  1  0.39030400  0.63685800  0.95374700  1
  H  H42  1  0.53484900  0.96472500  0.69090900  1
  H  H43  1  0.52754000  0.87992900  0.80861600  1
  H  H44  1  0.31511500  0.73186000  0.69300300  1
  H  H45  1  0.32104400  0.81535600  0.57329100  1
  H  H46  1  0.33572400  0.82997300  0.43269800  1
  H  H47  1  0.22369300  0.77567100  0.33499800  1
  H  H48  1  0.33144700  0.91967300  0.15558000  1
  H  H49  1  0.44584200  0.97719600  0.25333200  1
  C  C1  1  0.50620700  0.50583600  0.65203500  1
  C  C2  1  0.49978800  0.65788900  0.49191900  1
  C  C3  1  0.49232100  0.48717900  0.34814900  1
  C  C4  1  0.49874000  0.33516800  0.50825600  1
  C  C5  1  0.58944800  0.95069300  0.52421900  1
  C  C6  1  0.43086800  0.94485100  0.54501500  1
  C  C7  1  0.43868600  0.04013600  0.55547400  1
  C  C8  1  0.49855200  0.24498200  0.50870500  1
  C  C9  1  0.49763200  0.91600600  0.49116200  1
  C  C10  1  0.59126000  0.04692200  0.53362200  1
  C  C11  1  0.50208800  0.07748000  0.50087400  1
  C  C12  1  0.47678300  0.04791100  0.41421200  1
  C  C13  1  0.47408900  0.95134300  0.40750200  1
  C  C14  1  0.49991000  0.16927600  0.50646600  1
  C  C15  1  0.49902100  0.82390100  0.48958400  1
  C  C16  1  0.49997100  0.74808600  0.48986400  1
  C  C17  1  0.50998100  0.51205700  0.73870000  1
  C  C18  1  0.43432800  0.51056000  0.77463800  1
  C  C19  1  0.43653300  0.51701800  0.85615400  1
  C  C20  1  0.51645500  0.52343800  0.90261500  1
  C  C21  1  0.59159500  0.52734900  0.86620600  1
  C  C22  1  0.58877700  0.52122900  0.78494600  1
  C  C23  1  0.56202200  0.47874900  0.14413700  1
  C  C24  1  0.56419500  0.48458700  0.22564000  1
  C  C25  1  0.48208800  0.47110100  0.09771200  1
  C  C26  1  0.48856700  0.48136800  0.26159200  1
  C  C27  1  0.40984300  0.47095800  0.21548900  1
  C  C28  1  0.40700800  0.46544100  0.13421400  1
  C  C29  1  0.24376600  0.54042000  0.53160100  1
  C  C30  1  0.15478600  0.53709800  0.52970900  1
  C  C31  1  0.10557200  0.47812700  0.48155900  1
  C  C32  1  0.14735500  0.42419600  0.43665100  1
  C  C33  1  0.23653800  0.42929000  0.44017300  1
  C  C34  1  0.84375100  0.45490900  0.47103800  1
  C  C35  1  0.75478800  0.45143400  0.46958400  1
  C  C36  1  0.89288200  0.51547300  0.51733900  1
  C  C37  1  0.76195900  0.56543400  0.55780700  1
  C  C38  1  0.85106300  0.57082600  0.56075100  1
  C  C39  1  0.66327600  0.91400800  0.48578700  1
  C  C40  1  0.69080500  0.94236400  0.41466300  1
  C  C41  1  0.75922800  0.90676600  0.38411200  1
  C  C42  1  0.80148100  0.84250400  0.42371500  1
  C  C43  1  0.77559700  0.81416500  0.49437600  1
  C  C44  1  0.70745100  0.84976500  0.52537600  1
  C  C45  1  0.67378800  0.09409600  0.51484300  1
  C  C46  1  0.74825600  0.08026300  0.56517200  1
  C  C47  1  0.82616500  0.12151700  0.55453900  1
  C  C48  1  0.83086200  0.17852300  0.49398300  1
  C  C49  1  0.75745000  0.19425600  0.44423300  1
  C  C50  1  0.67940000  0.15283600  0.45435900  1
  C  C51  1  0.40014200  0.09276800  0.37382600  1
  C  C52  1  0.31485900  0.07444800  0.38787500  1
  C  C53  1  0.24839500  0.11910800  0.35031000  1
  C  C54  1  0.26576900  0.18268700  0.29842200  1
  C  C55  1  0.34977200  0.20110100  0.28343900  1
  C  C56  1  0.41639700  0.15635700  0.32054000  1
  C  C57  1  0.64513200  0.47485900  0.11091700  1
  C  C58  1  0.66002800  0.40855100  0.06217900  1
  C  C59  1  0.73832500  0.40506000  0.03154200  1
  C  C60  1  0.80224100  0.46742700  0.04983500  1
  C  C61  1  0.78811100  0.53298500  0.09930500  1
  C  C62  1  0.70995300  0.53647000  0.13017800  1
  C  C63  1  0.35359900  0.52215500  0.88949100  1
  C  C64  1  0.28777900  0.46165900  0.86980900  1
  C  C65  1  0.20979900  0.46608900  0.90080200  1
  C  C66  1  0.19689200  0.53139000  0.95101000  1
  C  C67  1  0.26193100  0.59250300  0.97002800  1
  C  C68  1  0.33999800  0.58817700  0.93910800  1
  C  C69  1  0.42947300  0.89578800  0.62137600  1
  C  C70  1  0.48640000  0.91362500  0.68907200  1
  C  C71  1  0.48240600  0.86585200  0.75657900  1
  C  C72  1  0.42133400  0.80032400  0.75798400  1
  C  C73  1  0.36342200  0.78308500  0.69196000  1
  C  C74  1  0.36703700  0.83076000  0.62436500  1
  C  C75  1  0.39873400  0.91267200  0.35219200  1
  C  C76  1  0.33637000  0.85341200  0.37339800  1
  C  C77  1  0.27209500  0.82096900  0.31745900  1
  C  C78  1  0.26956700  0.84523800  0.23946600  1
  C  C79  1  0.33236000  0.90128000  0.21701700  1
  C  C80  1  0.39673100  0.93379300  0.27264200  1
  N  N1  1  0.52426000  0.52396000  0.98651400  1
  N  N2  1  0.47417800  0.47070300  0.01379600  1
  N  N3  1  0.28318000  0.48771100  0.48656000  1
  N  N4  1  0.01409700  0.47100600  0.47755800  1
  N  N5  1  0.98432500  0.52274700  0.52109800  1
  N  N6  1  0.71542000  0.50496800  0.51377000  1
  O  O1  1  0.57884900  0.50343900  0.61976700  1
  O  O2  1  0.43018500  0.50335200  0.61005300  1
  O  O3  1  0.57400900  0.62159300  0.49580400  1
  O  O4  1  0.42525300  0.61590000  0.49192600  1
  O  O5  1  0.56842600  0.48966000  0.39009000  1
  O  O6  1  0.41958900  0.48956900  0.38036800  1
  O  O7  1  0.57319900  0.37711300  0.50818600  1
  O  O8  1  0.42456800  0.37141300  0.50430500  1
  F  F1  1  0.86861200  0.80753700  0.39343300  1
  F  F2  1  0.90731300  0.21952700  0.48372700  1
  F  F3  1  0.20034600  0.22682000  0.26201000  1
  F  F4  1  0.87910700  0.46404500  0.01956200  1
  F  F5  1  0.12018800  0.53565700  0.98141500  1
  F  F6  1  0.41795400  0.75322900  0.82429800  1
  F  F7  1  0.20637600  0.81294200  0.18479200  1
