# Generated by REPEAT Assigner based on pymatgen
data_DB0-m2_o11_o21_f0_pcu.sym.82
_audit_creation_date              2022-05-24
_audit_creation_method            REPEAT_Assigner
_cell_length_a                    9.577550
_cell_length_b                    11.068608
_cell_length_c                    14.023176
_cell_angle_alpha                 89.991882
_cell_angle_beta                  85.308005
_cell_angle_gamma                 90.019881
_cell_volume                      1481.617000
_symmetry_space_group_name_H-M    P1
_symmetry_Int_Tables_number       1
loop_
    _symmetry_equiv_pos_site_id
    _symmetry_equiv_pos_as_xyz
    1  x,y,z
loop_
    _atom_site_type_symbol
    _atom_site_label
    _atom_site_fract_x
    _atom_site_fract_y
    _atom_site_fract_z
    _atom_type_partial_charge
    O   O1   0.373994  0.675298  0.502017  -0.479675
    O   O2   0.613385  0.679777  0.507256  -0.394575
    C   C1   0.492232  0.734149  0.505391  0.530575
    O   O3   0.362743  0.492868  0.642031  -0.586258
    O   O4   0.603494  0.497522  0.640751  -0.504857
    C   C2   0.478188  0.497504  0.685983  0.766061
    Cu  Cu1  0.358416  0.499311  0.503135  0.983130
    Cu  Cu2  0.638137  0.504748  0.501654  0.619136
    O   O5   0.383398  0.324271  0.497643  -0.601144
    O   O6   0.622428  0.328804  0.503084  -0.453320
    O   O7   0.393498  0.498422  0.363957  -0.644317
    O   O8   0.633476  0.503216  0.362700  -0.612640
    C   C3   0.504377  0.269585  0.500441  0.721210
    C   C4   0.518259  0.504849  0.318720  0.864224
    C   C5   0.529808  0.504784  0.215943  -0.253157
    C   C6   0.554545  0.505180  0.026676  0.052374
    C   C7   0.442172  0.491560  0.977984  -0.063700
    C   C8   0.456008  0.493100  0.875002  0.050492
    C   C9   0.540598  0.504847  0.129664  -0.002125
    C   C10  0.466728  0.494810  0.788735  -0.279896
    H   H1   0.339806  0.480020  0.015917  0.146654
    C   C11  0.612034  0.065010  0.515867  0.030564
    C   C12  0.503672  0.136502  0.497346  -0.296044
    H   H2   0.406802  0.097033  0.478136  0.160011
    C   C13  0.605237  0.931581  0.510783  0.143484
    C   C14  0.487454  0.866716  0.507862  -0.295040
    H   H3   0.704171  0.884700  0.512835  -0.010591
    H   H4   0.385409  0.908589  0.509588  0.161808
    C   C15  0.074243  0.584544  0.538744  0.224197
    N   N1   0.149269  0.495911  0.504249  -0.377245
    H   H5   0.124735  0.664543  0.563933  -0.019664
    H   H6   0.098411  0.414889  0.497950  0.304402
    C   C16  0.919218  0.578607  0.552839  -0.002844
    N   N2   0.847241  0.509226  0.501335  -0.096224
    H   H7   0.902338  0.469965  0.443491  0.180980
    I   I1   0.753420  0.528022  0.952920  0.002806
    I   I2   0.806975  0.131776  0.554660  -0.045989
    I   I3   0.823743  0.693753  0.659281  0.077197
