# generated using pymatgen
data_Cu6H46C73S5O24
_symmetry_space_group_name_H-M   'P 1'
_cell_length_a   30.68089200
_cell_length_b   31.73767100
_cell_length_c   21.67175200
_cell_angle_alpha   90.00000000
_cell_angle_beta   135.04622100
_cell_angle_gamma   90.00000000
_symmetry_Int_Tables_number   1
_chemical_formula_structural   Cu6H46C73S5O24
_chemical_formula_sum   'Cu12 H92 C146 S10 O48'
_cell_volume   14909.78662355
_cell_formula_units_Z   2
loop_
 _symmetry_equiv_pos_site_id
 _symmetry_equiv_pos_as_xyz
  1  'x, y, z'
loop_
 _atom_site_type_symbol
 _atom_site_label
 _atom_site_symmetry_multiplicity
 _atom_site_fract_x
 _atom_site_fract_y
 _atom_site_fract_z
 _atom_site_occupancy
  Cu  Cu1  1  0.43931800  0.99994700  0.43991300  1
  Cu  Cu2  1  0.93931800  0.49994700  0.43991300  1
  Cu  Cu3  1  0.56202500  0.00557100  0.56311400  1
  Cu  Cu4  1  0.06202500  0.50557100  0.56311400  1
  Cu  Cu5  1  0.49737900  0.50308300  0.43979500  1
  Cu  Cu6  1  0.99737900  0.00308300  0.43979500  1
  Cu  Cu7  1  0.49641100  0.50265900  0.55910400  1
  Cu  Cu8  1  0.99641100  0.00265900  0.55910400  1
  Cu  Cu9  1  0.49421000  0.96235800  0.99504000  1
  Cu  Cu10  1  0.50001300  0.04622700  0.00068500  1
  Cu  Cu11  1  0.99421000  0.46235800  0.99504000  1
  Cu  Cu12  1  0.00001300  0.54622700  0.00068400  1
  H  H1  1  0.44258400  0.72686100  0.35900500  1
  H  H2  1  0.47300000  0.28026600  0.37038500  1
  H  H3  1  0.94258400  0.22686100  0.35900500  1
  H  H4  1  0.97300000  0.78026600  0.37038600  1
  H  H5  1  0.60835100  0.72206000  0.60060400  1
  H  H6  1  0.59223600  0.27729300  0.62840700  1
  H  H7  1  0.10835000  0.22206000  0.60060400  1
  H  H8  1  0.09223600  0.77729300  0.62840700  1
  H  H9  1  0.56946300  0.77627900  0.65766400  1
  H  H10  1  0.50979900  0.22673200  0.61486700  1
  H  H11  1  0.06946300  0.27627900  0.65766300  1
  H  H12  1  0.00979900  0.72673200  0.61486700  1
  H  H13  1  0.45943200  0.72861400  0.55759900  1
  H  H14  1  0.41269600  0.28145900  0.48260600  1
  H  H15  1  0.95943200  0.22861400  0.55759900  1
  H  H16  1  0.91269600  0.78145900  0.48260600  1
  H  H17  1  0.56016400  0.05758700  0.36809800  1
  H  H18  1  0.06016400  0.55758700  0.36809800  1
  H  H19  1  0.55740400  0.05921900  0.25203400  1
  H  H20  1  0.05740400  0.55921900  0.25203400  1
  H  H21  1  0.45447800  0.90936400  0.14980400  1
  H  H22  1  0.38390600  0.94408500  0.07818600  1
  H  H23  1  0.95447800  0.40936400  0.14980400  1
  H  H24  1  0.88390600  0.44408500  0.07818600  1
  H  H25  1  0.45380500  0.91003100  0.26130100  1
  H  H26  1  0.38299500  0.94461700  0.18946800  1
  H  H27  1  0.95380500  0.41003100  0.26130100  1
  H  H28  1  0.88299500  0.44461700  0.18946800  1
  H  H29  1  0.55559200  0.05926500  0.74980300  1
  H  H30  1  0.05559200  0.55926500  0.74980300  1
  H  H31  1  0.55225100  0.06069800  0.85976600  1
  H  H32  1  0.05225100  0.56069800  0.85976600  1
  H  H33  1  0.38693200  0.94010900  0.69309000  1
  H  H34  1  0.45982600  0.90769800  0.76562300  1
  H  H35  1  0.88693200  0.44010900  0.69309000  1
  H  H36  1  0.95982600  0.40769800  0.76562300  1
  H  H37  1  0.38654600  0.94066000  0.58055900  1
  H  H38  1  0.45972700  0.90846300  0.65330200  1
  H  H39  1  0.88654600  0.44066000  0.58055900  1
  H  H40  1  0.95972700  0.40846300  0.65330200  1
  H  H41  1  0.30461500  0.44581400  0.36465200  1
  H  H42  1  0.80461500  0.94581400  0.36465200  1
  H  H43  1  0.69121400  0.94469500  0.24921800  1
  H  H44  1  0.19121400  0.44469500  0.24921800  1
  H  H45  1  0.69224900  0.09366600  0.14602300  1
  H  H46  1  0.69080800  0.05884900  0.07403100  1
  H  H47  1  0.19224900  0.59366600  0.14602300  1
  H  H48  1  0.19080800  0.55884900  0.07403100  1
  H  H49  1  0.30433900  0.59295600  0.25707400  1
  H  H50  1  0.30307600  0.55845300  0.18491600  1
  H  H51  1  0.80433900  0.09295600  0.25707400  1
  H  H52  1  0.80307600  0.05845300  0.18491600  1
  H  H53  1  0.68841900  0.55165200  0.76610200  1
  H  H54  1  0.18841900  0.05165200  0.76610200  1
  H  H55  1  0.30463500  0.92300000  0.73453500  1
  H  H56  1  0.30337800  0.96711100  0.67486400  1
  H  H57  1  0.80463500  0.42300000  0.73453500  1
  H  H58  1  0.80337800  0.46711100  0.67486400  1
  H  H59  1  0.69243700  0.42162700  0.62217200  1
  H  H60  1  0.69140300  0.46531500  0.56209100  1
  H  H61  1  0.19243700  0.92162700  0.62217200  1
  H  H62  1  0.19140300  0.96531500  0.56209100  1
  H  H63  1  0.51679200  0.81439900  0.31377100  1
  H  H64  1  0.49426400  0.83573700  0.36467300  1
  H  H65  1  0.46453700  0.78496900  0.30899600  1
  H  H66  1  0.56225800  0.19570300  0.37720100  1
  H  H67  1  0.49769700  0.20237600  0.36344000  1
  H  H68  1  0.54720700  0.15688800  0.42147100  1
  H  H69  1  0.01679200  0.31439900  0.31377100  1
  H  H70  1  0.99426400  0.33573700  0.36467300  1
  H  H71  1  0.96453700  0.28496900  0.30899600  1
  H  H72  1  0.06225700  0.69570300  0.37720100  1
  H  H73  1  0.99769700  0.70237600  0.36344000  1
  H  H74  1  0.04720700  0.65688800  0.42147100  1
  H  H75  1  0.35182700  0.02997800  0.04201500  1
  H  H76  1  0.31242900  0.99525000  0.94988200  1
  H  H77  1  0.26826800  0.03100800  0.95370700  1
  H  H78  1  0.85182700  0.52997800  0.04201500  1
  H  H79  1  0.81242900  0.49525000  0.94988200  1
  H  H80  1  0.76826800  0.53100800  0.95370700  1
  H  H81  1  0.31805400  0.82402400  0.25680000  1
  H  H82  1  0.36165300  0.78012400  0.27129700  1
  H  H83  1  0.39985500  0.82962600  0.32875700  1
  H  H84  1  0.31739800  0.23782200  0.37058100  1
  H  H85  1  0.37045100  0.19346100  0.42730000  1
  H  H86  1  0.29510100  0.18683900  0.31872500  1
  H  H87  1  0.81805400  0.32402400  0.25680000  1
  H  H88  1  0.86165300  0.28012400  0.27129700  1
  H  H89  1  0.89985500  0.32962600  0.32875700  1
  H  H90  1  0.81739800  0.73782200  0.37058100  1
  H  H91  1  0.87045100  0.69346100  0.42730000  1
  H  H92  1  0.79510100  0.68683900  0.31872500  1
  C  C1  1  0.50093500  0.00285200  0.38348300  1
  C  C2  1  0.00093500  0.50285200  0.38348300  1
  C  C3  1  0.50797500  0.92211800  0.50951100  1
  C  C4  1  0.49336300  0.08341300  0.49476100  1
  C  C5  1  0.00797500  0.42211800  0.50951100  1
  C  C6  1  0.99336300  0.58341300  0.49476100  1
  C  C7  1  0.50042500  0.00282200  0.61955800  1
  C  C8  1  0.00042500  0.50282200  0.61955800  1
  C  C9  1  0.47109200  0.73899700  0.42612600  1
  C  C10  1  0.48154500  0.26785700  0.42600700  1
  C  C11  1  0.97109200  0.23899700  0.42612600  1
  C  C12  1  0.98154500  0.76785700  0.42600700  1
  C  C13  1  0.53031100  0.76448200  0.48079600  1
  C  C14  1  0.53375500  0.23910900  0.49806900  1
  C  C15  1  0.03031100  0.26448200  0.48079600  1
  C  C16  1  0.03375500  0.73910900  0.49806900  1
  C  C17  1  0.51148900  0.87699800  0.51302300  1
  C  C18  1  0.48973900  0.12854200  0.49087600  1
  C  C19  1  0.01148900  0.37699800  0.51302300  1
  C  C20  1  0.98973900  0.62854200  0.49087600  1
  C  C21  1  0.49675500  0.62771700  0.50078900  1
  C  C22  1  0.49747100  0.37800900  0.49977100  1
  C  C23  1  0.99675500  0.12771700  0.50078900  1
  C  C24  1  0.99747100  0.87800900  0.49977100  1
  C  C25  1  0.45088100  0.76789800  0.45802800  1
  C  C26  1  0.43764100  0.24096200  0.42000900  1
  C  C27  1  0.95088100  0.26789800  0.45802800  1
  C  C28  1  0.93764100  0.74096200  0.42000900  1
  C  C29  1  0.50961200  0.79299600  0.51155600  1
  C  C30  1  0.48991000  0.21258600  0.49113100  1
  C  C31  1  0.00961200  0.29299600  0.51155600  1
  C  C32  1  0.98991000  0.71258600  0.49113100  1
  C  C33  1  0.48110900  0.73969700  0.53590800  1
  C  C34  1  0.44831200  0.26809700  0.48722500  1
  C  C35  1  0.98110900  0.23969700  0.53590800  1
  C  C36  1  0.94831200  0.76809700  0.48722500  1
  C  C37  1  0.50244400  0.71165800  0.50526800  1
  C  C38  1  0.49328400  0.29401300  0.49484900  1
  C  C39  1  0.00244400  0.21165800  0.50526800  1
  C  C40  1  0.99328400  0.79401300  0.49484900  1
  C  C41  1  0.54055000  0.76507300  0.58981200  1
  C  C42  1  0.50147400  0.23925000  0.55949400  1
  C  C43  1  0.04055000  0.26507300  0.58981200  1
  C  C44  1  0.00147400  0.73925000  0.55949400  1
  C  C45  1  0.56184200  0.73617800  0.55912400  1
  C  C46  1  0.54630600  0.26604600  0.56703400  1
  C  C47  1  0.06184200  0.23617800  0.55912400  1
  C  C48  1  0.04630600  0.76604600  0.56703400  1
  C  C49  1  0.51182000  0.83904800  0.51352500  1
  C  C50  1  0.48887400  0.16649400  0.48997300  1
  C  C51  1  0.01182000  0.33904800  0.51352500  1
  C  C52  1  0.98887400  0.66649400  0.48997300  1
  C  C53  1  0.49903100  0.66564400  0.50286800  1
  C  C54  1  0.49576400  0.34006400  0.49787300  1
  C  C55  1  0.99903100  0.16564400  0.50286800  1
  C  C56  1  0.99576400  0.84006400  0.49787300  1
  C  C57  1  0.46861700  0.97497100  0.24996800  1
  C  C58  1  0.96861700  0.47497100  0.24996800  1
  C  C59  1  0.50102200  0.00376600  0.31646400  1
  C  C60  1  0.00102200  0.50376600  0.31646400  1
  C  C61  1  0.53405800  0.03397200  0.31724000  1
  C  C62  1  0.03405800  0.53397200  0.31724000  1
  C  C63  1  0.53213400  0.03500900  0.25103300  1
  C  C64  1  0.03213400  0.53500900  0.25103300  1
  C  C65  1  0.49968500  0.00452100  0.18598600  1
  C  C66  1  0.99968500  0.50452100  0.18598600  1
  C  C67  1  0.46939700  0.97456800  0.18963300  1
  C  C68  1  0.96939700  0.47456800  0.18963300  1
  C  C69  1  0.42950700  0.93677400  0.14435500  1
  C  C70  1  0.92950700  0.43677400  0.14435500  1
  C  C71  1  0.42892700  0.93714100  0.21579800  1
  C  C72  1  0.92892700  0.43714100  0.21579800  1
  C  C73  1  0.46978300  0.97376700  0.68974900  1
  C  C74  1  0.96978300  0.47376700  0.68974900  1
  C  C75  1  0.50022700  0.00364400  0.68642900  1
  C  C76  1  0.00022700  0.50364400  0.68642900  1
  C  C77  1  0.53101400  0.03484000  0.74975500  1
  C  C78  1  0.03101400  0.53484000  0.74975500  1
  C  C79  1  0.52873300  0.03575100  0.81172300  1
  C  C80  1  0.02873300  0.53575100  0.81172300  1
  C  C81  1  0.49825300  0.00423200  0.81352400  1
  C  C82  1  0.99825300  0.50423200  0.81352400  1
  C  C83  1  0.47029400  0.97333000  0.75137300  1
  C  C84  1  0.97029400  0.47333000  0.75137300  1
  C  C85  1  0.43308700  0.93427500  0.71913900  1
  C  C86  1  0.93308700  0.43427500  0.71913900  1
  C  C87  1  0.43284500  0.93468800  0.64687100  1
  C  C88  1  0.93284500  0.43468800  0.64687100  1
  C  C89  1  0.38016000  0.50114900  0.38145500  1
  C  C90  1  0.88016000  0.00114900  0.38145500  1
  C  C91  1  0.49529300  0.58252800  0.49853500  1
  C  C92  1  0.49859800  0.42321100  0.50068900  1
  C  C93  1  0.99529300  0.08252800  0.49853500  1
  C  C94  1  0.99859800  0.92321100  0.50068900  1
  C  C95  1  0.61366600  0.50471800  0.61723200  1
  C  C96  1  0.11366600  0.00471800  0.61723200  1
  C  C97  1  0.61546200  0.00073300  0.11595700  1
  C  C98  1  0.11546200  0.50073300  0.11595700  1
  C  C99  1  0.49788200  0.00447800  0.11697600  1
  C  C100  1  0.99788200  0.50447800  0.11697600  1
  C  C101  1  0.37871300  0.00787700  0.88126700  1
  C  C102  1  0.87871300  0.50787700  0.88126700  1
  C  C103  1  0.49631300  0.00416700  0.87875200  1
  C  C104  1  0.99631300  0.50416700  0.87875200  1
  C  C105  1  0.27834500  0.52799100  0.24589800  1
  C  C106  1  0.77834500  0.02799100  0.24589800  1
  C  C107  1  0.31268900  0.49951300  0.31311400  1
  C  C108  1  0.81268900  0.99951300  0.31311400  1
  C  C109  1  0.28010400  0.46933500  0.31364000  1
  C  C110  1  0.78010400  0.96933500  0.31364000  1
  C  C111  1  0.71562800  0.96849600  0.24767300  1
  C  C112  1  0.21562800  0.46849600  0.24767300  1
  C  C113  1  0.68291900  0.99903300  0.18269900  1
  C  C114  1  0.18291900  0.49903300  0.18269900  1
  C  C115  1  0.71714400  0.02844000  0.18572000  1
  C  C116  1  0.21714400  0.52844000  0.18572000  1
  C  C117  1  0.71164500  0.06624500  0.14037100  1
  C  C118  1  0.21164500  0.56624500  0.14037100  1
  C  C119  1  0.28364900  0.56586400  0.21152600  1
  C  C120  1  0.78364900  0.06586400  0.21152600  1
  C  C121  1  0.71608900  0.48363100  0.67972900  1
  C  C122  1  0.21608900  0.98363100  0.67972900  1
  C  C123  1  0.68117600  0.50686700  0.68495000  1
  C  C124  1  0.18117600  0.00686700  0.68495000  1
  C  C125  1  0.71324400  0.53247600  0.75808700  1
  C  C126  1  0.21324400  0.03247600  0.75808700  1
  C  C127  1  0.27770800  0.03424400  0.82178700  1
  C  C128  1  0.77770800  0.53424400  0.82178700  1
  C  C129  1  0.31111700  0.00940700  0.81405900  1
  C  C130  1  0.81111700  0.50940700  0.81405900  1
  C  C131  1  0.27728500  0.98421600  0.74148700  1
  C  C132  1  0.77728500  0.48421600  0.74148700  1
  C  C133  1  0.28369700  0.95294200  0.69753300  1
  C  C134  1  0.78369700  0.45294200  0.69753300  1
  C  C135  1  0.71172100  0.45201200  0.62517600  1
  C  C136  1  0.21172100  0.95201200  0.62517600  1
  C  C137  1  0.50498500  0.80625900  0.35027900  1
  C  C138  1  0.54582900  0.19093600  0.40869100  1
  C  C139  1  0.00498500  0.30625900  0.35027900  1
  C  C140  1  0.04582900  0.69093600  0.40869100  1
  C  C141  1  0.31154200  0.02695700  0.97042800  1
  C  C142  1  0.81154200  0.52695700  0.97042800  1
  C  C143  1  0.36286100  0.80728800  0.30459100  1
  C  C144  1  0.33407000  0.20915900  0.36325600  1
  C  C145  1  0.86286100  0.30728800  0.30459100  1
  C  C146  1  0.83407000  0.70915900  0.36325600  1
  S  S1  1  0.57081300  0.78023200  0.45138500  1
  S  S2  1  0.59588300  0.21978500  0.51135100  1
  S  S3  1  0.07081300  0.28023200  0.45138500  1
  S  S4  1  0.09588300  0.71978500  0.51135100  1
  S  S5  1  0.31622800  0.06695200  0.91548100  1
  S  S6  1  0.81622800  0.56695200  0.91548100  1
  S  S7  1  0.37406000  0.78926900  0.39452200  1
  S  S8  1  0.36336800  0.22302900  0.31671800  1
  S  S9  1  0.87406000  0.28926900  0.39452200  1
  S  S10  1  0.86336800  0.72302900  0.31671800  1
  O  O1  1  0.44790200  0.99861000  0.35883400  1
  O  O2  1  0.94790200  0.49861000  0.35883400  1
  O  O3  1  0.55384600  0.00692600  0.46521800  1
  O  O4  1  0.05384600  0.50692600  0.46521800  1
  O  O5  1  0.45309700  0.93919300  0.45134300  1
  O  O6  1  0.44212900  0.06146100  0.44055300  1
  O  O7  1  0.95309700  0.43919300  0.45134300  1
  O  O8  1  0.94212900  0.56146100  0.44055300  1
  O  O9  1  0.55921200  0.94408500  0.55813200  1
  O  O10  1  0.54825700  0.06630100  0.54687100  1
  O  O11  1  0.05921200  0.44408500  0.55813200  1
  O  O12  1  0.04825700  0.56630100  0.54687100  1
  O  O13  1  0.44764900  0.99846400  0.53795000  1
  O  O14  1  0.94764900  0.49846400  0.53795000  1
  O  O15  1  0.55331400  0.00708500  0.64402700  1
  O  O16  1  0.05331400  0.50708500  0.64402700  1
  O  O17  1  0.40914300  0.51418300  0.36026300  1
  O  O18  1  0.90914300  0.01418300  0.36026300  1
  O  O19  1  0.40900400  0.48937800  0.46126300  1
  O  O20  1  0.90900400  0.98937800  0.46126300  1
  O  O21  1  0.51359800  0.56325800  0.46606100  1
  O  O22  1  0.48102300  0.44283400  0.43227300  1
  O  O23  1  0.01359800  0.06325800  0.46606100  1
  O  O24  1  0.98102300  0.94283400  0.43227300  1
  O  O25  1  0.47714400  0.56247800  0.53067700  1
  O  O26  1  0.51584700  0.44291300  0.56888300  1
  O  O27  1  0.97714400  0.06247800  0.53067700  1
  O  O28  1  0.01584700  0.94291300  0.56888300  1
  O  O29  1  0.58547000  0.49194700  0.53815300  1
  O  O30  1  0.08547000  0.99194700  0.53815300  1
  O  O31  1  0.58396400  0.51600700  0.63813300  1
  O  O32  1  0.08396400  0.01600700  0.63813300  1
  O  O33  1  0.58425800  0.96521400  0.08469000  1
  O  O34  1  0.58909600  0.03778300  0.08486100  1
  O  O35  1  0.08425800  0.46521400  0.08469000  1
  O  O36  1  0.08909600  0.53778300  0.08486100  1
  O  O37  1  0.49525700  0.96814400  0.08579200  1
  O  O38  1  0.50473700  0.04042800  0.09498100  1
  O  O39  1  0.99525700  0.46814400  0.08579200  1
  O  O40  1  0.00473700  0.54042800  0.09498100  1
  O  O41  1  0.40508500  0.97095500  0.90195500  1
  O  O42  1  0.40998600  0.04326900  0.91108500  1
  O  O43  1  0.90508500  0.47095500  0.90195500  1
  O  O44  1  0.90998600  0.54326900  0.91108500  1
  O  O45  1  0.49832300  0.96780400  0.90949500  1
  O  O46  1  0.49928700  0.04053500  0.91026600  1
  O  O47  1  0.99832300  0.46780400  0.90949500  1
  O  O48  1  0.99928700  0.54053500  0.91026600  1
