# generated using pymatgen
data_ZnH12C20NClO4
_symmetry_space_group_name_H-M   'P 1'
_cell_length_a   10.06755400
_cell_length_b   11.21763100
_cell_length_c   14.56200100
_cell_angle_alpha   92.22714400
_cell_angle_beta   101.76657400
_cell_angle_gamma   92.46853700
_symmetry_Int_Tables_number   1
_chemical_formula_structural   ZnH12C20NClO4
_chemical_formula_sum   'Zn2 H24 C40 N2 Cl2 O8'
_cell_volume   1606.58536975
_cell_formula_units_Z   2
loop_
 _symmetry_equiv_pos_site_id
 _symmetry_equiv_pos_as_xyz
  1  'x, y, z'
loop_
 _atom_site_type_symbol
 _atom_site_label
 _atom_site_symmetry_multiplicity
 _atom_site_fract_x
 _atom_site_fract_y
 _atom_site_fract_z
 _atom_site_occupancy
  Zn  Zn1  1  0.84510900  0.50240900  0.51829100  1
  Zn  Zn2  1  0.12985500  0.45644200  0.49059200  1
  H  H1  1  0.30645100  0.70581800  0.09221800  1
  H  H2  1  0.71368300  0.30887100  0.89716600  1
  H  H3  1  0.65962300  0.52328500  0.22893200  1
  H  H4  1  0.30116400  0.41838100  0.77898800  1
  H  H5  1  0.10915800  0.69890000  0.97523400  1
  H  H6  1  0.90818300  0.32020000  0.01850500  1
  H  H7  1  0.52906200  0.64510300  0.15433100  1
  H  H8  1  0.49248500  0.36369700  0.83146400  1
  H  H9  1  0.10008100  0.07517600  0.49105500  1
  H  H10  1  0.87508600  0.88371900  0.51811700  1
  H  H11  1  0.81307200  0.08823200  0.53070700  1
  H  H12  1  0.16173100  0.87058400  0.47781200  1
  H  H13  1  0.57206100  0.38607000  0.45826900  1
  H  H14  1  0.40393700  0.56774000  0.55602100  1
  H  H15  1  0.63627800  0.60798900  0.57520000  1
  H  H16  1  0.33827900  0.35065300  0.43335600  1
  H  H17  1  0.12232300  0.55630700  0.21773500  1
  H  H18  1  0.44208300  0.31563900  0.25589300  1
  H  H19  1  0.27789200  0.14930300  0.19178300  1
  H  H20  1  0.03455900  0.18443900  0.14802100  1
  H  H21  1  0.04566000  0.82774000  0.79656400  1
  H  H22  1  0.61307500  0.80857700  0.74244800  1
  H  H23  1  0.61421000  0.59683500  0.78019200  1
  H  H24  1  0.83115500  0.50025300  0.82589100  1
  C  C1  1  0.03686900  0.70872700  0.49305500  1
  C  C2  1  0.93812600  0.25010500  0.51588000  1
  C  C3  1  0.08058700  0.50181100  0.68665200  1
  C  C4  1  0.89533300  0.45925400  0.32150300  1
  C  C5  1  0.13812000  0.52521800  0.78785700  1
  C  C6  1  0.84406600  0.44679400  0.21788000  1
  C  C7  1  0.15226500  0.63600000  0.93286400  1
  C  C8  1  0.85339800  0.36542500  0.06494000  1
  C  C9  1  0.08089400  0.60208700  0.84420900  1
  C  C10  1  0.91761000  0.39501400  0.15634300  1
  C  C11  1  0.26316800  0.47986300  0.82434500  1
  C  C12  1  0.71483100  0.48356400  0.18082700  1
  C  C13  1  0.33601300  0.51368600  0.91464500  1
  C  C14  1  0.65630200  0.46581000  0.08536400  1
  C  C15  1  0.27848900  0.59408900  0.96728800  1
  C  C16  1  0.72315600  0.39789100  0.03042700  1
  C  C17  1  0.46532900  0.47250400  0.95307600  1
  C  C18  1  0.53111700  0.51088800  0.04417600  1
  C  C19  1  0.47459900  0.59928800  0.09061100  1
  C  C20  1  0.53286400  0.39664600  0.90229300  1
  C  C21  1  0.34866100  0.63796100  0.05358900  1
  C  C22  1  0.66172100  0.36392000  0.93968400  1
  C  C23  1  0.06432200  0.83781500  0.49014100  1
  C  C24  1  0.91064100  0.12101700  0.51868300  1
  C  C25  1  0.97243600  0.91493800  0.50483200  1
  C  C26  1  0.00263800  0.04392000  0.50416200  1
  C  C27  1  0.41908700  0.49080700  0.51265400  1
  C  C28  1  0.55666500  0.46414500  0.50033300  1
  C  C29  1  0.06234900  0.37233000  0.18259500  1
  C  C30  1  0.15601900  0.46657200  0.21216100  1
  C  C31  1  0.29135500  0.44579800  0.24126600  1
  C  C32  1  0.33561400  0.33198000  0.23330200  1
  C  C33  1  0.24339800  0.23862700  0.19801100  1
  C  C34  1  0.10670300  0.25852600  0.17327700  1
  C  C35  1  0.95172200  0.65717600  0.81179900  1
  C  C36  1  0.95092000  0.77650600  0.79207200  1
  C  C37  1  0.82933600  0.83067800  0.76667700  1
  C  C38  1  0.70838400  0.76602600  0.76211500  1
  C  C39  1  0.70904700  0.64728000  0.78324800  1
  C  C40  1  0.83061300  0.59301000  0.80847600  1
  N  N1  1  0.31625700  0.42393600  0.47107900  1
  N  N2  1  0.65860200  0.53448200  0.53785400  1
  Cl  Cl1  1  0.40409700  0.56315300  0.29463900  1
  Cl  Cl2  1  0.82861000  0.98193600  0.74119300  1
  O  O1  1  0.91742400  0.67097200  0.50593700  1
  O  O2  1  0.05751500  0.28801600  0.50334500  1
  O  O3  1  0.13387000  0.63680800  0.48485500  1
  O  O4  1  0.84117700  0.32201800  0.52366300  1
  O  O5  1  0.95034200  0.51276100  0.65307500  1
  O  O6  1  0.02437600  0.44612600  0.35609800  1
  O  O7  1  0.16633100  0.47837100  0.63235100  1
  O  O8  1  0.80897100  0.48141400  0.37620300  1
