# Generated by REPEAT Assigner based on pymatgen
data_DB0-m3_o160_o146_f0_fsc.sym.9_sqe
_audit_creation_date              2022-05-24
_audit_creation_method            REPEAT_Assigner
_cell_length_a                    13.414406
_cell_length_b                    15.327915
_cell_length_c                    11.735490
_cell_angle_alpha                 90.000000
_cell_angle_beta                  90.145676
_cell_angle_gamma                 90.000000
_cell_volume                      2412.983463
_symmetry_space_group_name_H-M    P1
_symmetry_Int_Tables_number       1
loop_
    _symmetry_equiv_pos_site_id
    _symmetry_equiv_pos_as_xyz
    1  x,y,z
loop_
    _atom_site_type_symbol
    _atom_site_label
    _atom_site_fract_x
    _atom_site_fract_y
    _atom_site_fract_z
    _atom_type_partial_charge
    C   C1   0.006449  0.304804  0.734207  -0.119459
    C   C2   0.006449  0.695196  0.734207  -0.119458
    C   C3   0.006362  0.078241  0.939977  -0.091331
    C   C4   0.006362  0.921759  0.939977  -0.091327
    C   C5   0.092410  0.182319  0.814522  -0.214029
    C   C6   0.092410  0.817681  0.814522  -0.214035
    H   H1   0.158786  0.142558  0.820425  0.110033
    H   H2   0.158786  0.857442  0.820425  0.110035
    C   C7   0.922023  0.281862  0.794524  -0.075236
    C   C8   0.922023  0.718138  0.794524  -0.075238
    H   H3   0.854064  0.319236  0.786391  0.100211
    H   H4   0.854064  0.680764  0.786391  0.100213
    C   C9   0.092145  0.255348  0.745933  -0.041121
    C   C10  0.092145  0.744652  0.745933  -0.041113
    H   H5   0.158723  0.271149  0.698586  0.093922
    H   H6   0.158723  0.728851  0.698586  0.093919
    C   C11  0.008195  0.159547  0.874658  0.262222
    C   C12  0.008195  0.840453  0.874658  0.262218
    C   C13  0.923220  0.209859  0.865057  -0.213577
    C   C14  0.923220  0.790141  0.865057  -0.213574
    H   H7   0.856140  0.191200  0.909703  0.109501
    H   H8   0.856140  0.808800  0.909703  0.109500
    C   C15  0.996359  0.305599  0.260926  -0.094655
    C   C16  0.996359  0.694401  0.260926  -0.094650
    C   C17  0.992909  0.078322  0.056822  0.060803
    C   C18  0.992909  0.921678  0.056822  0.060806
    C   C19  0.905819  0.190519  0.169284  -0.205423
    C   C20  0.905819  0.809481  0.169284  -0.205425
    H   H9   0.836490  0.156278  0.154731  0.102330
    H   H10  0.836490  0.843722  0.154731  0.102331
    C   C21  0.083148  0.276065  0.210551  -0.083106
    C   C22  0.083148  0.723935  0.210551  -0.083105
    H   H11  0.153638  0.307904  0.226784  0.114640
    H   H12  0.153638  0.692096  0.226784  0.114638
    C   C23  0.907337  0.263303  0.238227  -0.050914
    C   C24  0.907337  0.736697  0.238227  -0.050912
    H   H13  0.838446  0.284687  0.276693  0.090175
    H   H14  0.838446  0.715313  0.276693  0.090174
    C   C25  0.992847  0.159966  0.121399  0.242905
    C   C26  0.992847  0.840034  0.121399  0.242898
    C   C27  0.081165  0.203726  0.140674  -0.233322
    C   C28  0.081165  0.796274  0.140674  -0.233319
    H   H15  0.149700  0.179599  0.104054  0.114911
    H   H16  0.149700  0.820401  0.104054  0.114911
    C   C29  0.014390  0.000000  0.882562  -0.153653
    C   C30  0.987288  0.000000  0.114925  -0.092545
    H   H17  0.022948  0.000000  0.790985  0.119811
    O   O1   0.088422  0.594229  0.611283  -0.654241
    O   O2   0.088422  0.405771  0.611283  -0.654247
    O   O3   0.917060  0.591106  0.621537  -0.657908
    O   O4   0.917060  0.408894  0.621537  -0.657912
    C   C31  0.003860  0.622328  0.653275  0.737773
    C   C32  0.003860  0.377672  0.653275  0.737784
    O   O5   0.914387  0.594148  0.384852  -0.628916
    O   O6   0.914387  0.405852  0.384852  -0.628922
    O   O7   0.086147  0.591062  0.374633  -0.618396
    O   O8   0.086147  0.408938  0.374633  -0.618401
    C   C33  0.999130  0.622066  0.342705  0.677561
    C   C34  0.999130  0.377934  0.342705  0.677574
    Zn  Zn1  0.890445  0.500000  0.501424  1.002416
    Zn  Zn2  0.112553  0.500000  0.494867  1.013422
    C   C35  0.297535  0.500000  0.397289  -0.242057
    N   N1   0.243298  0.500000  0.493573  0.014607
    C   C36  0.288946  0.500000  0.595703  -0.023456
    C   C37  0.391207  0.500000  0.604079  -0.097356
    C   C38  0.449300  0.500000  0.506416  -0.318221
    C   C39  0.400552  0.500000  0.402226  0.709781
    C   C40  0.609477  0.500000  0.608728  -0.316311
    C   C41  0.553619  0.500000  0.508782  0.405599
    C   C42  0.604526  0.500000  0.406679  -0.185741
    C   C43  0.552785  0.500000  0.305043  0.320171
    N   N2   0.452640  0.500000  0.304468  -0.675433
    C   C44  0.712060  0.500000  0.604197  0.025239
    N   N3   0.759715  0.500000  0.503589  -0.046386
    C   C45  0.707553  0.500000  0.405470  0.038648
    H   H18  0.245333  0.500000  0.672948  0.108630
    H   H19  0.746611  0.500000  0.325052  0.090139
    H   H20  0.592601  0.500000  0.225077  0.078142
    H   H21  0.421597  0.500000  0.688919  0.125285
    H   H22  0.577035  0.500000  0.692396  0.172184
    H   H23  0.260650  0.500000  0.315309  0.163891
    H   H24  0.754113  0.500000  0.682834  0.150556
    Cl  Cl1  0.980779  0.000000  0.264276  -0.058079
