# generated using pymatgen
data_Cu2H16C19(NO4)2
_symmetry_space_group_name_H-M   'P 1'
_cell_length_a   9.53618900
_cell_length_b   11.02828900
_cell_length_c   13.95989800
_cell_angle_alpha   89.99187300
_cell_angle_beta   85.30709000
_cell_angle_gamma   90.01986700
_symmetry_Int_Tables_number   1
_chemical_formula_structural   Cu2H16C19(NO4)2
_chemical_formula_sum   'Cu2 H16 C19 N2 O8'
_cell_volume   1463.21043844
_cell_formula_units_Z   1
loop_
 _symmetry_equiv_pos_site_id
 _symmetry_equiv_pos_as_xyz
  1  'x, y, z'
loop_
 _atom_site_type_symbol
 _atom_site_label
 _atom_site_symmetry_multiplicity
 _atom_site_fract_x
 _atom_site_fract_y
 _atom_site_fract_z
 _atom_site_occupancy
  Cu  Cu1  1  0.36753900  0.49561500  0.51233000  1
  Cu  Cu2  1  0.64769000  0.48951400  0.51505900  1
  H  H1  1  0.35145600  0.46150400  0.03135400  1
  H  H2  1  0.66391600  0.52401600  0.99594100  1
  H  H3  1  0.71412800  0.11042600  0.51039300  1
  H  H4  1  0.39893900  0.08332100  0.48920000  1
  H  H5  1  0.42323400  0.90112100  0.55821200  1
  H  H6  1  0.11965900  0.57942000  0.64386300  1
  H  H7  1  0.11518800  0.48663800  0.44669000  1
  H  H8  1  0.86271000  0.61934800  0.61825600  1
  H  H9  1  0.91200900  0.41232900  0.48727500  1
  H  H10  1  0.01526900  0.84081600  0.35221800  1
  H  H11  1  0.90003500  0.85146200  0.25551200  1
  H  H12  1  0.02403200  0.97143300  0.27370000  1
  H  H13  1  0.77912300  0.02620300  0.33353200  1
  H  H14  1  0.90074300  0.02381600  0.42762200  1
  H  H15  1  0.81608200  0.82769800  0.48401700  1
  H  H16  1  0.71658000  0.80923600  0.37950100  1
  C  C1  1  0.51475000  0.72575800  0.51747000  1
  C  C2  1  0.48169200  0.48617400  0.69795500  1
  C  C3  1  0.50100600  0.25964600  0.50790100  1
  C  C4  1  0.53366000  0.49926700  0.32934000  1
  C  C5  1  0.54719500  0.50165100  0.22629300  1
  C  C6  1  0.56469500  0.50431600  0.03649100  1
  C  C7  1  0.45068700  0.48122100  0.99081000  1
  C  C8  1  0.45927200  0.48248500  0.88756400  1
  C  C9  1  0.55609800  0.50307700  0.13974000  1
  C  C10  1  0.46815500  0.48388500  0.80100900  1
  C  C11  1  0.61712700  0.06272500  0.50109900  1
  C  C12  1  0.49807100  0.12685100  0.50038400  1
  C  C13  1  0.62338600  0.92971200  0.48671900  1
  C  C14  1  0.51585800  0.85937400  0.52232100  1
  C  C15  1  0.07588400  0.54497000  0.58004700  1
  C  C16  1  0.92191500  0.55407200  0.57323800  1
  C  C17  1  0.75161600  0.87478800  0.43284900  1
  C  C18  1  0.84391900  0.96791700  0.37732700  1
  C  C19  1  0.95275100  0.90338600  0.31037100  1
  N  N1  1  0.15801400  0.50149600  0.51081200  1
  N  N2  1  0.85718400  0.48514900  0.51697500  1
  O  O1  1  0.39213000  0.67111700  0.52040700  1
  O  O2  1  0.63386400  0.66613400  0.51501100  1
  O  O3  1  0.36710600  0.48531700  0.65204900  1
  O  O4  1  0.60866400  0.48995400  0.65455300  1
  O  O5  1  0.38167300  0.31888700  0.51109800  1
  O  O6  1  0.62289500  0.31411400  0.50795200  1
  O  O7  1  0.40715700  0.49680500  0.37289400  1
  O  O8  1  0.64773200  0.49883400  0.37533700  1
