# generated using pymatgen
data_ZnH18C29NO4
_symmetry_space_group_name_H-M   'P 1'
_cell_length_a   16.13043000
_cell_length_b   14.98681500
_cell_length_c   15.97005300
_cell_angle_alpha   90.00000000
_cell_angle_beta   89.98897400
_cell_angle_gamma   90.00000000
_symmetry_Int_Tables_number   1
_chemical_formula_structural   ZnH18C29NO4
_chemical_formula_sum   'Zn2 H36 C58 N2 O8'
_cell_volume   3860.66075231
_cell_formula_units_Z   2
loop_
 _symmetry_equiv_pos_site_id
 _symmetry_equiv_pos_as_xyz
  1  'x, y, z'
loop_
 _atom_site_type_symbol
 _atom_site_label
 _atom_site_symmetry_multiplicity
 _atom_site_fract_x
 _atom_site_fract_y
 _atom_site_fract_z
 _atom_site_occupancy
  Zn  Zn1  1  0.52036600  0.59894100  0.48352500  1
  Zn  Zn2  1  0.52037900  0.39564800  0.48268200  1
  H  H1  1  0.40234500  0.56546200  0.90645100  1
  H  H2  1  0.42581400  0.39772700  0.91444200  1
  H  H3  1  0.39537400  0.54666800  0.04446900  1
  H  H4  1  0.42391600  0.40544800  0.05012100  1
  H  H5  1  0.52914600  0.35429300  0.91154000  1
  H  H6  1  0.49165500  0.63764700  0.91346500  1
  H  H7  1  0.62812000  0.58976600  0.04410700  1
  H  H8  1  0.65349800  0.47569500  0.05609100  1
  H  H9  1  0.63147800  0.57760400  0.90698300  1
  H  H10  1  0.64896100  0.45933900  0.91362300  1
  H  H11  1  0.09670500  0.63937300  0.47955200  1
  H  H12  1  0.09665800  0.35513500  0.48467200  1
  H  H13  1  0.94416700  0.63939400  0.47992400  1
  H  H14  1  0.94412800  0.35517200  0.48503300  1
  H  H15  1  0.63837000  0.91563500  0.53767400  1
  H  H16  1  0.63753900  0.07946500  0.53881100  1
  H  H17  1  0.43067100  0.30834200  0.15590700  1
  H  H18  1  0.49486400  0.18028100  0.22349200  1
  H  H19  1  0.63280300  0.12879200  0.17969900  1
  H  H20  1  0.70627600  0.20651900  0.06638400  1
  H  H21  1  0.64388400  0.33382200  0.99741300  1
  H  H22  1  0.34782100  0.69531200  0.99488100  1
  H  H23  1  0.33867400  0.84969700  0.04165100  1
  H  H24  1  0.44341000  0.91112000  0.13734200  1
  H  H25  1  0.55720800  0.81596400  0.18663400  1
  H  H26  1  0.56812000  0.66377700  0.14283000  1
  H  H27  1  0.34255900  0.14712600  0.53517300  1
  H  H28  1  0.22626900  0.23227700  0.47632100  1
  H  H29  1  0.19738100  0.22616800  0.32525300  1
  H  H30  1  0.28525500  0.13499300  0.23289600  1
  H  H31  1  0.40207800  0.05043400  0.29126800  1
  H  H32  1  0.44493300  0.84849900  0.31305400  1
  H  H33  1  0.32563700  0.76351700  0.26034900  1
  H  H34  1  0.19279600  0.76793200  0.33597000  1
  H  H35  1  0.17949100  0.85745300  0.46431000  1
  H  H36  1  0.29883000  0.94199400  0.51748600  1
  C  C1  1  0.35839400  0.49729200  0.48284300  1
  C  C2  1  0.52062000  0.49796100  0.31950700  1
  C  C3  1  0.68236200  0.49728700  0.48333200  1
  C  C4  1  0.52008800  0.49667100  0.64678300  1
  C  C5  1  0.45823900  0.57153300  0.02914300  1
  C  C6  1  0.48983200  0.41118800  0.03170000  1
  C  C7  1  0.49013500  0.40884800  0.93658000  1
  C  C8  1  0.46497500  0.57310900  0.93416100  1
  C  C9  1  0.52003800  0.49635800  0.73661500  1
  C  C10  1  0.52052000  0.50237400  0.06255200  1
  C  C11  1  0.52049900  0.49797800  0.90360000  1
  C  C12  1  0.60784400  0.51437600  0.93400800  1
  C  C13  1  0.60743100  0.52171600  0.02848700  1
  C  C14  1  0.52013000  0.49669500  0.81204800  1
  C  C15  1  0.52065700  0.50024400  0.15427300  1
  C  C16  1  0.52065600  0.49874800  0.22971900  1
  C  C17  1  0.97768100  0.57694800  0.48095800  1
  C  C18  1  0.97765900  0.41760400  0.48382200  1
  C  C19  1  0.93494300  0.49728500  0.48255300  1
  C  C20  1  0.06313700  0.41758200  0.48361800  1
  C  C21  1  0.06316100  0.57693500  0.48075100  1
  C  C22  1  0.10586400  0.49724800  0.48216000  1
  C  C23  1  0.84600200  0.49729900  0.48289300  1
  C  C24  1  0.19478700  0.49723700  0.48231900  1
  C  C25  1  0.26946900  0.49725800  0.48254600  1
  C  C26  1  0.77130800  0.49729800  0.48314600  1
  C  C27  1  0.45087600  0.95086400  0.45023900  1
  C  C28  1  0.44998200  0.04345400  0.45177200  1
  C  C29  1  0.51887600  0.90531900  0.48129000  1
  C  C30  1  0.51745100  0.08928100  0.48364600  1
  C  C31  1  0.58554300  0.95154000  0.51321900  1
  C  C32  1  0.58489000  0.04333400  0.51425800  1
  C  C33  1  0.51980100  0.80955700  0.48292500  1
  C  C34  1  0.51923600  0.18503600  0.48278300  1
  C  C35  1  0.53256000  0.33252300  0.07209200  1
  C  C36  1  0.49128900  0.28699000  0.13513500  1
  C  C37  1  0.52735700  0.21452000  0.17381100  1
  C  C38  1  0.60464800  0.18573400  0.14942300  1
  C  C39  1  0.64579800  0.22943100  0.08607200  1
  C  C40  1  0.61012200  0.30217200  0.04741800  1
  C  C41  1  0.45942800  0.66636900  0.06235000  1
  C  C42  1  0.39503500  0.72100300  0.03640500  1
  C  C43  1  0.38936700  0.80829900  0.06284900  1
  C  C44  1  0.44788900  0.84272100  0.11632600  1
  C  C45  1  0.51160900  0.78932100  0.14381200  1
  C  C46  1  0.51747400  0.70181400  0.11773100  1
  C  C47  1  0.37984800  0.09335700  0.41698000  1
  C  C48  1  0.33027600  0.14452900  0.46868000  1
  C  C49  1  0.26484900  0.19217300  0.43573500  1
  C  C50  1  0.24863700  0.18872800  0.35106300  1
  C  C51  1  0.29783800  0.13756200  0.29932800  1
  C  C52  1  0.36329500  0.08991400  0.33219700  1
  C  C53  1  0.37951600  0.90064600  0.41858800  1
  C  C54  1  0.38672900  0.85035100  0.34648700  1
  C  C55  1  0.31974600  0.80280100  0.31681000  1
  C  C56  1  0.24530100  0.80533200  0.35914000  1
  C  C57  1  0.23784100  0.85555600  0.43106600  1
  C  C58  1  0.30480700  0.90316700  0.46076700  1
  N  N1  1  0.52037200  0.26221000  0.48227700  1
  N  N2  1  0.52039000  0.73238000  0.48389100  1
  O  O1  1  0.39685000  0.57442200  0.48328700  1
  O  O2  1  0.39686900  0.42018300  0.48259100  1
  O  O3  1  0.52055500  0.57485600  0.35871000  1
  O  O4  1  0.52057100  0.42060200  0.35798800  1
  O  O5  1  0.64388200  0.57441100  0.48365500  1
  O  O6  1  0.64389800  0.42015500  0.48295500  1
  O  O7  1  0.52015300  0.57397200  0.60825900  1
  O  O8  1  0.52017200  0.41974400  0.60758100  1
