# generated using pymatgen
data_CuH11C21N5O4F3
_symmetry_space_group_name_H-M   'P 1'
_cell_length_a   15.55485700
_cell_length_b   17.01634400
_cell_length_c   19.33159800
_cell_angle_alpha   90.00685800
_cell_angle_beta   92.76822600
_cell_angle_gamma   96.35626800
_symmetry_Int_Tables_number   1
_chemical_formula_structural   CuH11C21N5O4F3
_chemical_formula_sum   'Cu2 H22 C42 N10 O8 F6'
_cell_volume   5079.35293862
_cell_formula_units_Z   2
loop_
 _symmetry_equiv_pos_site_id
 _symmetry_equiv_pos_as_xyz
  1  'x, y, z'
loop_
 _atom_site_type_symbol
 _atom_site_label
 _atom_site_symmetry_multiplicity
 _atom_site_fract_x
 _atom_site_fract_y
 _atom_site_fract_z
 _atom_site_occupancy
  Cu  Cu1  1  0.41336000  0.49501800  0.49847100  1
  Cu  Cu2  1  0.58604900  0.50410800  0.50133500  1
  H  H1  1  0.39212000  0.57403700  0.14638800  1
  H  H2  1  0.61280600  0.43284100  0.85438000  1
  H  H3  1  0.60198400  0.43326400  0.16243100  1
  H  H4  1  0.38890100  0.55552400  0.83713200  1
  H  H5  1  0.59873800  0.43604200  0.28719300  1
  H  H6  1  0.39328300  0.55374400  0.71256400  1
  H  H7  1  0.37680100  0.74226500  0.49571700  1
  H  H8  1  0.62259200  0.25683700  0.50408900  1
  H  H9  1  0.38534200  0.88378900  0.49484900  1
  H  H10  1  0.61403600  0.11531700  0.50477000  1
  H  H11  1  0.33694800  0.10079600  0.48821000  1
  H  H12  1  0.66244100  0.89832800  0.51105200  1
  H  H13  1  0.34603500  0.24447000  0.48756000  1
  H  H14  1  0.65337100  0.75466600  0.51188400  1
  H  H15  1  0.28202000  0.57750600  0.57130700  1
  H  H16  1  0.71729100  0.42030400  0.42973800  1
  H  H17  1  0.12613600  0.57344100  0.56600800  1
  H  H18  1  0.87313900  0.42410100  0.43528000  1
  H  H19  1  0.88717400  0.60801000  0.58820700  1
  H  H20  1  0.11232200  0.39235100  0.41054900  1
  H  H21  1  0.72892400  0.60040800  0.57997300  1
  H  H22  1  0.27060900  0.40013600  0.41860200  1
  C  C1  1  0.49082900  0.34779400  0.49622600  1
  C  C2  1  0.50857600  0.65133900  0.50354200  1
  C  C3  1  0.49522000  0.50455000  0.36650100  1
  C  C4  1  0.50423300  0.49453500  0.63340300  1
  C  C5  1  0.43564200  0.54734600  0.24982400  1
  C  C6  1  0.56755400  0.45625600  0.75067200  1
  C  C7  1  0.43741500  0.54433400  0.17799300  1
  C  C8  1  0.56467200  0.45860000  0.82245700  1
  C  C9  1  0.49644700  0.50345800  0.14568900  1
  C  C10  1  0.50135100  0.49428600  0.85442800  1
  C  C11  1  0.55485400  0.46558600  0.18588800  1
  C  C12  1  0.43956900  0.52752700  0.81392400  1
  C  C13  1  0.55331000  0.46750700  0.25712100  1
  C  C14  1  0.44183100  0.52607700  0.74271100  1
  C  C15  1  0.49347900  0.50679400  0.29001100  1
  C  C16  1  0.50588300  0.49203300  0.71003400  1
  C  C17  1  0.49980700  0.49649900  0.93068900  1
  C  C18  1  0.49748400  0.50090300  0.06941900  1
  C  C19  1  0.48513000  0.26116900  0.49560500  1
  C  C20  1  0.51427200  0.73795600  0.50404600  1
  C  C21  1  0.55934300  0.22330600  0.50036300  1
  C  C22  1  0.44004700  0.77580300  0.49932800  1
  C  C23  1  0.55396500  0.14178900  0.50084500  1
  C  C24  1  0.44541400  0.85731900  0.49872500  1
  C  C25  1  0.47353400  0.09717700  0.49649300  1
  C  C26  1  0.52584900  0.90193600  0.50292000  1
  C  C27  1  0.39974400  0.13521300  0.49156300  1
  C  C28  1  0.59964400  0.86391100  0.50781000  1
  C  C29  1  0.40519300  0.21657200  0.49118300  1
  C  C30  1  0.59420700  0.78255500  0.50830300  1
  C  C31  1  0.75517100  0.46196700  0.46440900  1
  C  C32  1  0.24418500  0.53638300  0.53613800  1
  C  C33  1  0.84429900  0.46449000  0.46794800  1
  C  C34  1  0.15505000  0.53376200  0.53270000  1
  C  C35  1  0.89288600  0.51754500  0.51280200  1
  C  C36  1  0.10651600  0.48141600  0.48721100  1
  C  C37  1  0.85053800  0.56647300  0.55271500  1
  C  C38  1  0.14892200  0.43330100  0.44655600  1
  C  C39  1  0.76154900  0.56225200  0.54784700  1
  C  C40  1  0.23792500  0.43762900  0.45131200  1
  C  C41  1  0.37402600  0.59734700  0.28185700  1
  C  C42  1  0.63516500  0.41230100  0.71940100  1
  N  N1  1  0.55717700  0.46359200  0.03830000  1
  N  N2  1  0.44001200  0.53371500  0.96179600  1
  N  N3  1  0.55833500  0.46146800  0.96992900  1
  N  N4  1  0.43890900  0.53591000  0.03018500  1
  N  N5  1  0.46438700  0.01349300  0.49707000  1
  N  N6  1  0.53498800  0.98561700  0.50230100  1
  N  N7  1  0.71530300  0.51092500  0.50363300  1
  N  N8  1  0.28411800  0.48820500  0.49619100  1
  N  N9  1  0.98431300  0.52299300  0.51932300  1
  N  N10  1  0.01508500  0.47593900  0.48074400  1
  O  O1  1  0.41885700  0.38109600  0.49325100  1
  O  O2  1  0.58055300  0.61803900  0.50633600  1
  O  O3  1  0.56737700  0.38868700  0.50074800  1
  O  O4  1  0.43203000  0.61043600  0.49926200  1
  O  O5  1  0.42232800  0.50141100  0.39816000  1
  O  O6  1  0.57706600  0.49797200  0.60165100  1
  O  O7  1  0.57023200  0.50350000  0.40042500  1
  O  O8  1  0.42921200  0.49536500  0.59938800  1
  F  F1  1  0.30682500  0.54943000  0.30961000  1
  F  F2  1  0.33921100  0.64540000  0.23278900  1
  F  F3  1  0.41723400  0.64551600  0.33294300  1
  F  F4  1  0.59714300  0.36061500  0.66869200  1
  F  F5  1  0.67518700  0.36846600  0.76904800  1
  F  F6  1  0.69785700  0.46529300  0.69149000  1
