# Generated by REPEAT Assigner based on pymatgen
data_DB0-m3_o14_o20_f0_nbo.sym.55
_audit_creation_date              2022-05-24
_audit_creation_method            REPEAT_Assigner
_cell_length_a                    30.684698
_cell_length_b                    31.111214
_cell_length_c                    21.107188
_cell_angle_alpha                 90.000000
_cell_angle_beta                  43.380743
_cell_angle_gamma                 90.000000
_cell_volume                      13839.705294
_symmetry_space_group_name_H-M    P1
_symmetry_Int_Tables_number       1
loop_
    _symmetry_equiv_pos_site_id
    _symmetry_equiv_pos_as_xyz
    1  x,y,z
loop_
    _atom_site_type_symbol
    _atom_site_label
    _atom_site_fract_x
    _atom_site_fract_y
    _atom_site_fract_z
    _atom_type_partial_charge
    O   O1    0.322091  0.768775  0.503826  -0.667551
    O   O2    0.679006  0.232120  0.495572  -0.667535
    O   O3    0.677909  0.768775  0.496174  -0.667561
    O   O4    0.320994  0.232120  0.504428  -0.667517
    O   O5    0.822091  0.268775  0.503826  -0.667518
    O   O6    0.179006  0.732120  0.495572  -0.667517
    O   O7    0.177909  0.268775  0.496174  -0.667537
    O   O8    0.820994  0.732120  0.504428  -0.667492
    O   O9    0.261297  0.820452  0.518111  -0.668464
    O   O10   0.739655  0.180455  0.481525  -0.672168
    O   O11   0.738703  0.820452  0.481889  -0.668488
    O   O12   0.260345  0.180455  0.518474  -0.672128
    O   O13   0.761297  0.320452  0.518111  -0.668436
    O   O14   0.239655  0.680455  0.481525  -0.672144
    O   O15   0.238703  0.320452  0.481889  -0.668482
    O   O16   0.760345  0.680455  0.518474  -0.672113
    C   C1    0.303574  0.808688  0.515759  0.603609
    C   C2    0.697618  0.192205  0.483382  0.612835
    C   C3    0.696426  0.808688  0.484241  0.603630
    C   C4    0.302382  0.192205  0.516618  0.612780
    C   C5    0.803574  0.308688  0.515758  0.603560
    C   C6    0.197618  0.692205  0.483382  0.612824
    C   C7    0.196426  0.308688  0.484241  0.603605
    C   C8    0.802382  0.692205  0.516618  0.612735
    O   O17   0.350679  0.730694  0.358076  -0.664770
    O   O18   0.650299  0.270176  0.641482  -0.689194
    O   O19   0.649321  0.730694  0.641924  -0.664758
    O   O20   0.349701  0.270176  0.358518  -0.689274
    O   O21   0.850679  0.230694  0.358076  -0.664778
    O   O22   0.150299  0.770176  0.641482  -0.689221
    O   O23   0.149321  0.230694  0.641924  -0.664758
    O   O24   0.849701  0.770176  0.358518  -0.689278
    O   O25   0.290959  0.781333  0.367659  -0.680456
    O   O26   0.710047  0.219630  0.631944  -0.679678
    O   O27   0.709041  0.781333  0.632341  -0.680448
    O   O28   0.289953  0.219630  0.368056  -0.679734
    O   O29   0.790959  0.281333  0.367659  -0.680462
    O   O30   0.210047  0.719630  0.631944  -0.679707
    O   O31   0.209041  0.281333  0.632341  -0.680448
    O   O32   0.789953  0.719630  0.368056  -0.679737
    C   C9    0.342321  0.757965  0.320302  0.783250
    C   C10   0.658650  0.242989  0.679351  0.812784
    C   C11   0.657679  0.757965  0.679698  0.783268
    C   C12   0.341350  0.242989  0.320648  0.812891
    C   C13   0.842321  0.257965  0.320302  0.783295
    C   C14   0.158650  0.742989  0.679351  0.812788
    C   C15   0.157679  0.257965  0.679698  0.783269
    C   C16   0.841350  0.742989  0.320648  0.812908
    Zn  Zn1   0.288472  0.716202  0.493750  1.301194
    Zn  Zn2   0.712516  0.284702  0.505825  1.311821
    Zn  Zn3   0.711528  0.716202  0.506250  1.301185
    Zn  Zn4   0.287484  0.284702  0.494175  1.311855
    Zn  Zn5   0.788472  0.216202  0.493750  1.301176
    Zn  Zn6   0.212516  0.784702  0.505825  1.311830
    Zn  Zn7   0.211528  0.216202  0.506250  1.301179
    Zn  Zn8   0.787484  0.784702  0.494175  1.311847
    C   C17   0.391100  0.761284  0.221709  -0.116527
    C   C18   0.609799  0.239830  0.778066  -0.132358
    C   C19   0.608900  0.761284  0.778291  -0.116645
    C   C20   0.390202  0.239830  0.221934  -0.132385
    C   C21   0.891100  0.261284  0.221709  -0.116565
    C   C22   0.109799  0.739830  0.778066  -0.132327
    C   C23   0.108900  0.261284  0.778291  -0.116645
    C   C24   0.890202  0.739830  0.221934  -0.132401
    C   C25   0.431930  0.763111  0.138761  0.016250
    C   C26   0.568724  0.238194  0.861094  0.018665
    C   C27   0.568071  0.763111  0.861238  0.016476
    C   C28   0.431276  0.238194  0.138906  0.018707
    C   C29   0.931930  0.263111  0.138761  0.016280
    C   C30   0.068724  0.738194  0.861094  0.018650
    C   C31   0.068071  0.263111  0.861238  0.016472
    C   C32   0.931276  0.738194  0.138906  0.018720
    C   C33   0.479646  0.764142  0.041517  -0.005452
    C   C34   0.520560  0.237290  0.958448  -0.004643
    C   C35   0.520354  0.764142  0.958482  -0.005793
    C   C36   0.479441  0.237290  0.041552  -0.004717
    C   C37   0.979646  0.264142  0.041517  -0.005465
    C   C38   0.020560  0.737290  0.958448  -0.004636
    C   C39   0.020354  0.264142  0.958482  -0.005785
    C   C40   0.979441  0.737290  0.041552  -0.004727
    H   H1    0.425756  0.822214  0.397910  0.165408
    H   H2    0.575459  0.181821  0.595752  0.168693
    H   H3    0.574244  0.822214  0.602090  0.165411
    H   H4    0.424541  0.181821  0.404248  0.168681
    H   H5    0.925756  0.322214  0.397910  0.165389
    H   H6    0.075459  0.681821  0.595752  0.168689
    H   H7    0.074244  0.322214  0.602090  0.165451
    H   H8    0.924541  0.681821  0.404248  0.168665
    C   C41   0.232188  0.866574  0.670561  -0.477725
    C   C42   0.769115  0.130471  0.333467  -0.514378
    C   C43   0.767812  0.866574  0.329439  -0.477507
    C   C44   0.230885  0.130471  0.666532  -0.514635
    C   C45   0.732188  0.366574  0.670561  -0.477605
    C   C46   0.269115  0.630471  0.333467  -0.514624
    C   C47   0.267812  0.366574  0.329438  -0.477538
    C   C48   0.730885  0.630471  0.666532  -0.514635
    H   H9    0.207385  0.839879  0.675608  0.222850
    H   H10   0.794633  0.157002  0.327232  0.226490
    H   H11   0.792615  0.839879  0.324392  0.222764
    H   H12   0.205367  0.157002  0.672768  0.226540
    H   H13   0.707385  0.339879  0.675608  0.222812
    H   H14   0.294633  0.657002  0.327232  0.226542
    H   H15   0.292615  0.339879  0.324392  0.222761
    H   H16   0.705367  0.657002  0.672768  0.226548
    C   C49   0.196078  0.895878  0.741643  0.511128
    C   C50   0.804619  0.099129  0.266258  0.467968
    C   C51   0.803922  0.895878  0.258356  0.510848
    C   C52   0.195381  0.099129  0.733741  0.468389
    C   C53   0.696078  0.395878  0.741643  0.510959
    C   C54   0.304619  0.599129  0.266258  0.468409
    C   C55   0.303922  0.395878  0.258356  0.510918
    C   C56   0.695381  0.599129  0.733741  0.468377
    C   C57   0.225768  0.930231  0.739100  -0.171351
    C   C58   0.773596  0.064668  0.271645  -0.157892
    C   C59   0.774232  0.930231  0.260900  -0.171181
    C   C60   0.226404  0.064667  0.728355  -0.158177
    C   C61   0.725768  0.430231  0.739099  -0.171261
    C   C62   0.273596  0.564668  0.271645  -0.158184
    C   C63   0.274232  0.430231  0.260900  -0.171220
    C   C64   0.726404  0.564668  0.728355  -0.158130
    H   H17   0.199779  0.953948  0.793349  0.131148
    H   H18   0.798428  0.038908  0.221847  0.108935
    H   H19   0.800221  0.953948  0.206651  0.131121
    H   H20   0.201572  0.038908  0.778153  0.109005
    H   H21   0.699779  0.453948  0.793349  0.131161
    H   H22   0.298428  0.538908  0.221847  0.108996
    H   H23   0.300221  0.453948  0.206651  0.131118
    H   H24   0.701572  0.538908  0.778153  0.108963
    C   C65   0.290693  0.934391  0.667398  -0.307044
    C   C66   0.708392  0.062848  0.340833  -0.304176
    C   C67   0.709307  0.934391  0.332602  -0.307122
    C   C68   0.291609  0.062848  0.659167  -0.304011
    C   C69   0.790693  0.434391  0.667398  -0.307095
    C   C70   0.208392  0.562848  0.340833  -0.304016
    C   C71   0.209307  0.434391  0.332602  -0.307019
    C   C72   0.791609  0.562848  0.659167  -0.304002
    H   H25   0.310546  0.962001  0.669371  0.180654
    H   H26   0.687244  0.035182  0.341487  0.186572
    H   H27   0.689454  0.962001  0.330629  0.180650
    H   H28   0.312756  0.035182  0.658512  0.186560
    H   H29   0.810546  0.462001  0.669371  0.180724
    H   H30   0.187244  0.535182  0.341487  0.186567
    H   H31   0.189454  0.462001  0.330629  0.180617
    H   H32   0.812756  0.535182  0.658512  0.186517
    C   C73   0.327873  0.904379  0.596523  0.101466
    C   C74   0.672232  0.095006  0.406784  0.090880
    C   C75   0.672127  0.904379  0.403477  0.101536
    C   C76   0.327768  0.095006  0.593215  0.090571
    C   C77   0.827873  0.404379  0.596523  0.101404
    C   C78   0.172232  0.595006  0.406784  0.090694
    C   C79   0.172127  0.404379  0.403477  0.101380
    C   C80   0.827768  0.595006  0.593216  0.090572
    C   C81   0.297627  0.871035  0.596605  0.113915
    C   C82   0.703265  0.128139  0.405483  0.164062
    C   C83   0.702373  0.871035  0.403395  0.113816
    C   C84   0.296735  0.128139  0.594516  0.164288
    C   C85   0.797627  0.371035  0.596605  0.113945
    C   C86   0.203265  0.628139  0.405483  0.164208
    C   C87   0.202373  0.371035  0.403395  0.113858
    C   C88   0.796735  0.628139  0.594516  0.164277
    C   C89   0.333099  0.841916  0.523787  0.107575
    C   C90   0.668094  0.159009  0.475151  0.068511
    C   C91   0.666901  0.841916  0.476213  0.107607
    C   C92   0.331906  0.159009  0.524848  0.068425
    C   C93   0.833099  0.341916  0.523787  0.107522
    C   C94   0.168094  0.659009  0.475151  0.068456
    C   C95   0.166901  0.341916  0.476213  0.107662
    C   C96   0.831906  0.659009  0.524848  0.068439
    C   C97   0.398122  0.844884  0.454398  -0.219107
    C   C98   0.602918  0.157899  0.541691  -0.207383
    C   C99   0.601878  0.844884  0.545602  -0.219122
    C   C100  0.397082  0.157899  0.458308  -0.207201
    C   C101  0.898122  0.344884  0.454398  -0.219045
    C   C102  0.102918  0.657899  0.541692  -0.207336
    C   C103  0.101878  0.344884  0.545602  -0.219293
    C   C104  0.897082  0.657899  0.458308  -0.207165
    H   H33   0.479454  0.879203  0.398340  0.161433
    H   H34   0.520891  0.125211  0.596017  0.161362
    H   H35   0.520546  0.879203  0.601659  0.161434
    H   H36   0.479110  0.125211  0.403982  0.161456
    H   H37   0.979454  0.379203  0.398340  0.161439
    H   H38   0.020890  0.625211  0.596017  0.161369
    H   H39   0.020546  0.379203  0.601659  0.161376
    H   H40   0.979110  0.625211  0.403982  0.161498
    C   C105  0.428269  0.877520  0.454244  -0.192392
    C   C106  0.572169  0.125543  0.542413  -0.208266
    C   C107  0.571731  0.877520  0.545756  -0.192388
    C   C108  0.427831  0.125543  0.457586  -0.208651
    C   C109  0.928269  0.377520  0.454244  -0.192435
    C   C110  0.072169  0.625543  0.542413  -0.208333
    C   C111  0.071731  0.377520  0.545756  -0.192220
    C   C112  0.927831  0.625543  0.457586  -0.208731
    C   C113  0.394217  0.907545  0.524294  0.010143
    C   C114  0.605862  0.093918  0.475799  0.013352
    C   C115  0.605783  0.907545  0.475706  0.010127
    C   C116  0.394138  0.093918  0.524200  0.013726
    C   C117  0.894217  0.407545  0.524294  0.010204
    C   C118  0.105862  0.593918  0.475799  0.013468
    C   C119  0.105783  0.407545  0.475706  0.010182
    C   C120  0.894138  0.593918  0.524200  0.013746
    O   O33   0.981655  0.545581  0.433317  -0.679960
    O   O34   0.018549  0.456302  0.566517  -0.683650
    O   O35   0.018345  0.545581  0.566683  -0.679963
    O   O36   0.981451  0.456302  0.433483  -0.683707
    O   O37   0.481655  0.045581  0.433316  -0.679958
    O   O38   0.518549  0.956302  0.566517  -0.683730
    O   O39   0.518345  0.045581  0.566683  -0.680000
    O   O40   0.481451  0.956302  0.433483  -0.683735
    O   O41   0.915342  0.546826  0.590108  -0.697893
    O   O42   0.084465  0.454803  0.409992  -0.690796
    O   O43   0.084658  0.546826  0.409892  -0.697896
    O   O44   0.915535  0.454803  0.590007  -0.690875
    O   O45   0.415342  0.046826  0.590108  -0.697881
    O   O46   0.584465  0.954803  0.409992  -0.690838
    O   O47   0.584658  0.046826  0.409892  -0.697905
    O   O48   0.415535  0.954803  0.590007  -0.690864
    C   C121  0.931413  0.560040  0.516220  0.699734
    C   C122  0.068709  0.441697  0.483636  0.693006
    C   C123  0.068587  0.560040  0.483780  0.699762
    C   C124  0.931291  0.441697  0.516364  0.693067
    C   C125  0.431413  0.060040  0.516220  0.699700
    C   C126  0.568709  0.941697  0.483636  0.693081
    C   C127  0.568588  0.060040  0.483780  0.699839
    C   C128  0.431291  0.941697  0.516364  0.693101
    Zn  Zn9   0.044728  0.500874  0.396816  1.293960
    Zn  Zn10  0.955272  0.500874  0.603184  1.293969
    Zn  Zn11  0.544728  0.000874  0.396816  1.293994
    Zn  Zn12  0.455272  0.000874  0.603184  1.294022
    N   N1    0.129565  0.889451  0.815529  -0.373631
    C   C129  0.091845  0.928015  0.859026  -0.196702
    C   C130  0.112481  0.858632  0.881478  -0.097069
    H   H41   0.109194  0.951888  0.805711  0.091039
    H   H42   0.093259  0.941585  0.906095  0.057555
    H   H43   0.041805  0.920189  0.900414  0.113144
    H   H44   0.137479  0.827834  0.846399  0.061472
    H   H45   0.060624  0.852770  0.934882  0.108205
    H   H46   0.125939  0.871076  0.914624  0.034477
    N   N2    0.871797  0.103150  0.195100  -0.298434
    C   C131  0.893545  0.139677  0.136248  0.074791
    C   C132  0.907772  0.064736  0.144053  -0.277657
    H   H47   0.853939  0.153164  0.149788  -0.001235
    H   H48   0.932129  0.129957  0.062759  0.047255
    H   H49   0.911815  0.164537  0.149853  0.006570
    H   H50   0.891218  0.038123  0.192378  0.099595
    H   H51   0.958546  0.070674  0.101196  0.134017
    H   H52   0.903530  0.055719  0.097840  0.067819
    N   N3    0.870435  0.889451  0.184471  -0.373461
    C   C133  0.908155  0.928016  0.140974  -0.197028
    C   C134  0.887519  0.858633  0.118521  -0.096856
    H   H53   0.890806  0.951888  0.194290  0.091150
    H   H54   0.906741  0.941585  0.093905  0.057630
    H   H55   0.958195  0.920190  0.099586  0.113200
    H   H56   0.862521  0.827835  0.153601  0.061370
    H   H57   0.939376  0.852770  0.065118  0.108236
    H   H58   0.874061  0.871077  0.085376  0.034407
    N   N4    0.128203  0.103150  0.804899  -0.298536
    C   C135  0.106456  0.139677  0.863752  0.074778
    C   C136  0.092229  0.064736  0.855946  -0.278253
    H   H59   0.146061  0.153164  0.850212  -0.001233
    H   H60   0.067871  0.129957  0.937240  0.047276
    H   H61   0.088185  0.164537  0.850146  0.006612
    H   H62   0.108782  0.038123  0.807622  0.099811
    H   H63   0.041455  0.070674  0.898804  0.134142
    H   H64   0.096471  0.055719  0.902159  0.067971
    N   N5    0.629565  0.389451  0.815529  -0.373597
    C   C137  0.591845  0.428016  0.859026  -0.196750
    C   C138  0.612481  0.358633  0.881478  -0.096981
    H   H65   0.609194  0.451888  0.805710  0.091068
    H   H66   0.593259  0.441585  0.906095  0.057558
    H   H67   0.541805  0.420190  0.900414  0.113148
    H   H68   0.637479  0.327834  0.846399  0.061450
    H   H69   0.560624  0.352770  0.934882  0.108177
    H   H70   0.625939  0.371076  0.914624  0.034452
    N   N6    0.371797  0.603150  0.195100  -0.298524
    C   C139  0.393545  0.639677  0.136248  0.074696
    C   C140  0.407772  0.564736  0.144053  -0.278250
    H   H71   0.353939  0.653164  0.149788  -0.001222
    H   H72   0.432129  0.629957  0.062759  0.047306
    H   H73   0.411815  0.664537  0.149853  0.006626
    H   H74   0.391218  0.538123  0.192378  0.099801
    H   H75   0.458546  0.570674  0.101196  0.134151
    H   H76   0.403530  0.555719  0.097841  0.067988
    N   N7    0.370435  0.389451  0.184471  -0.373535
    C   C141  0.408155  0.428016  0.140974  -0.196857
    C   C142  0.387519  0.358633  0.118521  -0.096813
    H   H77   0.390806  0.451888  0.194289  0.091072
    H   H78   0.406741  0.441585  0.093905  0.057590
    H   H79   0.458195  0.420190  0.099586  0.113180
    H   H80   0.362521  0.327834  0.153601  0.061364
    H   H81   0.439376  0.352770  0.065117  0.108220
    H   H82   0.374061  0.371076  0.085376  0.034394
    N   N8    0.628203  0.603150  0.804899  -0.298529
    C   C143  0.606456  0.639677  0.863752  0.074695
    C   C144  0.592229  0.564736  0.855947  -0.278214
    H   H83   0.646061  0.653164  0.850212  -0.001211
    H   H84   0.567871  0.629957  0.937240  0.047306
    H   H85   0.588185  0.664537  0.850146  0.006625
    H   H86   0.608782  0.538123  0.807622  0.099781
    H   H87   0.541455  0.570674  0.898804  0.134138
    H   H88   0.596471  0.555719  0.902159  0.067984
