# generated using pymatgen
data_ZnH9C12NClO4
_symmetry_space_group_name_H-M   'P 1'
_cell_length_a   8.52791400
_cell_length_b   9.14845100
_cell_length_c   11.14445700
_cell_angle_alpha   90.00000000
_cell_angle_beta   106.92864000
_cell_angle_gamma   90.00000000
_symmetry_Int_Tables_number   1
_chemical_formula_structural   ZnH9C12NClO4
_chemical_formula_sum   'Zn2 H18 C24 N2 Cl2 O8'
_cell_volume   831.78408821
_cell_formula_units_Z   2
loop_
 _symmetry_equiv_pos_site_id
 _symmetry_equiv_pos_as_xyz
  1  'x, y, z'
loop_
 _atom_site_type_symbol
 _atom_site_label
 _atom_site_symmetry_multiplicity
 _atom_site_fract_x
 _atom_site_fract_y
 _atom_site_fract_z
 _atom_site_occupancy
  Zn  Zn1  1  0.00180600  0.83606900  0.49675500  1
  Zn  Zn2  1  0.99841900  0.16943100  0.50190600  1
  H  H1  1  0.28570500  0.90196400  0.97121900  1
  H  H2  1  0.94329000  0.96541800  0.11337200  1
  H  H3  1  0.05719700  0.04023800  0.88579500  1
  H  H4  1  0.71467500  0.10371300  0.02783500  1
  H  H5  1  0.46363000  0.06648600  0.40861800  1
  H  H6  1  0.57868500  0.90282400  0.08918000  1
  H  H7  1  0.53696200  0.93899700  0.59051200  1
  H  H8  1  0.42170900  0.10285400  0.90982900  1
  H  H9  1  0.14978000  0.63915500  0.68607900  1
  H  H10  1  0.09066400  0.40067200  0.69800200  1
  H  H11  1  0.25528400  0.60727600  0.56907100  1
  H  H12  1  0.24388200  0.37641000  0.61603800  1
  H  H13  1  0.86933600  0.60610700  0.62791700  1
  H  H14  1  0.79628800  0.37573700  0.57956900  1
  H  H15  1  0.11130000  0.62386800  0.35052000  1
  H  H16  1  0.16207200  0.39459000  0.39735500  1
  H  H17  1  0.74427700  0.64416100  0.47117300  1
  H  H18  1  0.74547100  0.40464000  0.41320400  1
  C  C1  1  0.42535400  0.03426600  0.31136000  1
  C  C2  1  0.26189500  0.01173600  0.25206600  1
  C  C3  1  0.20751100  0.97931600  0.12605000  1
  C  C4  1  0.32367600  0.94148400  0.06669000  1
  C  C5  1  0.48972900  0.94380100  0.13255300  1
  C  C6  1  0.54126600  0.99976100  0.25309700  1
  C  C7  1  0.02925000  0.98451900  0.06023500  1
  C  C8  1  0.97123900  0.02112200  0.93893300  1
  C  C9  1  0.73868200  0.99374500  0.74710900  1
  C  C10  1  0.57517400  0.97126200  0.68775800  1
  C  C11  1  0.45914300  0.00580600  0.74594400  1
  C  C12  1  0.51067500  0.06184800  0.86647000  1
  C  C13  1  0.67674100  0.06415100  0.93237700  1
  C  C14  1  0.79297600  0.02624800  0.87309700  1
  C  C15  1  0.15296900  0.00739200  0.32975300  1
  C  C16  1  0.28664300  0.00366600  0.66934600  1
  C  C17  1  0.84768500  0.99816900  0.66945200  1
  C  C18  1  0.71370300  0.00175900  0.32962100  1
  C  C19  1  0.14105500  0.58644800  0.59478000  1
  C  C20  1  0.12231900  0.42300400  0.61003300  1
  C  C21  1  0.85668600  0.58791000  0.52724400  1
  C  C22  1  0.83919900  0.42464500  0.50399300  1
  C  C23  1  0.00671000  0.58000100  0.37887800  1
  C  C24  1  0.03208300  0.41672700  0.39094700  1
  N  N1  1  0.00158900  0.64340000  0.49770900  1
  N  N2  1  0.99617200  0.36223800  0.50332800  1
  Cl  Cl1  1  0.82188300  0.61652600  0.25842700  1
  Cl  Cl2  1  0.90263800  0.33526700  0.25178000  1
  O  O1  1  0.11747600  0.13176900  0.37349600  1
  O  O2  1  0.11741000  0.87819200  0.36676900  1
  O  O3  1  0.21980400  0.87829200  0.62489200  1
  O  O4  1  0.21503000  0.12870700  0.63190900  1
  O  O5  1  0.88439000  0.87303200  0.62674100  1
  O  O6  1  0.88325100  0.12806600  0.63273700  1
  O  O7  1  0.78031300  0.12717200  0.37435600  1
  O  O8  1  0.78445100  0.87657100  0.36804100  1
