# Generated by REPEAT Assigner based on pymatgen
data_DB0-m2_o8_o25_f0_pcu.sym.107_sqe
_audit_creation_date              2022-05-24
_audit_creation_method            REPEAT_Assigner
_cell_length_a                    15.576704
_cell_length_b                    15.946480
_cell_length_c                    17.087125
_cell_angle_alpha                 90.003827
_cell_angle_beta                  96.338757
_cell_angle_gamma                 92.759024
_cell_volume                      4213.433057
_symmetry_space_group_name_H-M    P1
_symmetry_Int_Tables_number       1
loop_
    _symmetry_equiv_pos_site_id
    _symmetry_equiv_pos_as_xyz
    1  x,y,z
loop_
    _atom_site_type_symbol
    _atom_site_label
    _atom_site_fract_x
    _atom_site_fract_y
    _atom_site_fract_z
    _atom_type_partial_charge
    O   O1   0.580624  0.496350  0.617894  -0.642226
    O   O2   0.418726  0.502342  0.381236  -0.543677
    O   O3   0.432668  0.498615  0.609726  -0.637851
    O   O4   0.566689  0.500151  0.389392  -0.645568
    C   C1   0.508361  0.495652  0.651032  0.883046
    C   C2   0.490978  0.503079  0.348096  0.787470
    O   O5   0.576514  0.623101  0.508563  -0.646833
    O   O6   0.422855  0.375620  0.490619  -0.640797
    O   O7   0.427740  0.619509  0.494818  -0.647778
    O   O8   0.571628  0.379218  0.504298  -0.645995
    C   C3   0.503011  0.660411  0.502359  0.901134
    C   C4   0.496354  0.338307  0.496888  0.889189
    Cu  Cu1  0.585983  0.501523  0.504234  0.919789
    Cu  Cu2  0.413375  0.497204  0.494893  0.814414
    C   C5   0.542509  0.030852  0.565030  -0.055227
    C   C6   0.456892  0.967874  0.435716  0.018038
    C   C7   0.464155  0.970272  0.561729  0.010576
    C   C8   0.535196  0.028411  0.439013  -0.098546
    C   C9   0.504553  0.750439  0.502882  -0.348700
    C   C10  0.494821  0.248273  0.496932  -0.344279
    C   C11  0.580468  0.977918  0.505029  0.006932
    C   C12  0.418906  0.020785  0.495771  -0.067939
    C   C13  0.502158  0.917593  0.501703  0.279771
    C   C14  0.497220  0.081117  0.499034  0.365168
    C   C15  0.504160  0.825964  0.502670  0.067836
    C   C16  0.495217  0.172746  0.497654  0.053844
    C   C17  0.512827  0.494908  0.737883  -0.394377
    C   C18  0.486459  0.503811  0.261254  -0.346651
    C   C19  0.446171  0.460032  0.777800  0.188294
    C   C20  0.552798  0.539287  0.221333  0.176152
    C   C21  0.452225  0.466514  0.859323  -0.087661
    C   C22  0.546861  0.532743  0.139823  -0.068511
    C   C23  0.524685  0.505123  0.901541  0.055187
    C   C24  0.474734  0.493547  0.097618  0.028541
    C   C25  0.591966  0.536263  0.862039  0.015359
    C   C26  0.407663  0.461888  0.137122  0.045144
    C   C27  0.585734  0.531178  0.780639  -0.058083
    C   C28  0.413838  0.466981  0.218522  -0.066414
    N   N1   0.532141  0.513509  0.984749  -0.083996
    N   N2   0.467336  0.485161  0.014414  -0.078877
    H   H1   0.599539  0.557998  0.109680  0.007244
    H   H2   0.399345  0.441751  0.889473  0.006302
    H   H3   0.636780  0.557647  0.749039  0.123889
    H   H4   0.362996  0.440127  0.250151  0.103858
    N   N3   0.284282  0.493557  0.488404  -0.095042
    N   N4   0.715079  0.505175  0.510722  -0.055605
    C   C29  0.248336  0.537980  0.542284  0.055417
    C   C30  0.751114  0.461045  0.456687  -0.050792
    C   C31  0.160158  0.530573  0.548155  -0.145861
    C   C32  0.839331  0.468545  0.450952  -0.017519
    C   C33  0.108537  0.477578  0.495534  0.303356
    C   C34  0.890860  0.521305  0.503845  0.230761
    C   C35  0.147712  0.430571  0.443133  -0.250661
    C   C36  0.851601  0.568041  0.556387  -0.168168
    C   C37  0.235803  0.438538  0.440612  0.002923
    C   C38  0.763484  0.560034  0.558750  -0.066621
    N   N5   0.017883  0.465990  0.496164  -0.232623
    N   N6   0.981522  0.532951  0.503299  -0.211058
    H   H5   0.709393  0.420036  0.417357  0.161403
    H   H6   0.290110  0.579117  0.581445  0.182080
    H   H7   0.108943  0.387034  0.403794  0.129267
    H   H8   0.890314  0.611376  0.595970  0.102675
    H   H9   0.265814  0.400420  0.400012  0.153728
    H   H10  0.733393  0.597970  0.599442  0.172606
    C   C39  0.424828  0.935621  0.632986  0.135423
    O   O9   0.354444  0.880922  0.608617  -0.580583
    H   H11  0.402939  0.988068  0.667212  -0.011543
    H   H12  0.473926  0.901429  0.670747  0.026517
    H   H13  0.305263  0.904701  0.631632  0.391124
    C   C40  0.577145  0.063150  0.369183  0.233016
    O   O10  0.517273  0.106996  0.320460  -0.628291
    H   H14  0.599962  0.010704  0.335578  -0.031452
    H   H15  0.633084  0.106037  0.390210  0.005866
    H   H16  0.514010  0.078129  0.268857  0.395403
    C   C41  0.590347  0.068335  0.639890  0.196412
    O   O11  0.658325  0.122094  0.621347  -0.607080
    H   H17  0.616356  0.017279  0.678217  -0.022803
    H   H18  0.545335  0.103959  0.671578  0.019313
    H   H19  0.710506  0.099120  0.650320  0.383730
    C   C42  0.406632  0.930261  0.362029  0.164572
    O   O12  0.461281  0.884528  0.320856  -0.570297
    H   H20  0.379744  0.981277  0.324155  -0.015324
    H   H21  0.352811  0.888179  0.378440  0.012724
    H   H22  0.458399  0.911125  0.268352  0.379344
    C   C43  0.326081  0.046645  0.489200  0.218203
    O   O13  0.313688  0.095816  0.554090  -0.612822
    H   H23  0.281993  0.989811  0.487252  -0.028588
    H   H24  0.311610  0.083152  0.434499  0.003080
    H   H25  0.267804  0.064563  0.579377  0.382296
    C   C44  0.673140  0.951975  0.509180  0.196975
    O   O14  0.693200  0.905369  0.577203  -0.603087
    H   H26  0.717197  0.008779  0.510298  -0.026629
    H   H27  0.681396  0.913382  0.456798  0.003200
    H   H28  0.742412  0.937547  0.606564  0.387054
    C   C45  0.629213  0.586832  0.264853  0.195492
    O   O15  0.674718  0.635089  0.213686  -0.559756
    H   H29  0.673631  0.541965  0.295303  0.043654
    H   H30  0.606834  0.629934  0.308492  0.044508
    H   H31  0.734257  0.615187  0.221951  0.341628
    C   C46  0.369219  0.413261  0.734274  0.285183
    O   O16  0.322858  0.365915  0.785454  -0.570847
    H   H32  0.391095  0.369597  0.690838  0.026945
    H   H33  0.325535  0.458575  0.703560  -0.054928
    H   H34  0.263932  0.387349  0.777647  0.340040
    C   C47  0.669969  0.576475  0.909067  0.316676
    O   O17  0.732131  0.603316  0.860618  -0.595283
    H   H35  0.698703  0.530414  0.951714  -0.044151
    H   H36  0.650810  0.631267  0.941966  0.019323
    H   H37  0.779147  0.563923  0.871614  0.354061
    C   C48  0.329954  0.421158  0.090085  0.296923
    O   O18  0.268188  0.393420  0.138576  -0.581902
    H   H38  0.349893  0.366609  0.057338  -0.031735
    H   H39  0.300607  0.466819  0.047358  0.002700
    H   H40  0.264069  0.331672  0.131624  0.352345
    C   C49  0.875349  0.425478  0.384351  0.330910
    O   O19  0.809790  0.401569  0.325219  -0.633471
    H   H41  0.908366  0.368700  0.406557  -0.056913
    H   H42  0.922041  0.468885  0.358240  0.071566
    H   H43  0.814569  0.340238  0.319512  0.384874
    C   C50  0.124342  0.573985  0.614665  0.339285
    O   O20  0.189950  0.597635  0.673844  -0.613088
    H   H44  0.077645  0.530649  0.640824  0.032630
    H   H45  0.091222  0.630778  0.592649  0.006445
    H   H46  0.185799  0.554259  0.714886  0.363678
