# Generated by REPEAT Assigner based on pymatgen
data_DB0-m3_o41_o41_f0_fof.sym.17_sqe
_audit_creation_date              2022-05-24
_audit_creation_method            REPEAT_Assigner
_cell_length_a                    17.185591
_cell_length_b                    16.877782
_cell_length_c                    16.842827
_cell_angle_alpha                 67.340173
_cell_angle_beta                  67.148457
_cell_angle_gamma                 67.198456
_cell_volume                      3988.480769
_symmetry_space_group_name_H-M    P1
_symmetry_Int_Tables_number       1
loop_
    _symmetry_equiv_pos_site_id
    _symmetry_equiv_pos_as_xyz
    1  x,y,z
loop_
    _atom_site_type_symbol
    _atom_site_label
    _atom_site_fract_x
    _atom_site_fract_y
    _atom_site_fract_z
    _atom_type_partial_charge
    O   O1    0.977610  0.135186  0.520987  -0.596774
    O   O2    0.022390  0.864814  0.479013  -0.596763
    O   O3    0.130518  0.519775  0.987213  -0.623276
    O   O4    0.869482  0.480225  0.012786  -0.623303
    O   O5    0.514697  0.983544  0.136051  -0.603937
    O   O6    0.485303  0.016455  0.863949  -0.603906
    O   O7    0.485427  0.864449  0.015501  -0.605785
    O   O8    0.514573  0.135550  0.984499  -0.605807
    O   O9    0.022708  0.479665  0.864246  -0.595661
    O   O10   0.977292  0.520334  0.135754  -0.595795
    O   O11   0.869569  0.013371  0.479487  -0.621556
    O   O12   0.130431  0.986628  0.520513  -0.621523
    C   C1    0.322388  0.966483  0.456183  -0.157960
    C   C2    0.677612  0.033516  0.543817  -0.157850
    C   C3    0.951823  0.457144  0.329087  -0.101440
    C   C4    0.048177  0.542855  0.670913  -0.101051
    C   C5    0.450891  0.328371  0.958740  -0.114023
    C   C6    0.549109  0.671628  0.041260  -0.114088
    C   C7    0.548933  0.042729  0.670932  -0.100986
    C   C8    0.451067  0.957270  0.329068  -0.101059
    C   C9    0.677586  0.544569  0.032908  -0.156792
    C   C10   0.322414  0.455431  0.967092  -0.156706
    C   C11   0.047412  0.671597  0.542261  -0.105762
    C   C12   0.952588  0.328403  0.457739  -0.106049
    O   O13   0.865074  0.021520  0.612988  -0.664718
    O   O14   0.134926  0.978480  0.387011  -0.664707
    O   O15   0.028271  0.612567  0.863458  -0.652572
    O   O16   0.971729  0.387432  0.136542  -0.652587
    O   O17   0.613322  0.864973  0.026194  -0.668368
    O   O18   0.386678  0.135027  0.973806  -0.668365
    O   O19   0.386803  0.972958  0.135388  -0.666675
    O   O20   0.613197  0.027042  0.864612  -0.666657
    O   O21   0.134692  0.386896  0.978549  -0.667407
    O   O22   0.865308  0.613103  0.021451  -0.667400
    O   O23   0.972458  0.136424  0.387462  -0.651743
    O   O24   0.027542  0.863576  0.612538  -0.651735
    H   H1    0.275914  0.965443  0.278966  0.153640
    H   H2    0.724086  0.034557  0.721033  0.153631
    H   H3    0.954166  0.280067  0.280443  0.146899
    H   H4    0.045834  0.719933  0.719557  0.146911
    H   H5    0.275669  0.278383  0.966750  0.153863
    H   H6    0.724331  0.721617  0.033250  0.153864
    C   C13   0.965781  0.179025  0.441617  0.617716
    C   C14   0.034219  0.820975  0.558383  0.617718
    C   C15   0.175147  0.440119  0.976282  0.618547
    C   C16   0.824853  0.559881  0.023718  0.618549
    C   C17   0.437145  0.970030  0.179081  0.627022
    C   C18   0.562855  0.029970  0.820919  0.626985
    C   C19   0.563046  0.821425  0.028782  0.626828
    C   C20   0.436954  0.178575  0.971217  0.626827
    C   C21   0.034889  0.558772  0.820534  0.617858
    C   C22   0.965111  0.441228  0.179466  0.618032
    C   C23   0.824802  0.024167  0.559344  0.615210
    C   C24   0.175198  0.975833  0.440656  0.615124
    C   C25   0.409161  0.968967  0.414192  0.150148
    C   C26   0.590839  0.031033  0.585808  0.150060
    C   C27   0.960472  0.414459  0.415006  0.123476
    C   C28   0.039528  0.585540  0.584994  0.122901
    C   C29   0.409074  0.413548  0.969907  0.155932
    C   C30   0.590926  0.586451  0.030092  0.156065
    C   C31   0.272553  0.964809  0.407297  0.068168
    C   C32   0.727447  0.035191  0.592703  0.068079
    C   C33   0.951204  0.408015  0.278579  0.041678
    C   C34   0.048796  0.591985  0.721421  0.041589
    C   C35   0.402061  0.277394  0.960313  0.046575
    C   C36   0.597939  0.722606  0.039687  0.046595
    C   C37   0.597743  0.041157  0.721921  0.042229
    C   C38   0.402257  0.958842  0.278079  0.042233
    C   C39   0.727503  0.593437  0.034379  0.067401
    C   C40   0.272497  0.406563  0.965621  0.067344
    C   C41   0.048201  0.722037  0.591421  0.043057
    C   C42   0.951799  0.277963  0.408579  0.043149
    Zn  Zn1   0.998507  0.000565  0.589483  1.217599
    Zn  Zn2   0.001493  0.999435  0.410517  1.217611
    Zn  Zn3   0.998772  0.589062  0.000898  1.219019
    Zn  Zn4   0.001228  0.410938  0.999102  1.218989
    Zn  Zn5   0.585762  0.002016  0.002082  1.217047
    Zn  Zn6   0.414238  0.997984  0.997918  1.217034
    C   C43   0.458646  0.055792  0.702527  0.011536
    C   C44   0.541354  0.944208  0.297473  0.011576
    C   C45   0.053760  0.704286  0.451356  0.052813
    C   C46   0.946240  0.295714  0.548644  0.052947
    C   C47   0.710586  0.454609  0.034929  0.079984
    C   C48   0.289414  0.545390  0.965071  0.079909
    C   C49   0.289205  0.965084  0.546197  0.085324
    C   C50   0.710795  0.034916  0.453803  0.085268
    C   C51   0.541139  0.296840  0.945991  0.023989
    C   C52   0.458861  0.703160  0.054009  0.024027
    C   C53   0.944672  0.548004  0.296472  0.046336
    C   C54   0.055328  0.451995  0.703528  0.046141
    C   C55   0.313986  0.962295  0.318620  -0.204570
    C   C56   0.686014  0.037705  0.681380  -0.204530
    C   C57   0.951348  0.319170  0.319701  -0.202872
    C   C58   0.048651  0.680830  0.680299  -0.202811
    C   C59   0.313819  0.317936  0.963537  -0.204744
    C   C60   0.686181  0.682064  0.036463  -0.204756
    C   C61   0.668433  0.013539  0.413471  -0.190502
    C   C62   0.331566  0.986461  0.586528  -0.190529
    C   C63   0.028961  0.411729  0.665182  -0.161585
    C   C64   0.971039  0.588271  0.334818  -0.161682
    C   C65   0.416125  0.664521  0.031459  -0.123652
    C   C66   0.583875  0.335479  0.968541  -0.123600
    C   C67   0.584081  0.967258  0.335694  -0.112722
    C   C68   0.415919  0.032742  0.664306  -0.112697
    C   C69   0.331711  0.585957  0.986203  -0.182238
    C   C70   0.668289  0.414043  0.013797  -0.182288
    C   C71   0.972296  0.334569  0.588722  -0.167303
    C   C72   0.027703  0.665431  0.411278  -0.167241
    C   C73   0.710134  0.000234  0.328940  0.291936
    C   C74   0.289866  0.999766  0.671060  0.291929
    C   C75   0.017131  0.327350  0.709630  0.289766
    C   C76   0.982869  0.672650  0.290370  0.289729
    C   C77   0.331197  0.708407  0.025089  0.275941
    C   C78   0.668803  0.291593  0.974911  0.275919
    C   C79   0.668995  0.973666  0.291431  0.270921
    C   C80   0.331005  0.026333  0.708569  0.270930
    C   C81   0.290016  0.670462  0.999081  0.287013
    C   C82   0.709984  0.329538  0.000919  0.287023
    C   C83   0.984318  0.290576  0.673231  0.293822
    C   C84   0.015681  0.709424  0.326769  0.293851
    H   H7    0.419468  0.086572  0.755814  0.071309
    H   H8    0.580532  0.913428  0.244186  0.071308
    H   H9    0.080743  0.759123  0.409598  0.049402
    H   H10   0.919257  0.240877  0.590401  0.049394
    H   H11   0.767961  0.412868  0.055921  0.060512
    H   H12   0.232039  0.587132  0.944079  0.060538
    H   H13   0.231572  0.944566  0.588129  0.058044
    H   H14   0.768428  0.055434  0.411871  0.058059
    H   H15   0.580402  0.243416  0.915574  0.069654
    H   H16   0.419598  0.756584  0.084426  0.069652
    H   H17   0.916900  0.589499  0.242029  0.051188
    H   H18   0.083100  0.410501  0.757971  0.051205
    C   C85   0.541100  0.985740  0.416881  -0.062687
    C   C86   0.458900  0.014260  0.583119  -0.062710
    C   C87   0.988309  0.416262  0.543277  -0.041628
    C   C88   0.011691  0.583738  0.456723  -0.041871
    C   C89   0.415105  0.541948  0.995002  -0.019329
    C   C90   0.584895  0.458052  0.004998  -0.019215
    C   C91   0.584966  0.004882  0.457769  -0.013572
    C   C92   0.415034  0.995118  0.542231  -0.013556
    C   C93   0.459014  0.583211  0.013615  -0.053998
    C   C94   0.540986  0.416789  0.986385  -0.054116
    C   C95   0.012309  0.456937  0.583630  -0.041564
    C   C96   0.987691  0.543063  0.416370  -0.041286
    C   C97   0.455485  0.981500  0.458401  0.081830
    C   C98   0.544515  0.018500  0.541599  0.081880
    C   C99   0.976704  0.458660  0.458974  0.097727
    C   C100  0.023296  0.541340  0.541026  0.098290
    C   C101  0.455431  0.458022  0.982027  0.078496
    C   C102  0.544569  0.541978  0.017973  0.078352
    N   N1    0.288423  0.042287  0.794773  -0.655975
    H   H19   0.230676  0.094414  0.792033  0.243547
    H   H20   0.273574  0.984256  0.841604  0.239240
    N   N2    0.711577  0.957713  0.205227  -0.655999
    H   H21   0.769324  0.905586  0.207967  0.243555
    H   H22   0.726426  0.015744  0.158396  0.239252
    N   N3    0.033653  0.793902  0.279511  -0.620126
    H   H23   0.081494  0.788906  0.218781  0.227548
    H   H24   0.976121  0.841920  0.267251  0.211623
    N   N4    0.966347  0.206097  0.720489  -0.620160
    H   H25   0.918506  0.211094  0.781218  0.227571
    H   H26   0.023879  0.158080  0.732749  0.211633
    N   N5    0.796416  0.283583  0.010969  -0.661580
    H   H27   0.794877  0.223349  0.061101  0.244401
    H   H28   0.838539  0.270766  0.950411  0.242276
    N   N6    0.203584  0.716416  0.989031  -0.661591
    H   H29   0.205123  0.776651  0.938899  0.244401
    H   H30   0.161461  0.729234  0.049589  0.242277
    N   N7    0.203532  0.989447  0.717522  -0.657602
    H   H31   0.205251  0.939648  0.777996  0.241932
    H   H32   0.161339  0.049866  0.730234  0.239922
    N   N8    0.796468  0.010553  0.282478  -0.657594
    H   H33   0.794749  0.060352  0.222003  0.241927
    H   H34   0.838661  0.950133  0.269766  0.239920
    N   N9    0.711397  0.205372  0.959460  -0.660078
    H   H35   0.769132  0.207967  0.907086  0.244432
    H   H36   0.726268  0.159028  0.017730  0.241301
    N   N10   0.288603  0.794628  0.040540  -0.660070
    H   H37   0.230868  0.792033  0.092914  0.244432
    H   H38   0.273732  0.840971  0.982270  0.241298
    N   N11   0.964903  0.719294  0.205686  -0.616789
    H   H39   0.917086  0.779910  0.210446  0.226409
    H   H40   0.022455  0.731417  0.157363  0.210514
    N   N12   0.035097  0.280706  0.794313  -0.616801
    H   H41   0.082914  0.220090  0.789554  0.226414
    H   H42   0.977545  0.268582  0.842637  0.210507
