# generated using pymatgen
data_FeH7C26N2O8F
_symmetry_space_group_name_H-M   'P 1'
_cell_length_a   16.15611300
_cell_length_b   16.77045000
_cell_length_c   13.34662600
_cell_angle_alpha   106.37614100
_cell_angle_beta   94.03916800
_cell_angle_gamma   103.27343600
_symmetry_Int_Tables_number   1
_chemical_formula_structural   FeH7C26N2O8F
_chemical_formula_sum   'Fe2 H14 C52 N4 O16 F2'
_cell_volume   3341.24901491
_cell_formula_units_Z   2
loop_
 _symmetry_equiv_pos_site_id
 _symmetry_equiv_pos_as_xyz
  1  'x, y, z'
loop_
 _atom_site_type_symbol
 _atom_site_label
 _atom_site_symmetry_multiplicity
 _atom_site_fract_x
 _atom_site_fract_y
 _atom_site_fract_z
 _atom_site_occupancy
  Fe  Fe1  1  0.51456500  0.01692300  0.29100500  1
  Fe  Fe2  1  0.48641400  0.98371000  0.71156500  1
  H  H1  1  0.40977600  0.00311900  0.00081900  1
  H  H2  1  0.22790400  0.03425500  0.25975800  1
  H  H3  1  0.17527000  0.96171600  0.73660900  1
  H  H4  1  0.11125000  0.04952300  0.35359700  1
  H  H5  1  0.96071700  0.05075000  0.35578700  1
  H  H6  1  0.04089700  0.95128200  0.64719000  1
  H  H7  1  0.89036600  0.95252600  0.64938600  1
  H  H8  1  0.82637600  0.04028100  0.26637600  1
  H  H9  1  0.77371100  0.96775400  0.74321500  1
  H  H10  1  0.59170500  0.99843500  0.00194000  1
  H  H11  1  0.49536400  0.27393100  0.43263900  1
  H  H12  1  0.50650400  0.56809300  0.25871200  1
  H  H13  1  0.51086000  0.68942500  0.19347000  1
  H  H14  1  0.50781800  0.72772200  0.57113800  1
  C  C1  1  0.30858100  0.01018700  0.09079500  1
  C  C2  1  0.34195300  0.99939800  0.99786000  1
  C  C3  1  0.29310200  0.99101000  0.90485900  1
  C  C4  1  0.18927400  0.02500500  0.18599000  1
  C  C5  1  0.22347900  0.01184700  0.09234100  1
  C  C6  1  0.17214800  0.00027900  0.99890300  1
  C  C7  1  0.20635600  0.98933100  0.90459900  1
  C  C8  1  0.15264300  0.97490900  0.81207200  1
  C  C9  1  0.07106100  0.03945700  0.28054000  1
  C  C10  1  0.10431400  0.02594200  0.18663600  1
  C  C11  1  0.05266900  0.01330500  0.09387000  1
  C  C12  1  0.98617300  0.04021100  0.28177100  1
  C  C13  1  0.93410700  0.02695500  0.18900600  1
  C  C14  1  0.08646800  0.00052500  0.00016500  1
  C  C15  1  0.03434600  0.98827000  0.90785400  1
  C  C16  1  0.06748400  0.97499400  0.81395600  1
  C  C17  1  0.01543300  0.96179800  0.72120200  1
  C  C18  1  0.96723400  0.01365500  0.09510600  1
  C  C19  1  0.91510400  0.00138600  0.00279600  1
  C  C20  1  0.94891300  0.98863000  0.90909400  1
  C  C21  1  0.89728000  0.97602500  0.81633400  1
  C  C22  1  0.93054600  0.96255900  0.72243700  1
  C  C23  1  0.84894000  0.02699100  0.19088600  1
  C  C24  1  0.79517700  0.01245200  0.09835000  1
  C  C25  1  0.82940700  0.00158700  0.00405600  1
  C  C26  1  0.77808900  0.99004300  0.91061500  1
  C  C27  1  0.81232000  0.97695500  0.81698000  1
  C  C28  1  0.70836400  0.01055900  0.09804600  1
  C  C29  1  0.65955800  0.00229900  0.00503100  1
  C  C30  1  0.69298800  0.99171000  0.91213600  1
  C  C31  1  0.66208600  0.01264600  0.18959800  1
  C  C32  1  0.51188500  0.85082300  0.30009000  1
  C  C33  1  0.36978500  0.03056400  0.18590500  1
  C  C34  1  0.48667700  0.13190800  0.47025500  1
  C  C35  1  0.51534700  0.86929000  0.53281600  1
  C  C36  1  0.63179200  0.97120200  0.81695800  1
  C  C37  1  0.49133100  0.14951300  0.70262500  1
  C  C38  1  0.33925300  0.98858800  0.81321300  1
  C  C39  1  0.49012300  0.21272600  0.55128900  1
  C  C40  1  0.49498600  0.28318400  0.51598500  1
  C  C41  1  0.49663600  0.36275800  0.58368500  1
  C  C42  1  0.49464200  0.37154800  0.68978200  1
  C  C43  1  0.49176000  0.30200600  0.72670400  1
  C  C44  1  0.48976400  0.22145000  0.65871100  1
  C  C45  1  0.50373900  0.56635000  0.46204500  1
  C  C46  1  0.49942200  0.43534800  0.54107200  1
  C  C47  1  0.50797900  0.62962900  0.31405100  1
  C  C48  1  0.51072000  0.69918300  0.27698800  1
  C  C49  1  0.51323800  0.77963900  0.34495100  1
  C  C50  1  0.51284100  0.78866300  0.45228800  1
  C  C51  1  0.50817100  0.71841700  0.48777700  1
  C  C52  1  0.50648300  0.63892200  0.42002000  1
  N  N1  1  0.49998300  0.51351100  0.60479100  1
  N  N2  1  0.50214200  0.57803600  0.56580000  1
  N  N3  1  0.50318400  0.48823700  0.39806300  1
  N  N4  1  0.50102700  0.42366600  0.43717300  1
  O  O1  1  0.59377900  0.04269700  0.19107400  1
  O  O2  1  0.50108500  0.83558700  0.19740800  1
  O  O3  1  0.67620000  0.96947800  0.25427000  1
  O  O4  1  0.52074900  0.92928700  0.36233500  1
  O  O5  1  0.39624200  0.96809900  0.20790000  1
  O  O6  1  0.41831500  0.10965500  0.22467900  1
  O  O7  1  0.54303700  0.13112400  0.40402900  1
  O  O8  1  0.41898900  0.06613200  0.45059600  1
  O  O9  1  0.45892700  0.86933100  0.59888300  1
  O  O10  1  0.58224200  0.93582200  0.55220700  1
  O  O11  1  0.60451900  0.03340500  0.79536000  1
  O  O12  1  0.58413800  0.89180200  0.77746300  1
  O  O13  1  0.32594500  0.03258800  0.74925500  1
  O  O14  1  0.47979900  0.07089900  0.63965400  1
  O  O15  1  0.40693400  0.95752800  0.81115200  1
  O  O16  1  0.50532600  0.16380900  0.80497500  1
  F  F1  1  0.49586000  0.44810400  0.76015800  1
  F  F2  1  0.48998100  0.31462600  0.83130600  1
