# Generated by REPEAT Assigner based on pymatgen
data_DB0-m2_o2_o9_f0_pcu.sym.33
_audit_creation_date              2022-05-24
_audit_creation_method            REPEAT_Assigner
_cell_length_a                    10.928020
_cell_length_b                    15.128395
_cell_length_c                    13.746680
_cell_angle_alpha                 89.996786
_cell_angle_beta                  90.000931
_cell_angle_gamma                 89.993619
_cell_volume                      2272.647945
_symmetry_space_group_name_H-M    P1
_symmetry_Int_Tables_number       1
loop_
    _symmetry_equiv_pos_site_id
    _symmetry_equiv_pos_as_xyz
    1  x,y,z
loop_
    _atom_site_type_symbol
    _atom_site_label
    _atom_site_fract_x
    _atom_site_fract_y
    _atom_site_fract_z
    _atom_type_partial_charge
    O   O1   0.503675  0.367522  0.576793  -0.599615
    O   O2   0.497865  0.628433  0.420400  -0.541744
    O   O3   0.506011  0.371755  0.410286  -0.588454
    O   O4   0.503656  0.624214  0.587726  -0.540029
    C   C1   0.504980  0.327955  0.492573  0.705903
    C   C2   0.498548  0.667748  0.505097  0.605815
    O   O5   0.322180  0.499734  0.575923  -0.409762
    O   O6   0.683941  0.499514  0.421496  -0.413900
    O   O7   0.328565  0.494976  0.409090  -0.698781
    O   O8   0.677578  0.498377  0.588279  -0.702622
    C   C3   0.267202  0.498193  0.491619  0.665801
    C   C4   0.739103  0.498679  0.505738  0.693392
    Cu  Cu1  0.498767  0.495265  0.595935  0.796378
    Cu  Cu2  0.507187  0.500752  0.401534  0.813854
    H   H1   0.250898  0.214539  0.182886  0.067729
    H   H2   0.793410  0.789754  0.820152  0.098696
    C   C5   0.169358  0.341841  0.200294  -0.064439
    C   C6   0.856365  0.657430  0.799834  0.042002
    H   H3   0.168444  0.355773  0.123169  0.086832
    H   H4   0.861470  0.643602  0.876868  0.068595
    C   C7   0.123231  0.402889  0.265117  -0.185667
    C   C8   0.890025  0.593641  0.733393  -0.251022
    H   H5   0.085108  0.464256  0.238541  0.099258
    H   H6   0.923685  0.530475  0.758639  0.103898
    C   C9   0.123209  0.384890  0.363648  0.293470
    C   C10  0.886079  0.611695  0.634902  0.403501
    C   C11  0.170758  0.305983  0.397060  0.015573
    C   C12  0.847235  0.693601  0.603266  -0.232920
    H   H7   0.169087  0.290960  0.473933  0.016726
    H   H8   0.848182  0.709171  0.526517  0.081872
    C   C13  0.216349  0.244829  0.332106  -0.146990
    C   C14  0.814492  0.757521  0.669853  0.077549
    H   H9   0.251172  0.182332  0.358202  0.082310
    H   H10  0.787874  0.822523  0.645092  0.049132
    C   C15  0.215526  0.262667  0.233756  -0.092684
    C   C16  0.818513  0.739387  0.768065  -0.237130
    C   C17  0.936959  0.444733  0.437266  -0.144082
    C   C18  0.069932  0.552105  0.559781  -0.209317
    C   C19  0.874881  0.497161  0.504688  -0.134729
    C   C20  0.131695  0.499586  0.492645  -0.083512
    C   C21  0.943332  0.550652  0.566114  0.057204
    C   C22  0.063702  0.445790  0.431567  0.022408
    C   C23  0.482611  0.095410  0.581570  -0.204771
    C   C24  0.454931  0.900394  0.421234  -0.112547
    H   H11  0.464503  0.064071  0.650599  0.136643
    H   H12  0.420714  0.932495  0.356604  0.081202
    C   C25  0.487743  0.186246  0.579351  -0.032087
    C   C26  0.456040  0.809323  0.423325  0.101908
    H   H13  0.477472  0.221495  0.647074  0.090564
    H   H14  0.425245  0.773744  0.359727  0.017535
    C   C27  0.503006  0.230865  0.492529  -0.115682
    C   C28  0.493516  0.764603  0.505700  -0.074995
    C   C29  0.515256  0.182911  0.407732  0.094292
    C   C30  0.527797  0.812138  0.586690  0.034121
    H   H15  0.526759  0.216098  0.338763  0.061051
    H   H16  0.556031  0.778550  0.652270  0.054982
    C   C31  0.514734  0.091554  0.410259  -0.214510
    C   C32  0.531183  0.903300  0.583595  -0.174238
    H   H17  0.530077  0.056540  0.342942  0.102467
    H   H18  0.565856  0.937588  0.646669  0.095399
    C   C33  0.497496  0.046574  0.497304  0.137773
    C   C34  0.494826  0.948732  0.500675  0.009325
    C   C35  0.547240  0.573789  0.101574  -0.167956
    C   C36  0.424485  0.439262  0.897027  -0.214289
    H   H19  0.577787  0.631083  0.061979  0.097600
    H   H20  0.360510  0.399772  0.937586  0.142254
    C   C37  0.557719  0.574419  0.201929  -0.052418
    C   C38  0.423152  0.432547  0.796764  -0.019336
    N   N1   0.515428  0.505198  0.255847  -0.025841
    N   N2   0.490952  0.489671  0.741560  0.012552
    C   C39  0.465879  0.435497  0.209048  0.108830
    C   C40  0.566875  0.546439  0.787129  0.035093
    H   H21  0.429176  0.380561  0.249212  0.105541
    H   H22  0.623198  0.590418  0.744821  0.107413
    C   C41  0.464864  0.430135  0.109046  -0.221718
    C   C42  0.575236  0.549840  0.887334  -0.229727
    H   H23  0.433433  0.368983  0.077565  0.102071
    H   H24  0.641244  0.594461  0.918565  0.135453
    C   C43  0.504186  0.500419  0.052823  0.126381
    C   C44  0.501370  0.496956  0.944571  0.174203
    C   C45  0.624555  0.649680  0.244048  0.772604
    O   O9   0.699272  0.637869  0.308426  -0.532152
    O   O10  0.615901  0.729982  0.201942  -0.494706
    C   C46  0.691949  0.797882  0.228812  0.615226
    C   C47  0.660190  0.879695  0.170609  -0.481211
    H   H25  0.788374  0.779358  0.213903  -0.063789
    H   H26  0.680673  0.812319  0.307351  -0.106659
    H   H27  0.672069  0.865791  0.091965  0.114938
    H   H28  0.721466  0.934714  0.192260  0.113399
    H   H29  0.563780  0.898506  0.184944  0.119309
    C   C48  0.344874  0.360978  0.757716  0.699244
    O   O11  0.298070  0.365626  0.677828  -0.469648
    O   O12  0.317991  0.291220  0.815055  -0.482261
    C   C49  0.235238  0.228176  0.786401  0.512807
    C   C50  0.223814  0.158826  0.865288  -0.330139
    H   H30  0.266672  0.196052  0.718371  -0.051613
    H   H31  0.144518  0.259249  0.774410  -0.052516
    H   H32  0.314168  0.127384  0.877634  0.076996
    H   H33  0.156779  0.107865  0.842433  0.069100
    H   H34  0.192129  0.190432  0.933581  0.090756
    C   C51  0.872122  0.380605  0.375976  0.773022
    O   O13  0.828644  0.403924  0.298351  -0.551068
    O   O14  0.875770  0.294072  0.399286  -0.557372
    C   C52  0.839188  0.230774  0.334101  0.582018
    C   C53  0.852401  0.140303  0.380025  -0.344802
    H   H35  0.897431  0.234037  0.268106  -0.090326
    H   H36  0.742428  0.241787  0.313591  -0.085174
    H   H37  0.949913  0.128293  0.398048  0.078036
    H   H38  0.820287  0.089097  0.328252  0.061960
    H   H39  0.796958  0.137254  0.447491  0.084154
    C   C54  0.135596  0.616625  0.620214  0.777182
    O   O15  0.177408  0.594319  0.698784  -0.551431
    O   O16  0.138114  0.702347  0.593432  -0.515527
    C   C55  0.185878  0.765629  0.653939  0.506045
    C   C56  0.171803  0.855619  0.607073  -0.215266
    H   H40  0.284217  0.752099  0.667001  -0.076927
    H   H41  0.135830  0.765396  0.724154  -0.078073
    H   H42  0.217443  0.855637  0.535094  0.028486
    H   H43  0.214049  0.906598  0.654319  0.033862
    H   H44  0.073189  0.870544  0.597432  0.046480
