# generated using pymatgen
data_FeH8C21NO9
_symmetry_space_group_name_H-M   'P 1'
_cell_length_a   15.91927800
_cell_length_b   14.14302000
_cell_length_c   11.88780200
_cell_angle_alpha   86.35816700
_cell_angle_beta   96.68781200
_cell_angle_gamma   96.90350200
_symmetry_Int_Tables_number   1
_chemical_formula_structural   FeH8C21NO9
_chemical_formula_sum   'Fe2 H16 C42 N2 O18'
_cell_volume   2635.68347843
_cell_formula_units_Z   2
loop_
 _symmetry_equiv_pos_site_id
 _symmetry_equiv_pos_as_xyz
  1  'x, y, z'
loop_
 _atom_site_type_symbol
 _atom_site_label
 _atom_site_symmetry_multiplicity
 _atom_site_fract_x
 _atom_site_fract_y
 _atom_site_fract_z
 _atom_site_occupancy
  Fe  Fe1  1  0.50655200  0.99293500  0.75224100  1
  Fe  Fe2  1  0.49933600  0.99213200  0.25231000  1
  H  H1  1  0.23573500  0.99034900  0.74404500  1
  H  H2  1  0.08965300  0.98370400  0.78917200  1
  H  H3  1  0.82687700  0.97765300  0.86569700  1
  H  H4  1  0.77217200  0.99493800  0.26140100  1
  H  H5  1  0.91795500  0.00451900  0.21298300  1
  H  H6  1  0.48633600  0.34551300  0.27444700  1
  H  H7  1  0.50204600  0.30065700  0.68815000  1
  H  H8  1  0.51372800  0.46762100  0.70588600  1
  H  H9  1  0.52126300  0.63303800  0.72577100  1
  H  H10  1  0.50684100  0.69292000  0.31380900  1
  H  H11  1  0.62690100  0.53403100  0.25078700  1
  H  H12  1  0.47645300  0.56282100  0.93832900  1
  H  H13  1  0.35685100  0.51558100  0.23725900  1
  H  H14  1  0.18045600  0.10000200  0.36712600  1
  H  H15  1  0.07190200  0.05216100  0.32245100  1
  H  H16  1  0.10210200  0.17983900  0.31554000  1
  C  C1  1  0.22409000  0.99603600  0.83100300  1
  C  C2  1  0.14181900  0.99342500  0.85576500  1
  C  C3  1  0.12580700  0.00432900  0.96479900  1
  C  C4  1  0.19234700  0.01590200  0.05080500  1
  C  C5  1  0.27642500  0.01494100  0.02768200  1
  C  C6  1  0.29161500  0.00837500  0.91477300  1
  C  C7  1  0.03890400  0.99896400  0.98884500  1
  C  C8  1  0.96616600  0.99462500  0.00958000  1
  C  C9  1  0.81289100  0.98021600  0.95213700  1
  C  C10  1  0.72951800  0.97595500  0.97753600  1
  C  C11  1  0.71496000  0.97967400  0.09082000  1
  C  C12  1  0.78314200  0.99166600  0.17376800  1
  C  C13  1  0.86523100  0.99639100  0.14700200  1
  C  C14  1  0.88012700  0.98977400  0.03649000  1
  C  C15  1  0.48226400  0.13792400  0.59189800  1
  C  C16  1  0.37679100  0.01657700  0.87734400  1
  C  C17  1  0.66078600  0.97470600  0.88239700  1
  C  C18  1  0.52087300  0.81783900  0.66682100  1
  C  C19  1  0.48660500  0.16576900  0.33815000  1
  C  C20  1  0.34605100  0.01479000  0.12288900  1
  C  C21  1  0.62998800  0.96996400  0.12866500  1
  C  C22  1  0.52355300  0.84873900  0.41344600  1
  C  C23  1  0.48926000  0.33648200  0.36536400  1
  C  C24  1  0.48661200  0.24465500  0.41415000  1
  C  C25  1  0.48984400  0.23188700  0.53191200  1
  C  C26  1  0.49921700  0.31076400  0.59695100  1
  C  C27  1  0.50207800  0.40179300  0.54735500  1
  C  C28  1  0.49645800  0.41535500  0.43108800  1
  C  C29  1  0.50969300  0.47898000  0.61472800  1
  C  C30  1  0.51196600  0.57046200  0.56649200  1
  C  C31  1  0.50648900  0.58509500  0.45035100  1
  C  C32  1  0.49878400  0.50753500  0.38189600  1
  C  C33  1  0.51880800  0.64701200  0.63514700  1
  C  C34  1  0.52112600  0.73986000  0.58937700  1
  C  C35  1  0.51786500  0.75449100  0.47190000  1
  C  C36  1  0.50923200  0.67758900  0.40409000  1
  C  C37  1  0.56491200  0.53553000  0.20312400  1
  C  C38  1  0.48105800  0.55150400  0.02951200  1
  C  C39  1  0.41433700  0.52524200  0.19558300  1
  C  C40  1  0.49259200  0.52305000  0.25827500  1
  C  C41  1  0.14581200  0.10416800  0.18827400  1
  C  C42  1  0.12363300  0.10937600  0.30582900  1
  N  N1  1  0.55803100  0.54956000  0.08961300  1
  N  N2  1  0.40977500  0.53943000  0.08218900  1
  O  O1  1  0.53821700  0.11943100  0.67827700  1
  O  O2  1  0.43166500  0.09141200  0.90156200  1
  O  O3  1  0.41433600  0.07700300  0.56886000  1
  O  O4  1  0.39302700  0.95678300  0.80473600  1
  O  O5  1  0.58229100  0.98481200  0.89892700  1
  O  O6  1  0.67947700  0.97128800  0.77821700  1
  O  O7  1  0.51629300  0.90641600  0.62812600  1
  O  O8  1  0.51958300  0.79757500  0.77590800  1
  O  O9  1  0.48870400  0.07728800  0.37750000  1
  O  O10  1  0.49028200  0.18484800  0.22923200  1
  O  O11  1  0.42340700  0.00047200  0.10567900  1
  O  O12  1  0.32990900  0.02098000  0.22770700  1
  O  O13  1  0.59025100  0.91119200  0.43723500  1
  O  O14  1  0.61269700  0.03009700  0.20007100  1
  O  O15  1  0.46863500  0.86492700  0.32516100  1
  O  O16  1  0.57592700  0.89441500  0.10473300  1
  O  O17  1  0.17453000  0.02468800  0.15741300  1
  O  O18  1  0.14025700  0.17270600  0.12132800  1
