# generated using pymatgen
data_CuH23C36NO4
_symmetry_space_group_name_H-M   'P 1'
_cell_length_a   11.56941200
_cell_length_b   19.37695200
_cell_length_c   19.37427900
_cell_angle_alpha   89.99906100
_cell_angle_beta   85.79162100
_cell_angle_gamma   94.21408200
_symmetry_Int_Tables_number   1
_chemical_formula_structural   CuH23C36NO4
_chemical_formula_sum   'Cu2 H46 C72 N2 O8'
_cell_volume   4319.83943200
_cell_formula_units_Z   2
loop_
 _symmetry_equiv_pos_site_id
 _symmetry_equiv_pos_as_xyz
  1  'x, y, z'
loop_
 _atom_site_type_symbol
 _atom_site_label
 _atom_site_symmetry_multiplicity
 _atom_site_fract_x
 _atom_site_fract_y
 _atom_site_fract_z
 _atom_site_occupancy
  Cu  Cu1  1  0.88459800  0.99507800  0.00426500  1
  Cu  Cu2  1  0.11540200  0.00492200  0.99573500  1
  H  H1  1  0.93112500  0.89874800  0.43435600  1
  H  H2  1  0.06887500  0.10125200  0.56564400  1
  H  H3  1  0.10053700  0.86545200  0.61066200  1
  H  H4  1  0.89946300  0.13454700  0.38933800  1
  H  H5  1  0.05161200  0.75110500  0.66321500  1
  H  H6  1  0.94838800  0.24889400  0.33678500  1
  H  H7  1  0.86169800  0.68957200  0.64801800  1
  H  H8  1  0.13830200  0.31042800  0.35198200  1
  H  H9  1  0.72046000  0.74289700  0.57986600  1
  H  H10  1  0.27954000  0.25710200  0.42013400  1
  H  H11  1  0.76768500  0.85780400  0.52793600  1
  H  H12  1  0.23231500  0.14219500  0.47206400  1
  H  H13  1  0.18673900  0.02455000  0.64787800  1
  H  H14  1  0.81326100  0.97544900  0.35212200  1
  H  H15  1  0.82047600  0.96857900  0.78849600  1
  H  H16  1  0.17952400  0.03142100  0.21150400  1
  H  H17  1  0.82275700  0.96699200  0.66278800  1
  H  H18  1  0.17724200  0.03300800  0.33721200  1
  H  H19  1  0.18581900  0.02579800  0.77370600  1
  H  H20  1  0.81418100  0.97420200  0.22629400  1
  H  H21  1  0.06862300  0.43433200  0.09526600  1
  H  H22  1  0.93137700  0.56566800  0.90473400  1
  H  H23  1  0.23344800  0.52690200  0.12113100  1
  H  H24  1  0.76655200  0.47309800  0.87886900  1
  H  H25  1  0.28250100  0.57889800  0.23154800  1
  H  H26  1  0.71749900  0.42110200  0.76845200  1
  H  H27  1  0.14321800  0.64829500  0.29732100  1
  H  H28  1  0.85678100  0.35170500  0.70267900  1
  H  H29  1  0.95336300  0.66462700  0.25288000  1
  H  H30  1  0.04663700  0.33537300  0.74712000  1
  H  H31  1  0.90253100  0.61195100  0.14322000  1
  H  H32  1  0.09746900  0.38804900  0.85678000  1
  H  H33  1  0.17871100  0.66290700  0.01709600  1
  H  H34  1  0.82128900  0.33709300  0.98290400  1
  H  H35  1  0.81563400  0.77367300  0.98994400  1
  H  H36  1  0.18436600  0.22632700  0.01005600  1
  H  H37  1  0.81473900  0.64797100  0.99138100  1
  H  H38  1  0.18526100  0.35202900  0.00861900  1
  H  H39  1  0.18094200  0.78866800  0.01530100  1
  H  H40  1  0.81905800  0.21133200  0.98469900  1
  H  H41  1  0.69731300  0.06373900  0.93528400  1
  H  H42  1  0.30268700  0.93626100  0.06471600  1
  H  H43  1  0.69881100  0.91051000  0.08899100  1
  H  H44  1  0.30118900  0.08949000  0.91100900  1
  H  H45  1  0.51396700  0.09990800  0.89982600  1
  H  H46  1  0.48603300  0.90009100  0.10017400  1
  C  C1  1  0.00093000  0.13405300  0.99815200  1
  C  C2  1  0.99907000  0.86594700  0.00184800  1
  C  C3  1  0.00192300  0.99800200  0.86589200  1
  C  C4  1  0.99807700  0.00199800  0.13410800  1
  C  C5  1  0.96552900  0.93805500  0.53419900  1
  C  C6  1  0.03447100  0.06194500  0.46580100  1
  C  C7  1  0.95873400  0.94376900  0.46355000  1
  C  C8  1  0.04126600  0.05623100  0.53645000  1
  C  C9  1  0.99386300  0.00485200  0.42886700  1
  C  C10  1  0.00613700  0.99514800  0.57113300  1
  C  C11  1  0.01592600  0.83949700  0.60476700  1
  C  C12  1  0.98407400  0.16050300  0.39523300  1
  C  C13  1  0.98899500  0.77484700  0.63388300  1
  C  C14  1  0.01100400  0.22515300  0.36611700  1
  C  C15  1  0.88270400  0.74027200  0.62521400  1
  C  C16  1  0.11729600  0.25972700  0.37478600  1
  C  C17  1  0.80360500  0.77016100  0.58697700  1
  C  C18  1  0.19639500  0.22983900  0.41302300  1
  C  C19  1  0.83047000  0.83474800  0.55767500  1
  C  C20  1  0.16953000  0.16525200  0.44232500  1
  C  C21  1  0.93614500  0.87017400  0.56720800  1
  C  C22  1  0.06385400  0.12982600  0.43279200  1
  C  C23  1  0.10626000  0.01195000  0.67872900  1
  C  C24  1  0.89374000  0.98805000  0.32127100  1
  C  C25  1  0.10558900  0.01236900  0.74997900  1
  C  C26  1  0.89441000  0.98763100  0.25002100  1
  C  C27  1  0.00317500  0.99684400  0.79014100  1
  C  C28  1  0.99682500  0.00315600  0.20985900  1
  C  C29  1  0.90168700  0.98062300  0.75825400  1
  C  C30  1  0.09831300  0.01937700  0.24174600  1
  C  C31  1  0.90294400  0.97909900  0.68703300  1
  C  C32  1  0.09705600  0.02090100  0.31296700  1
  C  C33  1  0.00537400  0.99427200  0.64693100  1
  C  C34  1  0.99462600  0.00572800  0.35306900  1
  C  C35  1  0.03539300  0.53426000  0.05870700  1
  C  C36  1  0.96460700  0.46574000  0.94129300  1
  C  C37  1  0.04107500  0.46352100  0.05264300  1
  C  C38  1  0.95892500  0.53647900  0.94735700  1
  C  C39  1  0.00502300  0.42877700  0.99487500  1
  C  C40  1  0.99497700  0.57122300  0.00512500  1
  C  C41  1  0.17149100  0.55717500  0.14972600  1
  C  C42  1  0.82850800  0.44282500  0.85027400  1
  C  C43  1  0.19939300  0.58651500  0.21176300  1
  C  C44  1  0.80060700  0.41348500  0.78823700  1
  C  C45  1  0.12138800  0.62544700  0.24862200  1
  C  C46  1  0.87861200  0.37455300  0.75137800  1
  C  C47  1  0.01513200  0.63474900  0.22361200  1
  C  C48  1  0.98486800  0.36525100  0.77638800  1
  C  C49  1  0.98714000  0.60556200  0.16153500  1
  C  C50  1  0.01286000  0.39443800  0.83846500  1
  C  C51  1  0.06585900  0.56733100  0.12380000  1
  C  C52  1  0.93414000  0.43266800  0.87620000  1
  C  C53  1  0.09854000  0.68714400  0.01196000  1
  C  C54  1  0.90146000  0.31285600  0.98804000  1
  C  C55  1  0.09978600  0.75837900  0.01032900  1
  C  C56  1  0.90021300  0.24162100  0.98967100  1
  C  C57  1  0.99828100  0.79022100  0.00295100  1
  C  C58  1  0.00171900  0.20977900  0.99704900  1
  C  C59  1  0.89592200  0.75002300  0.99633700  1
  C  C60  1  0.10407800  0.24997700  0.00366300  1
  C  C61  1  0.89524400  0.67881100  0.99687800  1
  C  C62  1  0.10475600  0.32118900  0.00312200  1
  C  C63  1  0.99608500  0.64702900  0.00576900  1
  C  C64  1  0.00391500  0.35297100  0.99423100  1
  C  C65  1  0.46873700  0.06349800  0.93653600  1
  C  C66  1  0.53126200  0.93650200  0.06346400  1
  C  C67  1  0.34872900  0.05757600  0.94294700  1
  C  C68  1  0.65127100  0.94242400  0.05705300  1
  C  C69  1  0.34974400  0.97234400  0.02840500  1
  C  C70  1  0.65025600  0.02765600  0.97159500  1
  C  C71  1  0.47000200  0.97712800  0.02306000  1
  C  C72  1  0.52999800  0.02287200  0.97694000  1
  N  N1  1  0.70914600  0.98759100  0.01153800  1
  N  N2  1  0.29085300  0.01240900  0.98846200  1
  O  O1  1  0.90154900  0.09631300  0.00165900  1
  O  O2  1  0.09845000  0.90368600  0.99834100  1
  O  O3  1  0.09981100  0.10461400  0.99557500  1
  O  O4  1  0.90018900  0.89538500  0.00442500  1
  O  O5  1  0.90217900  0.99367900  0.90321500  1
  O  O6  1  0.09782100  0.00632100  0.09678500  1
  O  O7  1  0.10048700  0.00331900  0.89577600  1
  O  O8  1  0.89951200  0.99668100  0.10422400  1
