# Generated by REPEAT Assigner based on pymatgen
data_DB0-m3_o11_o25_f0_nbo_sqe
_audit_creation_date              2022-05-24
_audit_creation_method            REPEAT_Assigner
_cell_length_a                    22.094152
_cell_length_b                    22.085971
_cell_length_c                    22.409559
_cell_angle_alpha                 60.494901
_cell_angle_beta                  119.502874
_cell_angle_gamma                 89.960077
_cell_volume                      7844.291594
_symmetry_space_group_name_H-M    P1
_symmetry_Int_Tables_number       1
loop_
    _symmetry_equiv_pos_site_id
    _symmetry_equiv_pos_as_xyz
    1  x,y,z
loop_
    _atom_site_type_symbol
    _atom_site_label
    _atom_site_fract_x
    _atom_site_fract_y
    _atom_site_fract_z
    _atom_type_partial_charge
    O   O1   0.581095  0.443970  0.499008  -0.691731
    O   O2   0.582436  0.550886  0.491105  -0.684385
    C   C1   0.610026  0.496745  0.493189  0.726549
    O   O3   0.427820  0.508102  0.377168  -0.699912
    O   O4   0.431168  0.613219  0.373028  -0.688597
    C   C2   0.408577  0.580124  0.334651  0.748488
    Zn  Zn1  0.492186  0.432014  0.502571  1.308622
    Zn  Zn2  0.496244  0.568863  0.496470  1.307561
    O   O5   0.406031  0.449882  0.508172  -0.687962
    O   O6   0.407235  0.556900  0.499975  -0.693254
    O   O7   0.558477  0.387628  0.625980  -0.687748
    O   O8   0.561738  0.492783  0.621781  -0.700628
    C   C3   0.378363  0.504060  0.505987  0.721884
    C   C4   0.581594  0.420746  0.664291  0.746859
    C   C5   0.289545  0.733067  0.975513  -0.191183
    C   C6   0.315062  0.760455  0.031592  -0.197290
    H   H1   0.368865  0.768967  0.060441  0.076534
    H   H2   0.320196  0.721127  0.953476  0.072304
    H   H3   0.229648  0.877150  0.951422  0.078551
    C   C7   0.365075  0.623398  0.245223  0.031651
    C   C8   0.138379  0.875745  0.753834  0.030417
    C   C9   0.262983  0.679313  0.024643  -0.185985
    C   C10  0.287777  0.707516  0.079149  0.855736
    C   C11  0.187959  0.737226  0.967397  -0.190459
    C   C12  0.215259  0.790161  0.919859  0.853415
    C   C13  0.213492  0.764611  0.023487  -0.201906
    C   C14  0.240065  0.818339  0.974388  -0.196247
    C   C15  0.329714  0.660893  0.170208  -0.560845
    C   C16  0.173473  0.837298  0.828824  -0.559680
    H   H4   0.182842  0.776557  0.045523  0.079620
    H   H5   0.134153  0.728719  0.938546  0.072825
    H   H6   0.273402  0.620501  0.047610  0.069475
    C   C17  0.753427  0.554533  0.452021  -0.076295
    C   C18  0.817054  0.500720  0.515221  -0.186631
    H   H7   0.749428  0.600559  0.398494  0.136930
    H   H8   0.823783  0.458869  0.572715  0.135246
    C   C19  0.689927  0.556031  0.457047  -0.081406
    C   C20  0.674058  0.494630  0.489698  -0.172846
    H   H9   0.652978  0.608591  0.428388  0.137503
    H   H10  0.706124  0.443117  0.510014  0.130445
    C   C21  0.727998  0.208449  0.028479  -0.188404
    C   C22  0.699983  0.291957  0.976285  -0.192699
    H   H11  0.647947  0.326400  0.955012  0.074880
    H   H12  0.701521  0.171244  0.054847  0.070953
    H   H13  0.790486  0.326477  0.054684  0.078138
    C   C23  0.629587  0.377366  0.753612  0.034080
    C   C24  0.890030  0.124839  0.245203  0.029334
    C   C25  0.745997  0.210439  0.970316  -0.180958
    C   C26  0.718787  0.293174  0.919639  0.851022
    C   C27  0.822625  0.211676  0.022429  -0.191285
    C   C28  0.803789  0.210483  0.079045  0.851319
    C   C29  0.794575  0.295249  0.970150  -0.196677
    C   C30  0.776594  0.293219  0.028390  -0.200017
    C   C31  0.669922  0.339826  0.828575  -0.562067
    C   C32  0.851602  0.163314  0.170158  -0.557819
    H   H14  0.821051  0.332456  0.943781  0.077265
    H   H15  0.874657  0.177224  0.043704  0.072675
    H   H16  0.732094  0.177181  0.944021  0.068136
    C   C33  0.236543  0.445693  0.550223  -0.078381
    C   C34  0.172017  0.497861  0.486148  -0.193064
    H   H17  0.241498  0.400591  0.605011  0.139492
    H   H18  0.164544  0.538396  0.427739  0.136437
    C   C35  0.299743  0.444353  0.544566  -0.086229
    C   C36  0.314408  0.506076  0.509740  -0.166821
    H   H19  0.337568  0.391780  0.574604  0.140299
    H   H20  0.281524  0.557832  0.488061  0.131470
    O   O9   0.070202  0.910491  0.501408  -0.697841
    O   O10  0.969281  0.905933  0.505805  -0.685202
    C   C37  0.021468  0.877982  0.505515  0.724607
    O   O11  0.128002  0.939247  0.625303  -0.695305
    O   O12  0.023467  0.941562  0.622584  -0.697678
    C   C38  0.095355  0.920827  0.664399  0.752782
    Zn  Zn3  0.082862  0.001195  0.500899  1.319409
    Zn  Zn4  0.947572  0.999374  0.498152  1.302432
    O   O13  0.064564  0.091461  0.499607  -0.696807
    O   O14  0.957482  0.093158  0.491433  -0.683705
    O   O15  0.006272  0.062659  0.375881  -0.694685
    O   O16  0.902477  0.057653  0.374344  -0.697361
    C   C39  0.009505  0.122517  0.493667  0.723561
    C   C40  0.934478  0.079723  0.334657  0.751885
    O   O17  0.958448  0.625450  0.423507  -0.697595
    O   O18  0.030412  0.558872  0.565252  -0.706557
    C   C41  0.994219  0.622320  0.492599  0.745141
    O   O19  0.870285  0.535780  0.437125  -0.696459
    O   O20  0.946448  0.463315  0.578811  -0.700919
    C   C42  0.880258  0.500129  0.510108  0.732793
    Zn  Zn5  0.944808  0.542442  0.408834  1.308466
    Zn  Zn6  0.044200  0.455572  0.592858  1.306676
    O   O21  0.953847  0.439058  0.436803  -0.706815
    O   O22  0.034062  0.372622  0.577933  -0.697636
    O   O23  0.042525  0.531647  0.422930  -0.708176
    O   O24  0.118984  0.465478  0.564448  -0.702546
    C   C43  0.993385  0.375638  0.509299  0.747050
    C   C44  0.108877  0.498075  0.491514  0.757701
    C   C45  0.002953  0.692609  0.550533  -0.080240
    C   C46  0.992800  0.690598  0.487895  -0.186865
    H   H21  0.009188  0.644125  0.603991  0.139922
    H   H22  0.977891  0.740635  0.430186  0.132691
    C   C47  0.997533  0.761926  0.544200  -0.088379
    C   C48  0.025767  0.809893  0.509862  -0.166273
    H   H23  0.974615  0.771459  0.573036  0.140224
    H   H24  0.056239  0.796990  0.489466  0.132906
    C   C49  0.941339  0.304974  0.452313  -0.063920
    C   C50  0.994519  0.307208  0.514344  -0.197660
    H   H25  0.893716  0.353199  0.399201  0.135676
    H   H26  0.038296  0.257397  0.571298  0.134298
    C   C51  0.943737  0.235928  0.457890  -0.089977
    C   C52  0.006933  0.190305  0.490027  -0.166066
    H   H27  0.892705  0.225026  0.429993  0.139912
    H   H28  0.056786  0.204957  0.509403  0.129829
