# Generated by REPEAT Assigner based on pymatgen
data_DB0-m29_o99_o52_f0_pts.sym.95
_audit_creation_date              2022-05-24
_audit_creation_method            REPEAT_Assigner
_cell_length_a                    15.776741
_cell_length_b                    9.306524
_cell_length_c                    20.306433
_cell_angle_alpha                 93.539219
_cell_angle_beta                  100.789551
_cell_angle_gamma                 97.087367
_cell_volume                      2895.411547
_symmetry_space_group_name_H-M    P1
_symmetry_Int_Tables_number       1
loop_
    _symmetry_equiv_pos_site_id
    _symmetry_equiv_pos_as_xyz
    1  x,y,z
loop_
    _atom_site_type_symbol
    _atom_site_label
    _atom_site_fract_x
    _atom_site_fract_y
    _atom_site_fract_z
    _atom_type_partial_charge
    C   C1   0.210725  0.988784  0.892980  -0.134696
    H   H1   0.217174  0.972427  0.841085  0.127098
    C   C2   0.129089  0.991756  0.907816  -0.022367
    C   C3   0.121349  0.018677  0.973933  0.225361
    C   C4   0.194564  0.041504  0.024263  -0.200888
    H   H2   0.185768  0.057326  0.075570  0.160492
    C   C5   0.276871  0.040063  0.009864  0.011397
    C   C6   0.284775  0.016274  0.942939  0.006133
    C   C7   0.037374  0.014223  0.992006  -0.106052
    C   C8   0.966857  0.010842  0.007054  -0.147306
    C   C9   0.809095  0.977200  0.974168  -0.226532
    H   H3   0.817700  0.959455  0.922902  0.180854
    C   C10  0.726720  0.974453  0.989005  0.020471
    C   C11  0.718990  0.998658  0.056036  0.014965
    C   C12  0.793312  0.031747  0.105562  -0.084484
    H   H4   0.787974  0.050707  0.157590  0.131933
    C   C13  0.874689  0.035766  0.089798  -0.202988
    H   H5   0.932317  0.060104  0.129041  0.149857
    C   C14  0.882430  0.006873  0.024155  0.299263
    O   O1   0.527442  0.180926  0.816369  -0.603235
    C   C15  0.486964  0.193056  0.754750  0.600094
    O   O2   0.428270  0.140236  0.944387  -0.461552
    O   O3   0.436160  0.081868  0.719218  -0.536731
    O   O4   0.381143  0.935076  0.874071  -0.566745
    C   C16  0.369094  0.027291  0.921996  0.591235
    Fe  Fe1  0.496351  0.991261  0.850828  1.374507
    O   O5   0.575574  0.990385  0.940420  -0.405421
    O   O6   0.664442  0.932038  0.870777  -0.505168
    C   C17  0.651893  0.958898  0.932151  0.523146
    O   O7   0.505205  0.852593  0.773483  -0.419356
    O   O8   0.501357  0.704445  0.857338  -0.440667
    C   C18  0.505117  0.721731  0.794250  0.429777
    O   O9   0.497419  0.156692  0.225769  -0.424601
    O   O10  0.501880  0.305004  0.142043  -0.439056
    C   C19  0.497745  0.287649  0.205062  0.441697
    O   O11  0.427439  0.019316  0.058684  -0.410905
    O   O12  0.338643  0.078359  0.128302  -0.503075
    C   C20  0.351267  0.051710  0.066935  0.529529
    O   O13  0.566285  0.927891  0.280233  -0.523630
    O   O14  0.621904  0.076221  0.125129  -0.564444
    C   C21  0.634832  0.984488  0.077360  0.573465
    O   O15  0.476191  0.828477  0.182604  -0.599962
    C   C22  0.516080  0.816463  0.244411  0.583150
    O   O16  0.576516  0.870412  0.054960  -0.454908
    Fe  Fe2  0.506796  0.018631  0.148297  1.374330
    H   H6   0.502782  0.446897  0.824369  0.156022
    C   C23  0.504249  0.594103  0.747601  0.086877
    C   C24  0.503019  0.606572  0.679836  0.026798
    H   H7   0.506258  0.712892  0.661164  0.075525
    C   C25  0.496937  0.483068  0.636241  -0.374064
    C   C26  0.489964  0.347360  0.660617  0.016939
    H   H8   0.484110  0.249588  0.627603  0.077492
    C   C27  0.493623  0.335456  0.728276  0.052863
    C   C28  0.501854  0.458407  0.771650  -0.141627
    N   N1   0.493119  0.374017  0.523167  -0.235569
    N   N2   0.495699  0.383841  0.458888  -0.223716
    C   C29  0.503931  0.514856  0.434515  0.747767
    N   N3   0.509223  0.635572  0.475996  -0.237007
    N   N4   0.506642  0.625747  0.540277  -0.216743
    C   C30  0.498420  0.494729  0.564650  0.745876
    C   C31  0.512648  0.662175  0.338546  0.012209
    H   H9   0.518450  0.759956  0.371543  0.078154
    C   C32  0.509250  0.674043  0.270904  0.061856
    C   C33  0.501092  0.551018  0.227581  -0.137944
    H   H10  0.500356  0.562457  0.174881  0.155979
    C   C34  0.498503  0.415321  0.251656  0.075248
    C   C35  0.499508  0.402924  0.319391  0.029155
    H   H11  0.496164  0.296615  0.338072  0.073339
    C   C36  0.505532  0.526482  0.362940  -0.370423
    C   C37  0.052234  0.967324  0.853126  0.076274
    C   C38  0.992028  0.064306  0.846538  -0.102460
    C   C39  0.920898  0.041727  0.794171  -0.249738
    C   C40  0.909765  0.922821  0.747949  0.406429
    F   F1   0.839893  0.900881  0.696478  -0.215165
    C   C41  0.970164  0.826960  0.753788  -0.288306
    C   C42  0.041471  0.849524  0.806005  -0.097259
    H   H12  0.001207  0.160339  0.881225  0.121670
    H   H13  0.874121  0.117975  0.789111  0.154977
    H   H14  0.961664  0.733994  0.717374  0.164582
    H   H15  0.088167  0.773137  0.810323  0.130004
