# Generated by REPEAT Assigner based on pymatgen
data_DB0-m2_o23_o25_f0_pcu.sym.98_sqe
_audit_creation_date              2022-05-24
_audit_creation_method            REPEAT_Assigner
_cell_length_a                    15.919494
_cell_length_b                    15.857882
_cell_length_c                    14.434067
_cell_angle_alpha                 89.925404
_cell_angle_beta                  89.930787
_cell_angle_gamma                 90.005336
_cell_volume                      3643.866712
_symmetry_space_group_name_H-M    P1
_symmetry_Int_Tables_number       1
loop_
    _symmetry_equiv_pos_site_id
    _symmetry_equiv_pos_as_xyz
    1  x,y,z
loop_
    _atom_site_type_symbol
    _atom_site_label
    _atom_site_fract_x
    _atom_site_fract_y
    _atom_site_fract_z
    _atom_type_partial_charge
    O   O1   0.503200  0.372773  0.585290  -0.646926
    O   O2   0.498473  0.373642  0.425677  -0.614068
    C   C1   0.500940  0.333940  0.505282  0.897946
    O   O3   0.377986  0.492483  0.584384  -0.589819
    O   O4   0.379122  0.493272  0.424970  -0.543213
    C   C2   0.339407  0.495158  0.504400  0.680775
    Cu  Cu1  0.499910  0.495243  0.598895  1.016328
    Cu  Cu2  0.501333  0.496278  0.413426  0.901702
    O   O5   0.502825  0.617858  0.586487  -0.653572
    O   O6   0.498029  0.618723  0.427193  -0.628269
    O   O7   0.622123  0.492863  0.587315  -0.624736
    O   O8   0.623255  0.493713  0.427932  -0.620809
    C   C3   0.500426  0.657586  0.507034  0.842632
    C   C4   0.661806  0.495769  0.507921  0.811844
    C   C5   0.973159  0.425251  0.547788  -0.292867
    C   C6   0.026399  0.430082  0.461524  0.450045
    H   H1   0.949551  0.366625  0.580694  0.105222
    H   H2   0.946351  0.497840  0.347787  0.098676
    C   C7   0.249234  0.494548  0.503910  -0.079492
    C   C8   0.751932  0.495219  0.508413  -0.133324
    C   C9   0.028812  0.492359  0.592135  -0.136856
    C   C10  0.081562  0.495081  0.504993  0.493078
    C   C11  0.973434  0.561507  0.551465  -0.136882
    C   C12  0.919482  0.494564  0.506994  0.690513
    C   C13  0.027388  0.564207  0.464210  -0.109801
    C   C14  0.971501  0.497336  0.419397  -0.296109
    C   C15  0.173524  0.494519  0.504098  -0.344022
    C   C16  0.827614  0.494916  0.508173  -0.388010
    H   H3   0.051511  0.622114  0.430235  0.066371
    H   H4   0.948876  0.617039  0.589437  0.061914
    H   H5   0.054052  0.490989  0.663692  0.071014
    C   C17  0.513028  0.043837  0.603732  -0.161201
    C   C18  0.572953  0.042950  0.445695  -0.270178
    C   C19  0.569840  0.947580  0.441772  0.456855
    H   H6   0.581820  0.928511  0.626031  0.032627
    H   H7   0.571711  0.070317  0.633059  0.072513
    H   H8   0.568808  0.069221  0.374626  0.076822
    H   H9   0.633565  0.062855  0.476483  0.060578
    H   H10  0.630977  0.922630  0.465855  -0.027369
    C   C20  0.500693  0.748039  0.507372  -0.205670
    C   C21  0.501255  0.075207  0.505320  0.344472
    C   C22  0.518277  0.948479  0.603525  -0.161548
    C   C23  0.501330  0.916211  0.506525  0.419365
    C   C24  0.416227  0.948022  0.474708  -0.291732
    C   C25  0.417878  0.043268  0.468334  0.465847
    C   C26  0.500990  0.824001  0.507237  -0.240722
    C   C27  0.501333  0.167461  0.504906  -0.163510
    C   C28  0.501192  0.243447  0.504898  -0.290679
    H   H11  0.366709  0.068742  0.512097  -0.028894
    H   H12  0.367606  0.928608  0.525507  0.061468
    H   H13  0.459161  0.064133  0.647078  0.033394
    H   H14  0.471061  0.922398  0.652300  0.070713
    H   H15  0.399844  0.920970  0.406280  0.086839
    C   C29  0.532655  0.580031  0.058290  -0.073703
    C   C30  0.412341  0.479762  0.058389  0.390981
    C   C31  0.410975  0.491114  0.954259  0.343031
    H   H16  0.508293  0.632260  0.923029  0.070978
    H   H17  0.488711  0.631088  0.078385  0.041886
    H   H18  0.394854  0.413847  0.074819  -0.028208
    H   H19  0.378831  0.551205  0.937895  0.000017
    N   N1   0.500509  0.496049  0.737376  -0.152848
    C   C32  0.500790  0.495603  0.093488  0.346127
    C   C33  0.540455  0.576892  0.953780  -0.218859
    C   C34  0.500679  0.496185  0.918839  0.322819
    C   C35  0.551097  0.421446  0.953917  -0.083007
    C   C36  0.558033  0.426318  0.058378  -0.183492
    C   C37  0.500660  0.496207  0.817517  -0.036854
    C   C38  0.500808  0.495452  0.194805  -0.092030
    N   N2   0.500768  0.495450  0.274946  -0.103881
    H   H20  0.623861  0.440499  0.077994  0.070582
    H   H21  0.539497  0.364989  0.089228  0.066654
    H   H22  0.614947  0.422790  0.923161  0.057715
    H   H23  0.595105  0.593531  0.088815  0.060216
    H   H24  0.607752  0.578375  0.933914  0.082824
    H   H25  0.520034  0.361593  0.933987  0.033344
    O   O9   0.054495  0.359742  0.415594  -0.540421
    C   C39  0.098068  0.365014  0.335594  0.835672
    O   O10  0.113837  0.433451  0.301181  -0.536310
    C   C40  0.126557  0.286545  0.288676  -0.559823
    H   H26  0.071247  0.247202  0.271109  0.129419
    H   H27  0.168518  0.250926  0.335782  0.188639
    H   H28  0.161081  0.303047  0.224400  0.174379
    O   O11  0.552460  0.922566  0.352537  -0.512443
    C   C41  0.603962  0.873868  0.300719  0.814440
    O   O12  0.671322  0.849543  0.330729  -0.562722
    C   C42  0.577774  0.849377  0.205502  -0.495610
    H   H29  0.515290  0.876978  0.190239  0.122254
    H   H30  0.574090  0.779671  0.200718  0.150716
    H   H31  0.624375  0.873268  0.154686  0.143705
    O   O13  0.408945  0.067110  0.377167  -0.516995
    C   C43  0.343131  0.111923  0.344421  0.843203
    O   O14  0.284939  0.131816  0.394855  -0.572768
    C   C44  0.341382  0.136545  0.244885  -0.573162
    H   H32  0.343409  0.079065  0.201263  0.145212
    H   H33  0.396601  0.176735  0.229100  0.164188
    H   H34  0.282944  0.172111  0.230140  0.183086
    O   O15  0.357867  0.536477  0.098368  -0.544985
    C   C45  0.290045  0.514125  0.149231  0.799616
    O   O16  0.271556  0.440207  0.160578  -0.534899
    C   C46  0.237224  0.580966  0.192199  -0.457511
    H   H35  0.263278  0.643790  0.174372  0.097347
    H   H36  0.237102  0.572902  0.268545  0.174314
    H   H37  0.172059  0.575996  0.165691  0.151213
    O   O17  0.370906  0.423335  0.914466  -0.523260
    C   C47  0.298836  0.429220  0.865413  0.813142
    O   O18  0.262740  0.496535  0.856254  -0.551528
    C   C48  0.262846  0.352112  0.822174  -0.509957
    H   H38  0.303763  0.297313  0.837741  0.126627
    H   H39  0.258967  0.361086  0.746080  0.178238
    H   H40  0.199084  0.340553  0.850493  0.153420
