# Generated by REPEAT Assigner based on pymatgen
data_DB0-m3_o4_o22_f0_nbo.sym.11
_audit_creation_date              2022-05-24
_audit_creation_method            REPEAT_Assigner
_cell_length_a                    19.064588
_cell_length_b                    18.816800
_cell_length_c                    18.895365
_cell_angle_alpha                 109.038834
_cell_angle_beta                  110.012987
_cell_angle_gamma                 109.446280
_cell_volume                      5212.300059
_symmetry_space_group_name_H-M    P1
_symmetry_Int_Tables_number       1
loop_
    _symmetry_equiv_pos_site_id
    _symmetry_equiv_pos_as_xyz
    1  x,y,z
loop_
    _atom_site_type_symbol
    _atom_site_label
    _atom_site_fract_x
    _atom_site_fract_y
    _atom_site_fract_z
    _atom_type_partial_charge
    O   O1   0.409496  0.354733  0.437374  -0.670439
    O   O2   0.406478  0.462444  0.537422  -0.719312
    C   C1   0.379118  0.380503  0.487088  0.820357
    O   O3   0.588222  0.442956  0.528600  -0.656935
    O   O4   0.591302  0.552037  0.633268  -0.690671
    C   C2   0.617334  0.496485  0.610066  0.561937
    Zn  Zn1  0.499743  0.431030  0.421511  1.277898
    Zn  Zn2  0.501569  0.571283  0.559541  1.281891
    O   O5   0.592972  0.539973  0.441629  -0.695857
    O   O6   0.593560  0.647547  0.545479  -0.683691
    O   O7   0.408334  0.448564  0.347751  -0.683115
    O   O8   0.414958  0.561228  0.452594  -0.651723
    C   C3   0.621963  0.622001  0.493613  0.750000
    C   C4   0.383891  0.505494  0.371325  0.591397
    C   C5   0.692063  0.415413  0.641046  0.041147
    H   H1   0.718322  0.419055  0.597453  -0.028651
    H   H2   0.627985  0.355652  0.603048  -0.003247
    C   C6   0.752108  0.409810  0.713549  -0.121916
    H   H3   0.714000  0.357339  0.721869  -0.008827
    H   H4   0.797155  0.394281  0.696266  0.036961
    H   H5   0.877935  0.553054  0.746576  0.073587
    C   C7   0.770932  0.576167  0.719943  0.596189
    C   C8   0.663924  0.497031  0.750791  0.378534
    C   C9   0.684944  0.495835  0.679561  -0.000064
    H   H6   0.652657  0.551863  0.775089  -0.060626
    C   C10  0.802424  0.496190  0.796892  0.287292
    C   C11  0.841703  0.568160  0.778685  -0.356926
    C   C12  0.740925  0.511316  0.826439  0.369784
    H   H7   0.775936  0.579757  0.878927  -0.114620
    H   H8   0.769236  0.633423  0.759136  -0.145648
    H   H9   0.885709  0.631446  0.839855  0.066253
    C   C13  0.316639  0.245578  0.491833  0.081668
    C   C14  0.311193  0.314449  0.486103  -0.117074
    C   C15  0.237504  0.317830  0.478167  -0.151249
    H   H10  0.229519  0.370294  0.472408  0.135184
    C   C16  0.171860  0.251911  0.473938  -0.120465
    H   H11  0.114064  0.254624  0.465927  0.149984
    C   C17  0.181560  0.184814  0.482801  -0.203580
    C   C18  0.256543  0.185690  0.492974  0.179422
    C   C19  0.302321  0.136289  0.502142  -0.161460
    C   C20  0.373353  0.207131  0.501285  -0.185301
    H   H12  0.324024  0.138550  0.565690  0.077057
    H   H13  0.267742  0.071393  0.443775  0.076832
    H   H14  0.434673  0.249070  0.564386  0.116576
    H   H15  0.378591  0.181701  0.442610  0.081053
    C   C21  0.243381  0.432400  0.237767  -0.343069
    C   C22  0.318698  0.506787  0.303550  0.233287
    C   C23  0.329306  0.583275  0.303054  -0.259358
    H   H16  0.387701  0.644019  0.353294  0.152218
    C   C24  0.265895  0.582175  0.236904  -0.124516
    H   H17  0.275767  0.642371  0.237409  0.145335
    C   C25  0.189251  0.505190  0.173004  -0.018660
    C   C26  0.181162  0.431784  0.177524  0.164244
    C   C27  0.121248  0.337124  0.134690  -0.269186
    C   C28  0.194373  0.338339  0.206177  0.617023
    H   H18  0.063135  0.322824  0.141124  0.095352
    H   H19  0.110220  0.301210  0.068815  0.059100
    H   H20  0.224777  0.302154  0.183159  -0.062904
    C   C29  0.698177  0.673104  0.422006  0.098612
    C   C30  0.687989  0.688709  0.492947  -0.076051
    C   C31  0.742151  0.772192  0.563920  -0.143969
    H   H21  0.737371  0.788653  0.621833  0.129396
    C   C32  0.805222  0.835055  0.562532  -0.219087
    H   H22  0.848474  0.899026  0.619086  0.152034
    C   C33  0.811626  0.816684  0.488551  -0.056489
    C   C34  0.755365  0.734338  0.419314  0.122956
    C   C35  0.732015  0.677010  0.329849  -0.142520
    C   C36  0.664068  0.605034  0.332587  -0.143107
    H   H23  0.702562  0.696581  0.283491  0.068738
    H   H24  0.784561  0.664791  0.328000  0.055573
    H   H25  0.596621  0.584725  0.288079  0.067499
    H   H26  0.678378  0.552341  0.331633  0.077255
    O   O9   0.949960  0.355018  0.895083  -0.617970
    O   O10  0.046721  0.465461  0.892169  -0.693859
    C   C37  0.999195  0.382906  0.864850  0.664618
    O   O11  0.853963  0.441435  0.892041  -0.659459
    O   O12  0.953412  0.554232  0.894284  -0.642061
    C   C38  0.873550  0.497264  0.864839  0.514843
    Zn  Zn3  0.931128  0.427380  0.984981  1.254847
    Zn  Zn4  0.062546  0.571715  0.984752  1.281872
    O   O13  0.947556  0.533620  0.078322  -0.667764
    O   O14  0.043048  0.644072  0.073856  -0.693428
    O   O15  0.040173  0.444030  0.074737  -0.633010
    O   O16  0.139696  0.558374  0.078387  -0.680744
    C   C39  0.994239  0.616108  0.104361  0.723707
    C   C40  0.119739  0.502502  0.105415  0.630829
    O   O17  0.051678  0.090164  0.630195  -0.668320
    O   O18  0.949901  0.094649  0.524110  -0.703619
    C   C41  0.001916  0.121735  0.605627  0.742562
    O   O19  0.137833  0.087903  0.534510  -0.722224
    O   O20  0.034064  0.089580  0.427755  -0.687458
    C   C42  0.114594  0.116785  0.481055  0.810233
    Zn  Zn5  0.064738  0.997474  0.553128  1.274651
    Zn  Zn6  0.927884  0.000555  0.414795  1.297999
    O   O21  0.041281  0.902008  0.443798  -0.629753
    O   O22  0.942419  0.909325  0.337880  -0.678664
    O   O23  0.958649  0.910208  0.541851  -0.664370
    O   O24  0.854801  0.908619  0.431935  -0.693372
    C   C43  0.990700  0.876405  0.362313  0.548839
    C   C44  0.878188  0.881306  0.486850  0.728604
    C   C45  0.989635  0.241542  0.795265  -0.373025
    C   C46  0.001575  0.318593  0.798074  0.013594
    C   C47  0.015552  0.331656  0.734466  0.257447
    C   C48  0.017678  0.268211  0.672180  0.050907
    C   C49  0.004751  0.191064  0.672308  -0.097607
    C   C50  0.992741  0.182105  0.736867  0.137867
    C   C51  0.975887  0.120642  0.770061  -0.253010
    C   C52  0.973219  0.191048  0.839467  0.634490
    H   H27  0.912287  0.060626  0.723630  0.105008
    H   H28  0.031960  0.112103  0.797841  0.041643
    H   H29  0.026078  0.223009  0.907279  -0.045085
    C   C53  0.990515  0.677422  0.239723  0.162130
    C   C54  0.989626  0.680613  0.168064  -0.015367
    C   C55  0.987178  0.750465  0.159767  -0.123836
    H   H30  0.985854  0.755905  0.104170  0.134107
    C   C56  0.984708  0.813162  0.221781  -0.280921
    H   H31  0.982275  0.866806  0.213866  0.168166
    C   C57  0.989326  0.809136  0.295106  0.272242
    C   C58  0.992821  0.739592  0.301095  -0.395438
    C   C59  0.998053  0.699681  0.357204  0.646214
    C   C60  0.996167  0.626914  0.285395  -0.293110
    H   H32  0.941217  0.679471  0.365771  -0.042781
    H   H33  0.057911  0.626592  0.306964  0.110016
    H   H34  0.936468  0.563200  0.250504  0.051232
    O   O25  0.172332  0.324142  0.265585  -0.401860
    C   C61  0.146539  0.237104  0.240887  0.123457
    H   H35  0.204019  0.229178  0.262161  0.010175
    H   H36  0.103284  0.195691  0.169534  -0.050097
    H   H37  0.110630  0.216573  0.272513  0.042324
    O   O26  0.028865  0.407216  0.733122  -0.294917
    C   C62  0.948377  0.389467  0.674277  0.167492
    H   H38  0.896262  0.330892  0.663510  -0.005499
    H   H39  0.945164  0.378671  0.611674  -0.019177
    H   H40  0.939367  0.445532  0.700897  0.039286
    O   O27  0.032805  0.282460  0.610936  -0.187024
    C   C63  0.122186  0.321522  0.646650  -0.022657
    H   H41  0.155538  0.355766  0.718507  0.019180
    H   H42  0.143534  0.369275  0.625672  0.062081
    H   H43  0.139646  0.271362  0.624103  0.061647
    O   O28  0.890444  0.163603  0.827807  -0.389757
    C   C64  0.890036  0.136160  0.888072  0.045465
    H   H44  0.924706  0.193340  0.953861  0.022538
    H   H45  0.920418  0.095062  0.887360  -0.030461
    H   H46  0.822394  0.096965  0.870375  0.063539
    O   O29  0.078158  0.750221  0.433686  -0.386458
    C   C65  0.069013  0.717307  0.488364  0.053636
    H   H47  0.033160  0.740077  0.516602  0.011038
    H   H48  0.133862  0.741175  0.541789  0.061049
    H   H49  0.034876  0.645313  0.452016  -0.017612
    O   O30  0.785758  0.583974  0.654517  -0.396890
    C   C66  0.826594  0.672654  0.681798  0.035379
    H   H50  0.884030  0.709732  0.747842  0.000297
    H   H51  0.780690  0.696918  0.679738  0.052637
    H   H52  0.848625  0.682436  0.636767  0.049793
    O   O31  0.591618  0.417479  0.718443  -0.353082
    C   C67  0.530552  0.435651  0.732479  -0.095191
    H   H53  0.508077  0.465429  0.694329  0.055475
    H   H54  0.556900  0.477639  0.802626  0.054436
    H   H55  0.473842  0.373772  0.709956  0.080245
    O   O32  0.711432  0.453957  0.855158  -0.361940
    C   C68  0.726657  0.504307  0.937753  0.116106
    H   H56  0.694043  0.543271  0.935594  -0.020382
    H   H57  0.796954  0.546437  0.984786  -0.012829
    H   H58  0.699352  0.460294  0.960176  0.036832
