# Generated by REPEAT Assigner based on pymatgen
data_DB0-m3_o11_o29_f0_pcu.sym.108
_audit_creation_date              2022-05-24
_audit_creation_method            REPEAT_Assigner
_cell_length_a                    27.649656
_cell_length_b                    11.139305
_cell_length_c                    9.898588
_cell_angle_alpha                 89.997362
_cell_angle_beta                  89.992956
_cell_angle_gamma                 89.993639
_cell_volume                      3048.744569
_symmetry_space_group_name_H-M    P1
_symmetry_Int_Tables_number       1
loop_
    _symmetry_equiv_pos_site_id
    _symmetry_equiv_pos_as_xyz
    1  x,y,z
loop_
    _atom_site_type_symbol
    _atom_site_label
    _atom_site_fract_x
    _atom_site_fract_y
    _atom_site_fract_z
    _atom_type_partial_charge
    O   O1   0.504807  0.321243  0.606370  -0.713317
    O   O2   0.502657  0.325339  0.374125  -0.732143
    C   C1   0.503300  0.266891  0.489127  0.852594
    O   O3   0.431574  0.497538  0.619172  -0.684898
    O   O4   0.429584  0.502304  0.386664  -0.679932
    C   C2   0.407901  0.499028  0.504332  0.744422
    Zn  Zn1  0.504049  0.498970  0.649527  1.100997
    Zn  Zn2  0.501102  0.505021  0.342485  1.082978
    O   O5   0.502867  0.678779  0.618428  -0.668202
    O   O6   0.500926  0.682901  0.384951  -0.664010
    O   O7   0.575597  0.502666  0.605716  -0.652160
    O   O8   0.573598  0.506863  0.372551  -0.641664
    C   C3   0.501391  0.736818  0.502880  0.766782
    C   C4   0.597234  0.505335  0.487705  0.712952
    C   C5   0.178774  0.409086  0.441920  0.453668
    O   O9   0.203570  0.321551  0.379177  -0.499481
    N   N1   0.202879  0.494881  0.510296  -0.187200
    C   C6   0.178453  0.581416  0.576595  0.452909
    C   C7   0.279275  0.503274  0.388775  -0.200448
    C   C8   0.329098  0.504220  0.387239  -0.057366
    C   C9   0.330063  0.490381  0.627969  -0.079501
    C   C10  0.280146  0.489279  0.629202  -0.189435
    C   C11  0.254534  0.495646  0.509578  0.269953
    C   C12  0.103081  0.497271  0.504467  0.123028
    C   C13  0.128739  0.409382  0.438123  -0.120409
    C   C14  0.104332  0.322751  0.366784  -0.041828
    C   C15  0.128394  0.583494  0.574550  -0.130273
    C   C16  0.354838  0.497796  0.506832  -0.065783
    H   H1   0.349267  0.484895  0.722837  0.115083
    H   H2   0.261220  0.482111  0.724441  0.140633
    H   H3   0.123442  0.253902  0.311455  0.126399
    C   C17  0.650298  0.506841  0.485157  -0.061852
    C   C18  0.977243  0.407916  0.434024  0.065825
    C   C19  0.977187  0.596565  0.553659  0.057577
    C   C20  0.952286  0.503282  0.491685  0.003846
    C   C21  0.950596  0.313010  0.380192  -0.196626
    C   C22  0.900984  0.315502  0.378383  -0.023752
    C   C23  0.876424  0.412087  0.430585  -0.141238
    C   C24  0.901946  0.505294  0.487552  0.128799
    C   C25  0.876502  0.600393  0.540694  -0.120518
    C   C26  0.826468  0.600961  0.536807  0.451684
    N   N2   0.802192  0.508372  0.481482  -0.192403
    C   C27  0.826370  0.414568  0.428430  0.463442
    C   C28  0.725857  0.511376  0.603311  -0.174204
    C   C29  0.676032  0.510333  0.604938  -0.079701
    C   C30  0.675084  0.504250  0.363765  -0.090400
    C   C31  0.725000  0.504636  0.362484  -0.169912
    C   C32  0.750569  0.508366  0.482260  0.256234
    O   O10  0.801588  0.321632  0.376474  -0.497369
    C   C33  0.027932  0.408996  0.432492  0.034225
    C   C34  0.052739  0.499116  0.500429  0.021543
    C   C35  0.027686  0.591217  0.564131  0.045016
    C   C36  0.054726  0.322488  0.363450  -0.176149
    H   H4   0.657713  0.512244  0.701332  0.108470
    H   H5   0.745489  0.512972  0.697745  0.136854
    H   H6   0.881991  0.239790  0.335526  0.119943
    H   H7   0.966548  0.232244  0.341146  0.138671
    H   H8   0.038903  0.253830  0.301447  0.131079
    O   O11  0.202963  0.668120  0.641580  -0.493099
    C   C37  0.103587  0.671544  0.642575  -0.032115
    H   H9   0.347414  0.510644  0.291088  0.104958
    H   H10  0.259688  0.509939  0.294548  0.143141
    H   H11  0.122343  0.739004  0.700904  0.121698
    C   C38  0.950720  0.693851  0.602564  -0.194462
    C   C39  0.901151  0.695270  0.596374  -0.033557
    O   O12  0.801817  0.695068  0.586599  -0.502068
    C   C40  0.054010  0.675364  0.638071  -0.182623
    H   H12  0.966891  0.773451  0.643869  0.138214
    H   H13  0.655901  0.501512  0.268716  0.111212
    H   H14  0.882273  0.772474  0.636181  0.124191
    H   H15  0.743985  0.503176  0.267007  0.133838
    H   H16  0.037714  0.744937  0.697835  0.132595
    C   C41  0.495475  0.932401  0.392573  -0.020349
    C   C42  0.499297  0.868406  0.506745  -0.311163
    H   H17  0.493162  0.885551  0.296942  0.115768
    H   H18  0.498319  0.910608  0.605081  0.158163
    C   C43  0.489375  0.064303  0.388771  -0.025395
    C   C44  0.504924  0.134852  0.490254  -0.352843
    H   H19  0.521199  0.095383  0.579001  0.182718
    C   C45  0.526598  0.578025  0.921956  0.076205
    N   N3   0.506981  0.494377  0.851369  -0.268599
    H   H20  0.542729  0.654467  0.871423  0.137657
    H   H21  0.497613  0.417044  0.901451  0.251558
    C   C46  0.530140  0.569475  0.070767  0.160249
    N   N4   0.498870  0.510897  0.140620  -0.320841
    H   H22  0.558723  0.617962  0.122070  0.118779
    H   H23  0.469052  0.479104  0.090150  0.268803
    C   C47  0.465471  0.113491  0.267864  0.792792
    O   O13  0.480014  0.084880  0.156128  -0.565783
    N   N5   0.421375  0.179683  0.279636  -0.778722
    H   H24  0.426455  0.263825  0.235461  0.346639
    H   H25  0.413247  0.190846  0.381825  0.289011
