# generated using pymatgen
data_Zn2H12C25(NO2)4
_symmetry_space_group_name_H-M   'P 1'
_cell_length_a   8.52884500
_cell_length_b   10.73754700
_cell_length_c   11.35574400
_cell_angle_alpha   103.68384300
_cell_angle_beta   90.09106700
_cell_angle_gamma   90.00837500
_symmetry_Int_Tables_number   1
_chemical_formula_structural   Zn2H12C25(NO2)4
_chemical_formula_sum   'Zn2 H12 C25 N4 O8'
_cell_volume   1010.42685564
_cell_formula_units_Z   1
loop_
 _symmetry_equiv_pos_site_id
 _symmetry_equiv_pos_as_xyz
  1  'x, y, z'
loop_
 _atom_site_type_symbol
 _atom_site_label
 _atom_site_symmetry_multiplicity
 _atom_site_fract_x
 _atom_site_fract_y
 _atom_site_fract_z
 _atom_site_occupancy
  Zn  Zn1  1  0.50119900  0.51204500  0.13511200  1
  Zn  Zn2  1  0.50094900  0.48674100  0.86749400  1
  H  H1  1  0.61245900  0.89695200  0.01744100  1
  H  H2  1  0.99742800  0.59909300  0.06718400  1
  H  H3  1  0.99757400  0.40050200  0.93581000  1
  H  H4  1  0.25626700  0.90193200  0.99018100  1
  H  H5  1  0.25654100  0.09652400  0.01084900  1
  H  H6  1  0.50272300  0.66829200  0.72513600  1
  H  H7  1  0.50066700  0.26861700  0.67576700  1
  H  H8  1  0.50102000  0.23893600  0.45513200  1
  H  H9  1  0.50133600  0.72930700  0.32398300  1
  H  H10  1  0.50131000  0.33028200  0.28037900  1
  H  H11  1  0.50503500  0.85854900  0.51077300  1
  H  H12  1  0.39141600  0.80569200  0.61001800  1
  C  C1  1  0.99928300  0.69494500  0.05304600  1
  C  C2  1  0.13976600  0.74985400  0.03571400  1
  C  C3  1  0.14312900  0.86861700  0.01071700  1
  C  C4  1  0.86062100  0.75399800  0.03733300  1
  C  C5  1  0.86263000  0.87736800  0.01852600  1
  C  C6  1  0.00490700  0.93715900  0.00921500  1
  C  C7  1  0.00490600  0.06190800  0.99294700  1
  C  C8  1  0.14323100  0.13012500  0.99088400  1
  C  C9  1  0.13975400  0.24913300  0.96638800  1
  C  C10  1  0.72421700  0.94177200  0.00986200  1
  C  C11  1  0.86284900  0.12254200  0.98449000  1
  C  C12  1  0.86094900  0.24561700  0.96580000  1
  C  C13  1  0.99935500  0.30457200  0.94974900  1
  C  C14  1  0.28125800  0.67217700  0.02511200  1
  C  C15  1  0.28124300  0.32661000  0.97711400  1
  C  C16  1  0.71867900  0.32367500  0.97696900  1
  C  C17  1  0.71903600  0.67491900  0.02597200  1
  C  C18  1  0.50076300  0.66628700  0.48933400  1
  C  C19  1  0.50159900  0.64792600  0.36466200  1
  C  C20  1  0.50134800  0.42516800  0.33983700  1
  C  C21  1  0.50109400  0.44008600  0.46389800  1
  C  C22  1  0.50092200  0.56094200  0.53950300  1
  C  C23  1  0.50153100  0.57456100  0.66383300  1
  C  C24  1  0.50088500  0.35145100  0.63714800  1
  C  C25  1  0.50102600  0.33461200  0.51308300  1
  N  N1  1  0.72677700  0.06208100  0.99377100  1
  N  N2  1  0.50113800  0.47020700  0.71024400  1
  N  N3  1  0.50159600  0.52871000  0.29238400  1
  N  N4  1  0.49912400  0.79284400  0.56519400  1
  O  O1  1  0.33192800  0.62002300  0.91552800  1
  O  O2  1  0.33669800  0.64318400  0.12311500  1
  O  O3  1  0.33203000  0.37874400  0.08680300  1
  O  O4  1  0.33634500  0.35558800  0.87913900  1
  O  O5  1  0.66978500  0.37824800  0.08664800  1
  O  O6  1  0.66466000  0.35492000  0.87958400  1
  O  O7  1  0.66975000  0.62049500  0.91628700  1
  O  O8  1  0.66509500  0.64380100  0.12327500  1
