# Generated by REPEAT Assigner based on pymatgen
data_DB0-m3_o16_o540_f0_fsc.sym.4
_audit_creation_date              2022-05-24
_audit_creation_method            REPEAT_Assigner
_cell_length_a                    21.517849
_cell_length_b                    8.555194
_cell_length_c                    12.129415
_cell_angle_alpha                 90.000000
_cell_angle_beta                  82.269392
_cell_angle_gamma                 90.000000
_cell_volume                      2212.602807
_symmetry_space_group_name_H-M    P1
_symmetry_Int_Tables_number       1
loop_
    _symmetry_equiv_pos_site_id
    _symmetry_equiv_pos_as_xyz
    1  x,y,z
loop_
    _atom_site_type_symbol
    _atom_site_label
    _atom_site_fract_x
    _atom_site_fract_y
    _atom_site_fract_z
    _atom_type_partial_charge
    C   C1   0.192222  0.903131  0.727694  0.419439
    C   C2   0.225518  0.089876  0.847577  0.299243
    O   O1   0.203954  0.814888  0.635604  -0.474701
    O   O2   0.271675  0.177778  0.879482  -0.430875
    N   N1   0.237468  0.996705  0.757656  -0.103679
    C   C3   0.326121  0.139669  0.658218  -0.259828
    C   C4   0.327120  0.859604  0.658323  -0.275442
    C   C5   0.381057  0.139667  0.585038  -0.012879
    C   C6   0.381447  0.861028  0.583948  0.059983
    C   C7   0.297520  0.998925  0.691331  0.249884
    C   C8   0.119588  0.997576  0.879507  0.060044
    C   C9   0.133145  0.901655  0.788561  -0.093408
    C   C10  0.166390  0.092245  0.908831  0.000104
    C   C11  0.087609  0.804454  0.758269  -0.039680
    C   C12  0.153811  0.190175  0.998708  -0.120366
    C   C13  0.406379  0.000763  0.543796  -0.222988
    H   H1   0.308133  0.749430  0.690960  0.139021
    H   H2   0.304812  0.249897  0.685325  0.170829
    H   H3   0.097433  0.725514  0.688604  0.113220
    H   H4   0.189319  0.267975  0.022288  0.164066
    C   C14  0.593839  0.998740  0.454273  -0.166182
    C   C15  0.952424  0.911241  0.965331  0.064558
    C   C16  0.988151  0.091761  0.096117  0.066965
    C   C17  0.940720  0.002234  0.060649  0.006803
    C   C18  0.902633  0.829662  0.929895  -0.198719
    C   C19  0.974923  0.175405  0.195054  -0.198766
    C   C20  0.843936  0.832403  0.990355  -0.046392
    C   C21  0.915893  0.174901  0.254139  -0.034256
    C   C22  0.833037  0.917601  0.086881  -0.103922
    C   C23  0.868672  0.090118  0.217085  -0.130943
    C   C24  0.881035  0.003436  0.121202  0.120857
    C   C25  0.809376  0.089237  0.277158  0.450016
    C   C26  0.774074  0.918442  0.148658  0.419341
    N   N2   0.763213  0.003513  0.242611  -0.170618
    C   C27  0.674087  0.860393  0.339409  -0.288897
    C   C28  0.674061  0.140588  0.342494  -0.295212
    C   C29  0.619316  0.859725  0.413091  -0.025824
    C   C30  0.619057  0.138909  0.415042  0.024184
    C   C31  0.703091  0.001241  0.308232  0.341752
    O   O3   0.727000  0.837064  0.113771  -0.496555
    O   O4   0.798093  0.170110  0.372717  -0.498736
    C   C32  0.013108  0.904822  0.907201  0.026777
    C   C33  0.047573  0.094775  0.032921  0.022359
    C   C34  0.059906  0.999021  0.940113  0.050545
    C   C35  0.028499  0.804909  0.816975  -0.170468
    C   C36  0.095222  0.192432  0.059672  -0.149769
    H   H5   0.695222  0.750775  0.310310  0.156440
    H   H6   0.694009  0.250807  0.311858  0.147627
    H   H7   0.806771  0.766739  0.960205  0.123719
    H   H8   0.907676  0.241658  0.330304  0.116602
    H   H9   0.906261  0.764350  0.853810  0.146246
    H   H10  0.009273  0.240565  0.232240  0.147937
    H   H11  0.996652  0.721372  0.789736  0.129317
    H   H12  0.089114  0.276487  0.125866  0.121267
    H   H13  0.449308  0.001436  0.486690  0.129281
    H   H14  0.550722  0.997809  0.510884  0.148168
    O   O5   0.425318  0.330851  0.455561  -0.682854
    O   O6   0.425802  0.669642  0.454480  -0.731613
    O   O7   0.449603  0.336888  0.634466  -0.691416
    O   O8   0.449972  0.664489  0.633494  -0.777316
    C   C37  0.417502  0.281755  0.558683  0.848418
    C   C38  0.418185  0.719639  0.557412  0.929825
    O   O9   0.575056  0.330684  0.544712  -0.753699
    O   O10  0.575441  0.668351  0.543554  -0.714509
    O   O11  0.550619  0.335754  0.364217  -0.737042
    O   O12  0.551129  0.661683  0.363079  -0.661438
    C   C39  0.582375  0.280716  0.441222  0.873149
    C   C40  0.583075  0.717081  0.439665  0.805316
    Zn  Zn1  0.517687  0.500245  0.614711  1.054656
    Zn  Zn2  0.482677  0.499403  0.384378  1.013023
    C   C41  0.376938  0.498462  0.142704  -0.114663
    H   H15  0.326872  0.498429  0.142193  0.055230
    N   N3   0.460353  0.498798  0.250381  0.164216
    C   C42  0.601573  0.502377  0.749878  -0.050731
    C   C43  0.626762  0.503387  0.847953  -0.141333
    C   C44  0.588440  0.502229  0.947957  -0.112845
    C   C45  0.523791  0.500301  0.950062  0.112138
    C   C46  0.499919  0.500322  0.848061  0.020679
    C   C47  0.482371  0.499165  0.050856  -0.015839
    C   C48  0.418396  0.498727  0.046216  0.206553
    C   C49  0.395520  0.499161  0.945708  -0.050236
    C   C50  0.435646  0.500124  0.848714  -0.061891
    C   C51  0.502343  0.498686  0.156635  -0.214843
    C   C52  0.398213  0.498876  0.243609  0.006978
    N   N4   0.539034  0.500927  0.749625  0.057511
    H   H16  0.551014  0.498223  0.167571  0.193139
    H   H17  0.632796  0.502838  0.672336  0.153433
    H   H18  0.611347  0.503245  0.021295  0.146396
    H   H19  0.677099  0.504918  0.846430  0.135626
    H   H20  0.413641  0.501260  0.775318  0.147006
    Cl  Cl1  0.314797  0.498667  0.936521  -0.023587
    Cl  Cl2  0.341358  0.499867  0.361598  -0.014930
