# Generated by REPEAT Assigner based on pymatgen
data_DB0-m2_o21_mot-e
_audit_creation_date              2022-05-24
_audit_creation_method            REPEAT_Assigner
_cell_length_a                    18.600338
_cell_length_b                    38.675526
_cell_length_c                    38.422836
_cell_angle_alpha                 90.015697
_cell_angle_beta                  90.014003
_cell_angle_gamma                 89.933328
_cell_volume                      27640.516289
_symmetry_space_group_name_H-M    P1
_symmetry_Int_Tables_number       1
loop_
    _symmetry_equiv_pos_site_id
    _symmetry_equiv_pos_as_xyz
    1  x,y,z
loop_
    _atom_site_type_symbol
    _atom_site_label
    _atom_site_fract_x
    _atom_site_fract_y
    _atom_site_fract_z
    _atom_type_partial_charge
    O   O1    0.096572  0.471560  0.495757  -0.626503
    O   O2    0.025911  0.470689  0.544258  -0.623820
    C   C1    0.081336  0.458805  0.526448  0.833656
    O   O3    0.094723  0.543811  0.497219  -0.607119
    O   O4    0.023545  0.542939  0.545542  -0.614625
    C   C2    0.078311  0.555690  0.528424  0.779969
    Cu  Cu1   0.040762  0.507208  0.472179  1.043854
    Cu  Cu2   0.959187  0.507308  0.527863  1.041859
    O   O5    0.976408  0.542875  0.454446  -0.614951
    O   O6    0.905236  0.543925  0.502770  -0.611023
    O   O7    0.974066  0.470611  0.455851  -0.618809
    O   O8    0.903397  0.471658  0.504347  -0.624734
    C   C3    0.921652  0.555727  0.471549  0.794145
    C   C4    0.918653  0.458815  0.473680  0.808923
    O   O9    0.426071  0.278138  0.530083  -0.632269
    O   O10   0.425633  0.278384  0.470730  -0.618279
    C   C5    0.401025  0.290294  0.500561  0.837788
    O   O11   0.575072  0.278406  0.529357  -0.621569
    O   O12   0.574602  0.278148  0.470004  -0.632582
    C   C6    0.599596  0.290317  0.499526  0.837153
    Cu  Cu3   0.500465  0.242356  0.534159  1.047198
    Cu  Cu4   0.500425  0.242339  0.465926  1.045468
    O   O13   0.574820  0.206556  0.530077  -0.629535
    O   O14   0.575233  0.206302  0.470725  -0.618055
    O   O15   0.425859  0.206298  0.529369  -0.617643
    O   O16   0.426244  0.206539  0.470017  -0.630745
    C   C7    0.599850  0.194393  0.500554  0.829947
    C   C8    0.401290  0.194379  0.499538  0.836033
    O   O17   0.905446  0.744601  0.302824  -0.613482
    O   O18   0.977660  0.696904  0.301928  -0.618523
    C   C9    0.922436  0.713650  0.314731  0.800967
    O   O19   0.903865  0.746110  0.230109  -0.625249
    O   O20   0.975511  0.698209  0.229239  -0.616113
    C   C10   0.919775  0.715682  0.217264  0.809239
    Cu  Cu5   0.959030  0.769737  0.266043  1.043459
    Cu  Cu6   0.041782  0.714775  0.266120  1.043651
    O   O21   0.025432  0.786236  0.229211  -0.624272
    O   O22   0.097069  0.738337  0.230211  -0.630270
    O   O23   0.023032  0.787666  0.301899  -0.614148
    O   O24   0.095232  0.739966  0.302934  -0.606987
    C   C11   0.081204  0.768742  0.217311  0.841177
    C   C12   0.078200  0.770937  0.314787  0.777357
    O   O25   0.096896  0.746157  0.769878  -0.621705
    O   O26   0.025359  0.698302  0.770792  -0.614797
    C   C13   0.081078  0.715750  0.782739  0.798675
    O   O27   0.975227  0.786361  0.770819  -0.617405
    O   O28   0.903677  0.738512  0.769845  -0.622429
    C   C14   0.919500  0.768915  0.782736  0.809603
    Cu  Cu7   0.041604  0.769790  0.733966  1.042280
    Cu  Cu8   0.958976  0.714877  0.733937  1.037310
    O   O29   0.977530  0.787723  0.698120  -0.617067
    O   O30   0.905419  0.740071  0.697132  -0.616053
    O   O31   0.095175  0.744603  0.697161  -0.609438
    O   O32   0.023064  0.696950  0.698098  -0.616896
    C   C15   0.922378  0.771018  0.685258  0.814611
    C   C16   0.078220  0.713657  0.685263  0.790650
    O   O33   0.974836  0.013947  0.544302  -0.620732
    O   O34   0.904282  0.013021  0.495747  -0.625865
    C   C17   0.919441  0.025805  0.526447  0.826274
    O   O35   0.097448  0.012958  0.504491  -0.625007
    O   O36   0.026907  0.013960  0.455935  -0.620145
    C   C18   0.082272  0.025774  0.473807  0.828914
    Cu  Cu9   0.041610  0.977321  0.527969  1.042688
    Cu  Cu10  0.960187  0.977370  0.472218  1.042737
    O   O37   0.095656  0.940699  0.502927  -0.609614
    O   O38   0.024586  0.941687  0.454549  -0.617350
    O   O39   0.977239  0.941688  0.545596  -0.612521
    O   O40   0.906187  0.940773  0.497214  -0.613525
    C   C19   0.079318  0.928865  0.471699  0.785487
    C   C20   0.922529  0.928914  0.528433  0.804614
    O   O41   0.575101  0.771425  0.036265  -0.624362
    O   O42   0.574863  0.712459  0.036028  -0.635986
    C   C21   0.599787  0.741799  0.048256  0.835314
    O   O43   0.426115  0.772108  0.036006  -0.635336
    O   O44   0.425872  0.713142  0.036268  -0.621400
    C   C22   0.401192  0.742780  0.048243  0.850416
    Cu  Cu11  0.500365  0.776163  0.999983  1.051634
    Cu  Cu12  0.500594  0.708375  0.999999  1.054550
    O   O45   0.425643  0.771363  0.963712  -0.622522
    O   O46   0.426277  0.712398  0.963978  -0.638161
    O   O47   0.574650  0.772112  0.963964  -0.636541
    O   O48   0.575269  0.713146  0.963721  -0.624409
    C   C23   0.401148  0.741714  0.951739  0.835101
    C   C24   0.599757  0.742783  0.951735  0.847957
    C   C25   0.654191  0.317043  0.498989  -0.227669
    C   C26   0.743743  0.362328  0.471747  -0.071059
    C   C27   0.785196  0.385754  0.487676  -0.067826
    C   C28   0.831603  0.408708  0.467937  0.021826
    C   C29   0.697334  0.339363  0.491475  0.011358
    C   C30   0.874715  0.430979  0.460242  -0.210757
    H   H1    0.784164  0.387653  0.515819  0.174606
    H   H2    0.744788  0.360437  0.443604  0.173017
    C   C31   0.125324  0.430974  0.539940  -0.243357
    C   C32   0.201740  0.378324  0.516799  -0.088755
    C   C33   0.269838  0.369727  0.524023  -0.073294
    C   C34   0.303057  0.339334  0.508641  0.023242
    C   C35   0.168519  0.408703  0.532204  0.048143
    C   C36   0.346274  0.317006  0.501101  -0.231049
    H   H3    0.300805  0.385717  0.541682  0.174107
    H   H4    0.170765  0.362338  0.499141  0.171665
    C   C37   0.880898  0.583584  0.455903  -0.209146
    C   C38   0.858064  0.631537  0.408476  -0.070066
    C   C39   0.905542  0.649791  0.389880  -0.074190
    C   C40   0.882046  0.675457  0.364712  0.022433
    C   C41   0.881516  0.605887  0.433671  0.018886
    C   C42   0.881690  0.697880  0.342603  -0.216415
    H   H5    0.962570  0.645367  0.393658  0.178566
    H   H6    0.801041  0.635968  0.404690  0.174339
    C   C43   0.119095  0.583518  0.544039  -0.198872
    C   C44   0.141460  0.633315  0.589551  -0.079645
    C   C45   0.095552  0.647936  0.611985  -0.057400
    C   C46   0.118448  0.675422  0.635248  0.009283
    C   C47   0.118603  0.605836  0.566268  0.018823
    C   C48   0.118922  0.697850  0.657363  -0.204395
    H   H7    0.040276  0.639127  0.612825  0.177312
    H   H8    0.196729  0.642131  0.588719  0.175179
    C   C49   0.126249  0.053597  0.460395  -0.241098
    C   C50   0.202358  0.106362  0.483334  -0.090294
    C   C51   0.270560  0.114820  0.476276  -0.071830
    C   C52   0.303575  0.145309  0.491504  0.022442
    C   C53   0.169342  0.075886  0.468083  0.048902
    C   C54   0.346689  0.167655  0.499000  -0.229877
    H   H9    0.301770  0.098640  0.458869  0.173483
    H   H10   0.171140  0.122539  0.500740  0.172358
    C   C55   0.875404  0.053641  0.539898  -0.238738
    C   C56   0.799046  0.106312  0.516774  -0.091918
    C   C57   0.730967  0.114933  0.523998  -0.067597
    C   C58   0.697779  0.145334  0.508625  0.016596
    C   C59   0.832236  0.075925  0.532170  0.048368
    C   C60   0.654587  0.167675  0.501090  -0.222958
    H   H11   0.699992  0.098958  0.541650  0.172199
    H   H12   0.830030  0.122284  0.499122  0.173424
    C   C61   0.120141  0.901006  0.456094  -0.198147
    C   C62   0.096038  0.855095  0.406698  -0.054605
    C   C63   0.141921  0.832791  0.391972  -0.079863
    C   C64   0.118629  0.809161  0.364829  0.017125
    C   C65   0.119371  0.878706  0.433850  0.006121
    C   C66   0.118828  0.786748  0.342696  -0.197064
    H   H13   0.197503  0.832331  0.400448  0.175136
    H   H14   0.040451  0.855565  0.398231  0.177177
    C   C67   0.876171  0.702104  0.189228  -0.214697
    C   C68   0.786075  0.729635  0.144056  -0.068412
    C   C69   0.744635  0.713955  0.120367  -0.071347
    C   C70   0.697875  0.733690  0.097485  0.008745
    C   C71   0.832832  0.709889  0.166927  0.026554
    C   C72   0.654509  0.741286  0.075129  -0.223514
    H   H15   0.745961  0.686017  0.118197  0.173288
    H   H16   0.784762  0.757573  0.146235  0.175176
    C   C73   0.124893  0.782267  0.189295  -0.253231
    C   C74   0.200019  0.762641  0.134571  -0.078979
    C   C75   0.271308  0.762719  0.129895  -0.080228
    C   C76   0.303141  0.750883  0.097482  0.035161
    C   C77   0.168191  0.774504  0.166974  0.049441
    C   C78   0.346473  0.743319  0.075105  -0.239526
    H   H17   0.305961  0.771787  0.150658  0.174095
    H   H18   0.165360  0.753575  0.113810  0.163313
    C   C79   0.881688  0.786828  0.657355  -0.237179
    C   C80   0.903225  0.831034  0.606182  -0.103453
    C   C81   0.861296  0.857037  0.595356  -0.039806
    C   C82   0.882215  0.878798  0.566263  0.013682
    C   C83   0.882223  0.809244  0.635239  0.046166
    C   C84   0.881735  0.901084  0.544013  -0.219154
    H   H19   0.810760  0.861951  0.608512  0.165993
    H   H20   0.953764  0.826113  0.593030  0.177792
    C   C85   0.654459  0.743318  0.924867  -0.235494
    C   C86   0.744452  0.770644  0.879644  -0.074852
    C   C87   0.785862  0.754966  0.855920  -0.068694
    C   C88   0.832543  0.774708  0.833064  0.027121
    C   C89   0.697768  0.750913  0.902511  0.017294
    C   C90   0.875823  0.782489  0.810763  -0.216852
    H   H21   0.784584  0.727032  0.853701  0.174789
    H   H22   0.745744  0.798578  0.881854  0.174194
    C   C91   0.346411  0.741150  0.924875  -0.221546
    C   C92   0.248905  0.735953  0.875348  -0.057641
    C   C93   0.222248  0.707551  0.860235  -0.091286
    C   C94   0.168115  0.709881  0.833074  0.037475
    C   C95   0.303028  0.733620  0.902516  0.007863
    C   C96   0.124757  0.702174  0.810767  -0.207849
    H   H23   0.241370  0.682339  0.868400  0.176736
    H   H24   0.229781  0.761165  0.867182  0.170545
