# generated using pymatgen
data_Zn3H27C49O12
_symmetry_space_group_name_H-M   'P 1'
_cell_length_a   27.43030900
_cell_length_b   18.87838200
_cell_length_c   16.91113200
_cell_angle_alpha   90.00000000
_cell_angle_beta   63.42428200
_cell_angle_gamma   90.00000000
_symmetry_Int_Tables_number   1
_chemical_formula_structural   Zn3H27C49O12
_chemical_formula_sum   'Zn12 H108 C196 O48'
_cell_volume   7832.00050127
_cell_formula_units_Z   4
loop_
 _symmetry_equiv_pos_site_id
 _symmetry_equiv_pos_as_xyz
  1  'x, y, z'
loop_
 _atom_site_type_symbol
 _atom_site_label
 _atom_site_symmetry_multiplicity
 _atom_site_fract_x
 _atom_site_fract_y
 _atom_site_fract_z
 _atom_site_occupancy
  Zn  Zn1  1  0.78683700  0.20494400  0.52791900  1
  Zn  Zn2  1  0.20636000  0.80456900  0.49283800  1
  Zn  Zn3  1  0.19742200  0.22299500  0.52738700  1
  Zn  Zn4  1  0.79613300  0.77835300  0.49389100  1
  Zn  Zn5  1  0.29495100  0.72126400  0.50364700  1
  Zn  Zn6  1  0.69785200  0.28598700  0.51540700  1
  Zn  Zn7  1  0.70871000  0.69518700  0.47977400  1
  Zn  Zn8  1  0.28613800  0.30633500  0.53778700  1
  Zn  Zn9  1  0.50374300  0.50717900  0.09394600  1
  Zn  Zn10  1  0.48741700  0.49785700  0.92812200  1
  Zn  Zn11  1  0.00200800  0.99842500  0.09541100  1
  Zn  Zn12  1  0.99091400  0.00828100  0.92498600  1
  H  H1  1  0.07019300  0.35739000  0.65233700  1
  H  H2  1  0.92659600  0.64614600  0.35618100  1
  H  H3  1  0.84169600  0.36028100  0.60748300  1
  H  H4  1  0.15147500  0.65027200  0.41309900  1
  H  H5  1  0.58309100  0.81429700  0.58905100  1
  H  H6  1  0.34241000  0.16018200  0.61638800  1
  H  H7  1  0.42010200  0.85491200  0.39938000  1
  H  H8  1  0.57768800  0.15421000  0.64962600  1
  H  H9  1  0.99177000  0.35285200  0.63216400  1
  H  H10  1  0.00510300  0.65142900  0.37628800  1
  H  H11  1  0.91584300  0.36596700  0.63844000  1
  H  H12  1  0.07815300  0.64465600  0.38082600  1
  H  H13  1  0.50849200  0.82003700  0.55768500  1
  H  H14  1  0.41591300  0.15528700  0.65049300  1
  H  H15  1  0.48756900  0.84238300  0.44863100  1
  H  H16  1  0.49350200  0.16009800  0.64635900  1
  H  H17  1  0.62700400  0.34667700  0.02843400  1
  H  H18  1  0.36455300  0.65859200  0.99295200  1
  H  H19  1  0.35378500  0.35575700  0.02266400  1
  H  H20  1  0.63766700  0.64906000  0.99912700  1
  H  H21  1  0.13691100  0.85650300  0.00738000  1
  H  H22  1  0.85583200  0.14958300  0.01308800  1
  H  H23  1  0.86586000  0.84952600  0.98358100  1
  H  H24  1  0.12763600  0.15638200  0.03622500  1
  H  H25  1  0.60946100  0.34612400  0.79000800  1
  H  H26  1  0.38239900  0.66097700  0.23086500  1
  H  H27  1  0.37434500  0.36549300  0.25843500  1
  H  H28  1  0.61961000  0.63423800  0.76116500  1
  H  H29  1  0.11734800  0.86196500  0.77068900  1
  H  H30  1  0.87576000  0.14511400  0.24962900  1
  H  H31  1  0.88035900  0.84658800  0.22442900  1
  H  H32  1  0.11144700  0.16164900  0.79716700  1
  H  H33  1  0.73735300  0.22869500  0.80751600  1
  H  H34  1  0.25555600  0.77989100  0.21179400  1
  H  H35  1  0.24396700  0.24592800  0.25097500  1
  H  H36  1  0.75214700  0.74974400  0.76702500  1
  H  H37  1  0.24724200  0.74394800  0.78156000  1
  H  H38  1  0.74594900  0.26301400  0.23827000  1
  H  H39  1  0.75539900  0.72747000  0.20044400  1
  H  H40  1  0.23765100  0.27913500  0.81954800  1
  H  H41  1  0.62379300  0.18520200  0.01402600  1
  H  H42  1  0.36828900  0.82216600  0.00743900  1
  H  H43  1  0.35436000  0.19425100  0.04999100  1
  H  H44  1  0.64069800  0.80821300  0.96464900  1
  H  H45  1  0.13553900  0.69568500  0.98618700  1
  H  H46  1  0.85826600  0.30929800  0.03159200  1
  H  H47  1  0.86885400  0.68410700  0.00237900  1
  H  H48  1  0.12426900  0.32137200  0.02069200  1
  H  H49  1  0.58957600  0.09421100  0.12482700  1
  H  H50  1  0.40224100  0.91378000  0.89737900  1
  H  H51  1  0.38839400  0.10133100  0.94166300  1
  H  H52  1  0.60779600  0.90503700  0.06738000  1
  H  H53  1  0.10137100  0.60451300  0.09681000  1
  H  H54  1  0.89349900  0.39854300  0.91865000  1
  H  H55  1  0.90268200  0.58842900  0.89806000  1
  H  H56  1  0.09060900  0.41491900  0.12813300  1
  H  H57  1  0.63767100  0.06392800  0.21236600  1
  H  H58  1  0.35434300  0.94393400  0.80947700  1
  H  H59  1  0.34174800  0.07113400  0.85188100  1
  H  H60  1  0.65428000  0.93852900  0.15631300  1
  H  H61  1  0.14883800  0.57520800  0.18560500  1
  H  H62  1  0.84606200  0.42753200  0.82972200  1
  H  H63  1  0.85578700  0.55413200  0.81002000  1
  H  H64  1  0.13790800  0.44626700  0.21658100  1
  H  H65  1  0.72023400  0.12377700  0.18848400  1
  H  H66  1  0.27212000  0.88356000  0.83253900  1
  H  H67  1  0.26068200  0.13280800  0.87122200  1
  H  H68  1  0.73391100  0.87583000  0.14213600  1
  H  H69  1  0.23083700  0.63598200  0.16297000  1
  H  H70  1  0.76280300  0.36905500  0.85513000  1
  H  H71  1  0.77443400  0.61398200  0.82768000  1
  H  H72  1  0.21916600  0.38499600  0.19686100  1
  H  H73  1  0.75339500  0.04125900  0.42088800  1
  H  H74  1  0.75809100  0.95087300  0.41573900  1
  H  H75  1  0.80999100  0.05358800  0.48287400  1
  H  H76  1  0.76344100  0.92961900  0.61328100  1
  H  H77  1  0.73672500  0.01847400  0.63662200  1
  H  H78  1  0.80598300  0.00111000  0.61307200  1
  H  H79  1  0.83462300  0.89737700  0.46284300  1
  H  H80  1  0.87698200  0.97226200  0.45206300  1
  H  H81  1  0.85229300  0.95818300  0.37112500  1
  H  H82  1  0.34074300  0.00237900  0.31609700  1
  H  H83  1  0.31863300  0.08901200  0.35182400  1
  H  H84  1  0.22473100  0.99950700  0.44618900  1
  H  H85  1  0.26011000  0.09967500  0.28689400  1
  H  H86  1  0.21519400  0.11801800  0.40200400  1
  H  H87  1  0.19388800  0.05876200  0.34120800  1
  H  H88  1  0.27752100  0.97487400  0.24512800  1
  H  H89  1  0.21840300  0.93199300  0.32984200  1
  H  H90  1  0.28570800  0.91133700  0.31705900  1
  H  H91  1  0.15357400  0.50507100  0.71938400  1
  H  H92  1  0.17692300  0.59063800  0.67951200  1
  H  H93  1  0.26880300  0.49889900  0.58503400  1
  H  H94  1  0.23670600  0.59952900  0.74313300  1
  H  H95  1  0.28015800  0.61722900  0.62724200  1
  H  H96  1  0.30247800  0.55766900  0.68654200  1
  H  H97  1  0.21812000  0.47487700  0.78608100  1
  H  H98  1  0.27623300  0.43111700  0.70027300  1
  H  H99  1  0.20824900  0.41177000  0.71526300  1
  H  H100  1  0.81709700  0.41130400  0.33812500  1
  H  H101  1  0.84222800  0.49528300  0.29356200  1
  H  H102  1  0.72692000  0.50549700  0.42844000  1
  H  H103  1  0.77865700  0.52783200  0.22697200  1
  H  H104  1  0.78860000  0.59119500  0.29756700  1
  H  H105  1  0.72068400  0.57272200  0.31163800  1
  H  H106  1  0.75815200  0.40316900  0.27251100  1
  H  H107  1  0.69294200  0.44678900  0.32738800  1
  H  H108  1  0.71405800  0.38774600  0.38887700  1
  C  C1  1  0.69722100  0.26764200  0.69414400  1
  C  C2  1  0.29554300  0.74128600  0.32559900  1
  C  C3  1  0.28594400  0.28744200  0.36005800  1
  C  C4  1  0.71002100  0.70888300  0.65807200  1
  C  C5  1  0.20564500  0.78424500  0.67107000  1
  C  C6  1  0.78760900  0.22338800  0.34890300  1
  C  C7  1  0.79474000  0.76477800  0.31583100  1
  C  C8  1  0.19784400  0.24172500  0.70469200  1
  C  C9  1  0.68507900  0.12404000  0.55161200  1
  C  C10  1  0.30823900  0.88433500  0.46585900  1
  C  C11  1  0.29910300  0.14384900  0.50288900  1
  C  C12  1  0.69189200  0.85625000  0.52580400  1
  C  C13  1  0.19437200  0.64140700  0.52693800  1
  C  C14  1  0.79936800  0.36608200  0.49261200  1
  C  C15  1  0.81365900  0.61886700  0.44443400  1
  C  C16  1  0.18278500  0.38476100  0.56814100  1
  C  C17  1  0.52753300  0.99292100  0.57389900  1
  C  C18  1  0.43771700  0.00120200  0.53974000  1
  C  C19  1  0.04418600  0.50522700  0.52069700  1
  C  C20  1  0.95144800  0.50129100  0.49269400  1
  C  C21  1  0.49721000  0.05456100  0.59316800  1
  C  C22  1  0.46780600  0.93968400  0.52332000  1
  C  C23  1  0.44936900  0.05680400  0.58193200  1
  C  C24  1  0.50832600  0.93369600  0.55028500  1
  C  C25  1  0.03650300  0.55663400  0.46875000  1
  C  C26  1  0.95881200  0.45053300  0.54558100  1
  C  C27  1  0.98954700  0.55511600  0.45535900  1
  C  C28  1  0.00629900  0.45114100  0.55729800  1
  C  C29  1  0.60480900  0.92621300  0.56393300  1
  C  C30  1  0.36388000  0.06655700  0.53368100  1
  C  C31  1  0.38482900  0.95018100  0.47311200  1
  C  C32  1  0.60099400  0.05149400  0.58681100  1
  C  C33  1  0.10219200  0.45231500  0.57703700  1
  C  C34  1  0.89437000  0.55249500  0.43367600  1
  C  C35  1  0.86871100  0.44319500  0.50954600  1
  C  C36  1  0.12590300  0.56424300  0.50674200  1
  C  C37  1  0.66043200  0.92477100  0.54466800  1
  C  C38  1  0.32759200  0.07532800  0.49616000  1
  C  C39  1  0.33906000  0.95164800  0.45760300  1
  C  C40  1  0.65724300  0.05402000  0.56096900  1
  C  C41  1  0.15132900  0.45195800  0.58244800  1
  C  C42  1  0.84559300  0.55250500  0.42747100  1
  C  C43  1  0.82936400  0.43367700  0.47879100  1
  C  C44  1  0.16476600  0.57337800  0.53850100  1
  C  C45  1  0.68812200  0.99050700  0.53223300  1
  C  C46  1  0.31725400  0.01764800  0.45315300  1
  C  C47  1  0.17535200  0.51699100  0.58240600  1
  C  C48  1  0.82033100  0.48807200  0.43105900  1
  C  C49  1  0.57807900  0.99029200  0.57460200  1
  C  C50  1  0.39572600  0.00635400  0.51488900  1
  C  C51  1  0.09025000  0.50772900  0.53583100  1
  C  C52  1  0.90542000  0.49842600  0.47753400  1
  C  C53  1  0.06478200  0.39846800  0.61258100  1
  C  C54  1  0.93199500  0.60584300  0.39689800  1
  C  C55  1  0.87308000  0.39812000  0.57026600  1
  C  C56  1  0.12086300  0.61097000  0.44814300  1
  C  C57  1  0.57392500  0.86571400  0.57242300  1
  C  C58  1  0.37042900  0.11691300  0.58805700  1
  C  C59  1  0.42082900  0.89384800  0.44554600  1
  C  C60  1  0.56653200  0.10919600  0.62212300  1
  C  C61  1  0.01755300  0.39795700  0.60365200  1
  C  C62  1  0.97892000  0.60707500  0.40673000  1
  C  C63  1  0.91698900  0.40199000  0.58848000  1
  C  C64  1  0.07746600  0.60683400  0.42868700  1
  C  C65  1  0.52877800  0.86900700  0.55789700  1
  C  C66  1  0.41318200  0.11320600  0.60976500  1
  C  C67  1  0.46051200  0.88726400  0.47288400  1
  C  C68  1  0.51581400  0.11137300  0.62398000  1
  C  C69  1  0.63936600  0.32852800  0.96159000  1
  C  C70  1  0.35247100  0.67742600  0.05944400  1
  C  C71  1  0.34187600  0.34083900  0.09050100  1
  C  C72  1  0.65078300  0.66178100  0.93031000  1
  C  C73  1  0.14902100  0.84033400  0.93989000  1
  C  C74  1  0.84380400  0.16601600  0.08046200  1
  C  C75  1  0.85284600  0.83072500  0.05033700  1
  C  C76  1  0.14020800  0.17578300  0.96983000  1
  C  C77  1  0.61204600  0.35019300  0.91424600  1
  C  C78  1  0.37956000  0.65572200  0.10708400  1
  C  C79  1  0.37032000  0.36464600  0.13500300  1
  C  C80  1  0.62230800  0.63788800  0.88577000  1
  C  C81  1  0.12090800  0.86313400  0.89434900  1
  C  C82  1  0.87201800  0.14349400  0.12600700  1
  C  C83  1  0.87889500  0.85237800  0.09964200  1
  C  C84  1  0.11374600  0.15475700  0.92102300  1
  C  C85  1  0.62966300  0.32744900  0.82807200  1
  C  C86  1  0.36223100  0.67958700  0.19272800  1
  C  C87  1  0.35302800  0.34559300  0.22264200  1
  C  C88  1  0.64097200  0.65406400  0.79692800  1
  C  C89  1  0.13842000  0.84280700  0.80720300  1
  C  C90  1  0.85468200  0.16410200  0.21303900  1
  C  C91  1  0.86079200  0.82839300  0.18521900  1
  C  C92  1  0.13141900  0.17948300  0.83589700  1
  C  C93  1  0.67497100  0.28431300  0.78865600  1
  C  C94  1  0.31741100  0.72380600  0.23139200  1
  C  C95  1  0.30738000  0.30305700  0.26530900  1
  C  C96  1  0.68794100  0.69395400  0.75317800  1
  C  C97  1  0.18398100  0.80012000  0.76573800  1
  C  C98  1  0.80924900  0.20695700  0.25432100  1
  C  C99  1  0.81625200  0.78398100  0.22238500  1
  C  C100  1  0.17617400  0.22362800  0.79842300  1
  C  C101  1  0.70156800  0.26190700  0.83703400  1
  C  C102  1  0.29099200  0.74602100  0.18278700  1
  C  C103  1  0.27987200  0.27868400  0.21930500  1
  C  C104  1  0.71543100  0.71855500  0.79925000  1
  C  C105  1  0.21127500  0.77668800  0.81254500  1
  C  C106  1  0.78184100  0.23012900  0.20745600  1
  C  C107  1  0.79056400  0.76187300  0.17257800  1
  C  C108  1  0.20224700  0.24515100  0.84774200  1
  C  C109  1  0.68385500  0.28426200  0.92328300  1
  C  C110  1  0.30850800  0.72259500  0.09702700  1
  C  C111  1  0.29694100  0.29813800  0.13239600  1
  C  C112  1  0.69709200  0.70198500  0.88732600  1
  C  C113  1  0.19399500  0.79734200  0.89920900  1
  C  C114  1  0.79889100  0.20914200  0.12092700  1
  C  C115  1  0.80893500  0.78530900  0.08663000  1
  C  C116  1  0.18412400  0.22113600  0.93338300  1
  C  C117  1  0.64623500  0.17476200  0.05135400  1
  C  C118  1  0.34587700  0.83269100  0.97007500  1
  C  C119  1  0.33255500  0.18373300  0.01165800  1
  C  C120  1  0.66236100  0.82004300  0.00286000  1
  C  C121  1  0.15771300  0.68560300  0.02403500  1
  C  C122  1  0.83605100  0.31929800  0.99379400  1
  C  C123  1  0.84677500  0.67157200  0.96502300  1
  C  C124  1  0.14642900  0.33245500  0.05832000  1
  C  C125  1  0.62633600  0.12230400  0.11422700  1
  C  C126  1  0.36563500  0.88546700  0.90760800  1
  C  C127  1  0.35230500  0.13016700  0.95028100  1
  C  C128  1  0.64326500  0.87583400  0.06101900  1
  C  C129  1  0.13787100  0.63301400  0.08674900  1
  C  C130  1  0.85650200  0.37081800  0.92976800  1
  C  C131  1  0.86648700  0.61655500  0.90580600  1
  C  C132  1  0.12682700  0.38630200  0.11930800  1
  C  C133  1  0.65331000  0.10523300  0.16304700  1
  C  C134  1  0.33875400  0.90249600  0.85862400  1
  C  C135  1  0.32612500  0.11311000  0.90022100  1
  C  C136  1  0.66933200  0.89468500  0.11066400  1
  C  C137  1  0.16450700  0.61645200  0.13625300  1
  C  C138  1  0.82985800  0.38728300  0.88026600  1
  C  C139  1  0.84013700  0.59716200  0.85679500  1
  C  C140  1  0.15336900  0.40398800  0.16861000  1
  C  C141  1  0.70042600  0.14027600  0.14899200  1
  C  C142  1  0.29185000  0.86712700  0.87217400  1
  C  C143  1  0.27985600  0.14912900  0.91174800  1
  C  C144  1  0.71479000  0.85813500  0.10206400  1
  C  C145  1  0.21130700  0.65200000  0.12286700  1
  C  C146  1  0.78236600  0.35290000  0.89511900  1
  C  C147  1  0.79377500  0.63231600  0.86712500  1
  C  C148  1  0.19973800  0.36814600  0.15693300  1
  C  C149  1  0.72074600  0.19421400  0.08651100  1
  C  C150  1  0.27173200  0.81282600  0.93418000  1
  C  C151  1  0.25962000  0.20391000  0.97302000  1
  C  C152  1  0.73450000  0.80132500  0.04383300  1
  C  C153  1  0.23160200  0.70593900  0.06038100  1
  C  C154  1  0.76154600  0.29979400  0.95865600  1
  C  C155  1  0.77381500  0.68896500  0.92556600  1
  C  C156  1  0.21968400  0.31282700  0.09639500  1
  C  C157  1  0.69341400  0.21152300  0.03721000  1
  C  C158  1  0.29895400  0.79557900  0.98358800  1
  C  C159  1  0.28628400  0.22148400  0.02310000  1
  C  C160  1  0.70792900  0.78192900  0.99410900  1
  C  C161  1  0.20448800  0.72298300  0.01075500  1
  C  C162  1  0.78874900  0.28271000  0.00821600  1
  C  C163  1  0.80051100  0.70861900  0.97502500  1
  C  C164  1  0.19286800  0.29498900  0.04661800  1
  C  C165  1  0.76837100  0.22996400  0.07221300  1
  C  C166  1  0.22447500  0.77649700  0.94778800  1
  C  C167  1  0.21299500  0.24079100  0.98473200  1
  C  C168  1  0.78058300  0.76436900  0.03468900  1
  C  C169  1  0.27881200  0.74230600  0.04682000  1
  C  C170  1  0.71377100  0.26431500  0.97328100  1
  C  C171  1  0.72727700  0.72534500  0.93552300  1
  C  C172  1  0.26643700  0.27609100  0.08449000  1
  C  C173  1  0.06991000  0.10235000  0.95603500  1
  C  C174  1  0.92294000  0.90446200  0.06442400  1
  C  C175  1  0.91807300  0.09474000  0.08334300  1
  C  C176  1  0.07484900  0.91192900  0.93705100  1
  C  C177  1  0.57477700  0.59190200  0.93193900  1
  C  C178  1  0.41661200  0.41277700  0.08996200  1
  C  C179  1  0.42332900  0.60304900  0.06989700  1
  C  C180  1  0.56786100  0.40211500  0.95210500  1
  C  C181  1  0.74821000  0.99472500  0.46390600  1
  C  C182  1  0.79263900  0.99958000  0.49700200  1
  C  C183  1  0.77289700  0.98597800  0.59573000  1
  C  C184  1  0.84175600  0.95341500  0.44233600  1
  C  C185  1  0.30930300  0.03281900  0.37146700  1
  C  C186  1  0.25338500  0.01426400  0.37758100  1
  C  C187  1  0.22953000  0.07690800  0.35020700  1
  C  C188  1  0.25920000  0.95421200  0.31376000  1
  C  C189  1  0.18492600  0.53387400  0.66209700  1
  C  C190  1  0.24109200  0.51414400  0.65392600  1
  C  C191  1  0.26634000  0.57634600  0.67935600  1
  C  C192  1  0.23549000  0.45407200  0.71756400  1
  C  C193  1  0.81037800  0.46866800  0.35242900  1
  C  C194  1  0.75460700  0.48952900  0.35984700  1
  C  C195  1  0.76113400  0.54919700  0.29523900  1
  C  C196  1  0.72864600  0.42759700  0.33550000  1
  O  O1  1  0.74446000  0.23540600  0.65577500  1
  O  O2  1  0.24882900  0.77503600  0.36453000  1
  O  O3  1  0.23967800  0.25314400  0.39935700  1
  O  O4  1  0.75607900  0.74355300  0.62022800  1
  O  O5  1  0.25209600  0.75032500  0.63197800  1
  O  O6  1  0.74113000  0.25719000  0.38712900  1
  O  O7  1  0.74912100  0.72888300  0.35290600  1
  O  O8  1  0.24447500  0.27564700  0.66578700  1
  O  O9  1  0.66263400  0.18300400  0.54249200  1
  O  O10  1  0.32927500  0.82452000  0.47537800  1
  O  O11  1  0.32215900  0.20388500  0.50722200  1
  O  O12  1  0.67138200  0.79664600  0.51418400  1
  O  O13  1  0.17148200  0.70141100  0.52176100  1
  O  O14  1  0.82306900  0.30711800  0.49777600  1
  O  O15  1  0.83453400  0.67778300  0.45701600  1
  O  O16  1  0.16149600  0.32540400  0.55756900  1
  O  O17  1  0.73376800  0.12473700  0.54692400  1
  O  O18  1  0.25811500  0.88652400  0.47516700  1
  O  O19  1  0.24961000  0.14175400  0.50973700  1
  O  O20  1  0.74118900  0.85728600  0.51880900  1
  O  O21  1  0.24380100  0.63907000  0.52011700  1
  O  O22  1  0.74972800  0.36730400  0.49953600  1
  O  O23  1  0.76310900  0.61562200  0.45613700  1
  O  O24  1  0.23318200  0.38712700  0.55748700  1
  O  O25  1  0.67085500  0.28973400  0.65044000  1
  O  O26  1  0.32161300  0.71739500  0.36879000  1
  O  O27  1  0.31191800  0.31178800  0.40313000  1
  O  O28  1  0.68390000  0.68661700  0.61404400  1
  O  O29  1  0.17989800  0.80885800  0.62771300  1
  O  O30  1  0.81313800  0.19941900  0.39308000  1
  O  O31  1  0.82038600  0.78798300  0.36005700  1
  O  O32  1  0.17139600  0.21819300  0.66197400  1
  O  O33  1  0.05816600  0.07315200  0.03277200  1
  O  O34  1  0.93474700  0.93356600  0.98761900  1
  O  O35  1  0.93128700  0.07440800  0.00208400  1
  O  O36  1  0.06162600  0.93227700  0.01831100  1
  O  O37  1  0.56299500  0.57200800  0.01285700  1
  O  O38  1  0.42821600  0.43295900  0.00920700  1
  O  O39  1  0.43310900  0.57373500  0.99394400  1
  O  O40  1  0.55808800  0.43134000  0.02812100  1
  O  O41  1  0.94267500  0.07114700  0.12915300  1
  O  O42  1  0.05025400  0.93556600  0.89125400  1
  O  O43  1  0.04644200  0.08379900  0.90652700  1
  O  O44  1  0.94645000  0.92294200  0.11390000  1
  O  O45  1  0.44847800  0.58401600  0.11674000  1
  O  O46  1  0.54267300  0.42103100  0.90529900  1
  O  O47  1  0.54801500  0.56917000  0.88916400  1
  O  O48  1  0.44322600  0.43574900  0.13285500  1
