# generated using pymatgen
data_FeH8(C2O)9
_symmetry_space_group_name_H-M   'P 1'
_cell_length_a   15.38004800
_cell_length_b   12.90368600
_cell_length_c   13.66666400
_cell_angle_alpha   68.18544300
_cell_angle_beta   101.72445400
_cell_angle_gamma   119.86203300
_symmetry_Int_Tables_number   1
_chemical_formula_structural   FeH8(C2O)9
_chemical_formula_sum   'Fe2 H16 C36 O18'
_cell_volume   2183.16783506
_cell_formula_units_Z   2
loop_
 _symmetry_equiv_pos_site_id
 _symmetry_equiv_pos_as_xyz
  1  'x, y, z'
loop_
 _atom_site_type_symbol
 _atom_site_label
 _atom_site_symmetry_multiplicity
 _atom_site_fract_x
 _atom_site_fract_y
 _atom_site_fract_z
 _atom_site_occupancy
  Fe  Fe1  1  0.50396400  0.01538600  0.77678400  1
  Fe  Fe2  1  0.50711700  0.98225700  0.22766400  1
  H  H1  1  0.81352000  0.06540500  0.22014600  1
  H  H2  1  0.96974700  0.08821000  0.18166600  1
  H  H3  1  0.84182000  0.00557600  0.89581900  1
  H  H4  1  0.93861400  0.90013000  0.95708300  1
  H  H5  1  0.04934900  0.94676000  0.81177900  1
  H  H6  1  0.20402300  0.96089500  0.77418600  1
  H  H7  1  0.16713700  0.98141600  0.11345400  1
  H  H8  1  0.43937600  0.55092700  0.40035100  1
  H  H9  1  0.53635900  0.43442900  0.59768800  1
  H  H10  1  0.53848800  0.54243900  0.30413000  1
  H  H11  1  0.49965400  0.87722100  0.53392500  1
  H  H12  1  0.40792200  0.53953700  0.79749400  1
  H  H13  1  0.51979100  0.12414200  0.47533000  1
  H  H14  1  0.54939300  0.43470800  0.19785700  1
  H  H15  1  0.10930200  0.11196500  0.11961700  1
  H  H16  1  0.32560300  0.36127200  0.68495800  1
  C  C1  1  0.81904600  0.05381100  0.14766100  1
  C  C2  1  0.90756900  0.06572600  0.12620900  1
  C  C3  1  0.91452900  0.04162100  0.03873200  1
  C  C4  1  0.83378200  0.01499300  0.96830300  1
  C  C5  1  0.74488300  0.00679800  0.98741000  1
  C  C6  1  0.73653200  0.02041100  0.08113300  1
  C  C7  1  0.00917100  0.04942700  0.02054300  1
  C  C8  1  0.00893100  0.96903800  0.98028700  1
  C  C9  1  0.10985900  0.95866600  0.86990200  1
  C  C10  1  0.19680900  0.96541700  0.84934700  1
  C  C11  1  0.27660300  0.98567100  0.92064000  1
  C  C12  1  0.26614800  0.98990900  0.01796900  1
  C  C13  1  0.17801000  0.98284900  0.03741100  1
  C  C14  1  0.10178600  0.97315900  0.96187500  1
  C  C15  1  0.49238500  0.20213100  0.60729700  1
  C  C16  1  0.37131700  0.01080700  0.88611900  1
  C  C17  1  0.66566400  0.99431700  0.90401500  1
  C  C18  1  0.46040900  0.79047900  0.73738700  1
  C  C19  1  0.53475900  0.19890000  0.26712800  1
  C  C20  1  0.34253300  0.99445500  0.10386900  1
  C  C21  1  0.64154100  0.99189100  0.11741800  1
  C  C22  1  0.51289300  0.79376800  0.39904100  1
  C  C23  1  0.47950400  0.77837200  0.56947800  1
  C  C24  1  0.48034700  0.71684700  0.50688300  1
  C  C25  1  0.45864000  0.59134000  0.54878500  1
  C  C26  1  0.43012900  0.52736000  0.65363900  1
  C  C27  1  0.42913200  0.59037700  0.71603000  1
  C  C28  1  0.45541100  0.71709200  0.67428000  1
  C  C29  1  0.46591500  0.52941500  0.48142300  1
  C  C30  1  0.50819900  0.45274800  0.51706200  1
  C  C31  1  0.51744500  0.27606000  0.49717100  1
  C  C32  1  0.52545200  0.21696800  0.43649200  1
  C  C33  1  0.53545000  0.27140600  0.32880400  1
  C  C34  1  0.54071800  0.38937800  0.28202900  1
  C  C35  1  0.53289200  0.44962500  0.34269900  1
  C  C36  1  0.51877400  0.39207600  0.45066800  1
  O  O1  1  0.56342700  0.18648900  0.67293400  1
  O  O2  1  0.45255500  0.11626900  0.88665900  1
  O  O3  1  0.39899700  0.11582500  0.62765600  1
  O  O4  1  0.37148500  0.93922100  0.83854800  1
  O  O5  1  0.59357900  0.02023100  0.90595700  1
  O  O6  1  0.67364300  0.97181100  0.82108700  1
  O  O7  1  0.49074000  0.91164700  0.69058400  1
  O  O8  1  0.43949500  0.73872300  0.83794900  1
  O  O9  1  0.51824800  0.08204600  0.31674700  1
  O  O10  1  0.54390100  0.24613400  0.16437900  1
  O  O11  1  0.42066900  0.98281700  0.09607400  1
  O  O12  1  0.32865700  0.00087900  0.19261300  1
  O  O13  1  0.60591700  0.88359900  0.38607200  1
  O  O14  1  0.64108600  0.05954200  0.16890900  1
  O  O15  1  0.44500200  0.80888600  0.32778400  1
  O  O16  1  0.56038900  0.88751200  0.11391600  1
  O  O17  1  0.09822100  0.14313000  0.04259300  1
  O  O18  1  0.39935100  0.40069400  0.69576400  1
