# Generated by REPEAT Assigner based on pymatgen
data_DB0-m3_o24_o25_f0_pcu.sym.30_sqe
_audit_creation_date              2022-05-24
_audit_creation_method            REPEAT_Assigner
_cell_length_a                    16.001490
_cell_length_b                    10.798600
_cell_length_c                    9.742905
_cell_angle_alpha                 90.008070
_cell_angle_beta                  89.992254
_cell_angle_gamma                 89.994220
_cell_volume                      1683.512512
_symmetry_space_group_name_H-M    P1
_symmetry_Int_Tables_number       1
loop_
    _symmetry_equiv_pos_site_id
    _symmetry_equiv_pos_as_xyz
    1  x,y,z
loop_
    _atom_site_type_symbol
    _atom_site_label
    _atom_site_fract_x
    _atom_site_fract_y
    _atom_site_fract_z
    _atom_type_partial_charge
    O   O1    0.498284  0.316636  0.622305  -0.763673
    O   O2    0.501718  0.683364  0.377694  -0.763807
    O   O3    0.501574  0.314430  0.385111  -0.672184
    O   O4    0.498428  0.685571  0.614888  -0.672690
    C   C1    0.499805  0.257997  0.504282  0.725490
    C   C2    0.500197  0.742004  0.495717  0.726787
    O   O5    0.374121  0.501141  0.613323  -0.578559
    O   O6    0.625880  0.498859  0.386676  -0.578522
    O   O7    0.376973  0.498937  0.376115  -0.710932
    O   O8    0.623029  0.501064  0.623884  -0.710707
    C   C3    0.336771  0.500050  0.493543  0.796039
    C   C4    0.663231  0.499951  0.506456  0.796028
    Zn  Zn1   0.497949  0.501768  0.656411  1.036804
    Zn  Zn2   0.502053  0.498233  0.343588  1.036835
    C   C5    0.974041  0.399556  0.566063  -0.105083
    C   C6    0.025961  0.600445  0.433936  -0.104966
    C   C7    0.026007  0.399156  0.434695  -0.130860
    C   C8    0.973994  0.600845  0.565304  -0.130723
    H   H1    0.049059  0.316506  0.378715  0.061816
    H   H2    0.950943  0.683495  0.621284  0.061810
    H   H3    0.951026  0.317248  0.622662  0.058052
    H   H4    0.048975  0.682752  0.377337  0.058036
    C   C9    0.247100  0.500040  0.491525  -0.126885
    C   C10   0.752902  0.499961  0.508474  -0.127020
    C   C11   0.029634  0.500408  0.624325  -0.136082
    C   C12   0.970368  0.499593  0.375674  -0.135838
    C   C13   0.080377  0.500012  0.494604  0.717049
    C   C14   0.919625  0.499988  0.505395  0.716312
    C   C15   0.171795  0.500030  0.492044  -0.381160
    C   C16   0.828207  0.499971  0.507955  -0.380888
    C   C17   0.495021  0.036492  0.628042  0.291209
    C   C18   0.504981  0.963509  0.371957  0.293205
    C   C19   0.565472  0.957667  0.570133  -0.131269
    C   C20   0.434530  0.042334  0.429866  -0.133458
    H   H5    0.620219  0.921984  0.627617  0.131656
    H   H6    0.379783  0.078017  0.372382  0.131934
    C   C21   0.500869  0.879822  0.495721  0.194554
    C   C22   0.499133  0.120179  0.504278  0.197088
    C   C23   0.431244  0.957508  0.554409  -0.243839
    C   C24   0.568758  0.042493  0.445590  -0.245458
    C   C25   0.467431  0.403356  0.046707  -0.057177
    C   C26   0.532571  0.596645  0.953292  -0.057381
    C   C27   0.536873  0.409318  0.943221  0.454590
    C   C28   0.463128  0.590683  0.056778  0.455092
    H   H7    0.569928  0.330782  0.894052  -0.007475
    H   H8    0.430074  0.669219  0.105947  -0.007808
    N   N1    0.494803  0.505122  0.861766  0.311943
    N   N2    0.505198  0.494878  0.138233  0.311746
    C   C29   0.425657  0.498237  0.959622  -0.450084
    C   C30   0.574345  0.501764  0.040377  -0.449859
    Br  Br1   0.923096  0.498985  0.193104  -0.064815
    Br  Br2   0.076906  0.501015  0.806895  -0.064823
    Br  Br3   0.484839  0.087286  0.817590  -0.169506
    Br  Br4   0.515163  0.912715  0.182409  -0.169700
    Br  Br5   0.330542  0.891966  0.636458  -0.074370
    Br  Br6   0.669460  0.108034  0.363541  -0.074003
    Br  Br7   0.414403  0.253960  0.112782  -0.005285
    Br  Br8   0.585599  0.746040  0.887217  -0.004941
    Br  Br9   0.309459  0.493700  0.905435  0.028839
    Br  Br10  0.690542  0.506301  0.094564  0.028920
