# generated using pymatgen
data_Zn2H19C42Br(N3O4)2
_symmetry_space_group_name_H-M   'P 1'
_cell_length_a   9.15514500
_cell_length_b   13.39019400
_cell_length_c   16.23595000
_cell_angle_alpha   90.04920100
_cell_angle_beta   94.64719900
_cell_angle_gamma   90.58887900
_symmetry_Int_Tables_number   1
_chemical_formula_structural   Zn2H19C42Br(N3O4)2
_chemical_formula_sum   'Zn2 H19 C42 Br1 N6 O8'
_cell_volume   1983.70062887
_cell_formula_units_Z   1
loop_
 _symmetry_equiv_pos_site_id
 _symmetry_equiv_pos_as_xyz
  1  'x, y, z'
loop_
 _atom_site_type_symbol
 _atom_site_label
 _atom_site_symmetry_multiplicity
 _atom_site_fract_x
 _atom_site_fract_y
 _atom_site_fract_z
 _atom_site_occupancy
  Zn  Zn1  1  0.16704700  0.48858300  0.50669200  1
  Zn  Zn2  1  0.84266200  0.51214500  0.49034300  1
  H  H1  1  0.83847400  0.31496800  0.97968100  1
  H  H2  1  0.96411800  0.00102900  0.27586900  1
  H  H3  1  0.16448100  0.69212700  0.01761400  1
  H  H4  1  0.03953800  0.00760300  0.72060300  1
  H  H5  1  0.89001400  0.03939600  0.04087300  1
  H  H6  1  0.09823000  0.96518600  0.95544600  1
  H  H7  1  0.12454500  0.60308700  0.89918300  1
  H  H8  1  0.99446700  0.83179500  0.66470000  1
  H  H9  1  0.04455700  0.16705600  0.66197600  1
  H  H10  1  0.86940000  0.45020200  0.72401300  1
  H  H11  1  0.82546800  0.39204700  0.86097200  1
  H  H12  1  0.88900700  0.40296100  0.09807600  1
  H  H13  1  0.00494100  0.16974400  0.33123300  1
  H  H14  1  0.15742100  0.55818300  0.27411500  1
  H  H15  1  0.19296900  0.61907300  0.13718200  1
  H  H16  1  0.09472100  0.53883200  0.75814900  1
  H  H17  1  0.92665100  0.46597800  0.23945500  1
  H  H18  1  0.63272600  0.64557800  0.55154700  1
  H  H19  1  0.35441600  0.63653200  0.52514000  1
  C  C1  1  0.96350700  0.18252500  0.78258100  1
  C  C2  1  0.90853100  0.24537000  0.83784900  1
  C  C3  1  0.90410600  0.19481700  0.91101200  1
  C  C4  1  0.98427100  0.09198900  0.82203100  1
  C  C5  1  0.87115000  0.23786500  0.98153900  1
  C  C6  1  0.90082500  0.19522800  0.06430400  1
  C  C7  1  0.92298000  0.25066600  0.13599000  1
  C  C8  1  0.95371200  0.18616200  0.19956700  1
  C  C9  1  0.94827600  0.09094900  0.16475900  1
  C  C10  1  0.96745800  0.99654500  0.20999800  1
  C  C11  1  0.00453600  0.91090500  0.17459600  1
  C  C12  1  0.03073200  0.82076000  0.21491400  1
  C  C13  1  0.09182100  0.76028500  0.15969500  1
  C  C14  1  0.09095200  0.81023100  0.08594100  1
  C  C15  1  0.12676600  0.76809700  0.01545100  1
  C  C16  1  0.09580700  0.80967800  0.93225400  1
  C  C17  1  0.07935200  0.75384100  0.86054900  1
  C  C18  1  0.04627400  0.81743500  0.79648600  1
  C  C19  1  0.04557600  0.91283600  0.83107900  1
  C  C20  1  0.02528600  0.00767400  0.78614000  1
  C  C21  1  0.09517000  0.65327400  0.84868000  1
  C  C22  1  0.07689100  0.61714100  0.76893700  1
  C  C23  1  0.03626600  0.67896700  0.70247600  1
  C  C24  1  0.02146400  0.78175800  0.71574800  1
  C  C25  1  0.99631600  0.21516900  0.70558100  1
  C  C26  1  0.96538700  0.31387600  0.68650300  1
  C  C27  1  0.89837200  0.37460000  0.74121000  1
  C  C28  1  0.87271700  0.34193800  0.81859400  1
  C  C29  1  0.91537200  0.35174300  0.14827300  1
  C  C30  1  0.93806500  0.38711300  0.22812300  1
  C  C31  1  0.97356400  0.32358700  0.29419800  1
  C  C32  1  0.98148100  0.22064800  0.28037900  1
  C  C33  1  0.99873100  0.78400900  0.29156800  1
  C  C34  1  0.04416600  0.68819300  0.31096800  1
  C  C35  1  0.11993000  0.63216100  0.25703300  1
  C  C36  1  0.13978400  0.66616700  0.17937900  1
  C  C37  1  0.02207700  0.63037700  0.62034500  1
  C  C38  1  0.98762500  0.35900500  0.60757000  1
  C  C39  1  0.98759600  0.37055300  0.37676600  1
  C  C40  1  0.02189500  0.64117600  0.38917100  1
  C  C41  1  0.57849700  0.58274600  0.51974600  1
  C  C42  1  0.41931900  0.57021400  0.51995700  1
  Br  Br1  1  0.88576000  0.85114400  0.36821600  1
  N  N1  1  0.94995500  0.10010400  0.90156500  1
  N  N2  1  0.91397700  0.09762400  0.08231700  1
  N  N3  1  0.03832700  0.90315300  0.09491000  1
  N  N4  1  0.07767000  0.90675400  0.91381600  1
  N  N5  1  0.65035200  0.51738400  0.48286600  1
  N  N6  1  0.35937500  0.48261300  0.51396900  1
  O  O1  1  0.89081700  0.60679000  0.58588100  1
  O  O2  1  0.14140000  0.59064800  0.59559100  1
  O  O3  1  0.12118200  0.38367000  0.59014500  1
  O  O4  1  0.87059000  0.40062700  0.57264700  1
  O  O5  1  0.11882800  0.39365100  0.41141500  1
  O  O6  1  0.86821400  0.40988200  0.40167200  1
  O  O7  1  0.88825400  0.61713500  0.40690700  1
  O  O8  1  0.13914600  0.59992800  0.42421000  1
