# Generated by REPEAT Assigner based on pymatgen
data_DB0-m2_o16_o23_f0_pcu.sym.58
_audit_creation_date              2022-05-24
_audit_creation_method            REPEAT_Assigner
_cell_length_a                    12.165589
_cell_length_b                    13.518583
_cell_length_c                    15.863749
_cell_angle_alpha                 78.500851
_cell_angle_beta                  102.513375
_cell_angle_gamma                 116.095445
_cell_volume                      2271.201320
_symmetry_space_group_name_H-M    P1
_symmetry_Int_Tables_number       1
loop_
    _symmetry_equiv_pos_site_id
    _symmetry_equiv_pos_as_xyz
    1  x,y,z
loop_
    _atom_site_type_symbol
    _atom_site_label
    _atom_site_fract_x
    _atom_site_fract_y
    _atom_site_fract_z
    _atom_type_partial_charge
    O   O1   0.981222  0.322445  0.522598  -0.568187
    O   O2   0.815120  0.366160  0.499505  -0.484303
    C   C1   0.861131  0.292764  0.510494  0.609999
    O   O3   0.087820  0.471296  0.643784  -0.653230
    O   O4   0.929475  0.528318  0.610464  -0.632140
    C   C2   0.009404  0.499530  0.666606  0.872178
    Cu  Cu1  0.104696  0.475915  0.523222  0.952472
    Cu  Cu2  0.908910  0.526926  0.485067  0.684089
    O   O5   0.200419  0.636501  0.512234  -0.583187
    O   O6   0.032240  0.680672  0.481220  -0.501341
    O   O7   0.089007  0.480082  0.397592  -0.647140
    O   O8   0.922544  0.525984  0.364847  -0.534966
    C   C3   0.152483  0.709342  0.495891  0.637526
    C   C4   0.005296  0.503546  0.341707  0.792687
    C   C5   0.048573  0.412154  0.980131  -0.082646
    C   C6   0.878810  0.474421  0.938332  -0.119170
    C   C7   0.875445  0.468172  0.034174  -0.176898
    H   H1   0.998031  0.335483  0.106942  0.026362
    H   H2   0.980926  0.328614  0.963426  0.010021
    H   H3   0.851631  0.541030  0.901488  0.012989
    H   H4   0.812781  0.394138  0.914583  0.038759
    H   H5   0.816016  0.382196  0.058977  0.029837
    H   H6   0.836460  0.524949  0.043298  0.050387
    C   C8   0.003867  0.503297  0.251017  -0.152070
    C   C9   0.008660  0.499396  0.925130  0.604928
    C   C10  0.054623  0.418526  0.075402  -0.144055
    C   C11  0.005615  0.501305  0.083410  0.677399
    C   C12  0.088626  0.615908  0.045386  -0.119433
    C   C13  0.096834  0.612700  0.952157  -0.135321
    C   C14  0.004126  0.502504  0.175212  -0.388664
    C   C15  0.010130  0.498636  0.833288  -0.340642
    C   C16  0.010451  0.498682  0.757374  -0.218695
    H   H7   0.192792  0.628916  0.946639  0.027439
    H   H8   0.071957  0.677569  0.909258  0.036810
    H   H9   0.182500  0.642916  0.083857  0.026904
    H   H10  0.141012  0.426722  0.967555  0.022989
    H   H11  0.151932  0.445345  0.107801  0.017919
    H   H12  0.049842  0.675775  0.047162  0.024659
    C   C17  0.265691  0.016208  0.462409  -0.199229
    H   H13  0.093466  0.882460  0.479356  0.093241
    H   H14  0.418622  0.215169  0.413504  0.114367
    H   H15  0.226003  0.076358  0.445907  0.119991
    C   C18  0.237318  0.827893  0.492364  -0.087986
    C   C19  0.831310  0.099292  0.547823  -0.026722
    C   C20  0.760386  0.987696  0.562383  -0.132577
    C   C21  0.633739  0.946200  0.545250  -0.157968
    C   C22  0.574480  0.015756  0.508944  0.031126
    C   C23  0.647100  0.129473  0.490729  0.182231
    C   C24  0.444214  0.975014  0.492960  0.038982
    C   C25  0.390929  0.049831  0.466482  0.130126
    C   C26  0.461756  0.158787  0.441335  -0.156718
    C   C27  0.587262  0.196598  0.448160  -0.197132
    C   C28  0.364597  0.862130  0.501769  -0.138962
    C   C29  0.190078  0.906178  0.479253  -0.040612
    C   C30  0.777098  0.172494  0.514104  -0.178198
    H   H16  0.398388  0.798707  0.512993  0.110049
    H   H17  0.930271  0.128274  0.566170  0.093834
    H   H18  0.585257  0.858692  0.563501  0.125775
    H   H19  0.804534  0.932194  0.590675  0.107568
    H   H20  0.634049  0.279538  0.418222  0.116900
    C   C31  0.362313  0.342357  0.642737  -0.326493
    H   H21  0.182809  0.319590  0.657620  0.130099
    H   H22  0.564868  0.314099  0.672858  0.146456
    H   H23  0.367070  0.281477  0.697416  0.148817
    N   N1   0.251762  0.438163  0.552013  -0.103855
    C   C32  0.750145  0.635400  0.384719  0.091078
    C   C33  0.648171  0.658507  0.361789  -0.193534
    C   C34  0.551942  0.609057  0.407665  -0.055838
    C   C35  0.555263  0.532268  0.478822  -0.061132
    C   C36  0.660777  0.509098  0.502186  0.285547
    C   C37  0.454316  0.476844  0.526192  -0.032194
    C   C38  0.459251  0.398464  0.595473  0.338956
    C   C39  0.561072  0.375574  0.618442  -0.300712
    C   C40  0.659383  0.429381  0.573237  -0.138399
    C   C41  0.347312  0.496574  0.506769  -0.043734
    C   C42  0.258726  0.363541  0.620414  0.031616
    N   N2   0.760697  0.563039  0.456691  -0.189690
    H   H24  0.335507  0.557683  0.455619  0.135991
    H   H25  0.476572  0.632871  0.383328  0.129705
    H   H26  0.643505  0.717254  0.305383  0.088499
    H   H27  0.732070  0.403593  0.597093  0.183453
    C   C43  0.843124  0.697288  0.326769  0.437892
    C   C44  0.918117  0.807190  0.336089  -0.343870
    C   C45  0.991904  0.874027  0.274166  0.034326
    C   C46  0.985685  0.832781  0.199778  -0.060154
    Cl  Cl1  0.077662  0.917864  0.120291  -0.102107
    C   C47  0.902038  0.726258  0.186067  0.000966
    C   C48  0.828533  0.659904  0.248276  -0.293047
    H   H28  0.915270  0.841813  0.390843  0.143095
    H   H29  0.052155  0.959592  0.282914  0.083828
    H   H30  0.892339  0.695420  0.125838  0.093148
    H   H31  0.759519  0.577981  0.235640  0.118933
