# Generated by REPEAT Assigner based on pymatgen
data_DB0-m3_o1_o29_f0_nbo.sym.80_sqe
_audit_creation_date              2022-05-24
_audit_creation_method            REPEAT_Assigner
_cell_length_a                    21.808960
_cell_length_b                    21.808928
_cell_length_c                    55.564758
_cell_angle_alpha                 90.000000
_cell_angle_beta                  90.000000
_cell_angle_gamma                 90.000000
_cell_volume                      26428.268176
_symmetry_space_group_name_H-M    P1
_symmetry_Int_Tables_number       1
loop_
    _symmetry_equiv_pos_site_id
    _symmetry_equiv_pos_as_xyz
    1  x,y,z
loop_
    _atom_site_type_symbol
    _atom_site_label
    _atom_site_fract_x
    _atom_site_fract_y
    _atom_site_fract_z
    _atom_type_partial_charge
    O   O1    0.499933  0.408750  0.020309  -0.696190
    O   O2    0.591674  0.499740  0.021252  -0.684239
    O   O3    0.502692  0.591486  0.021241  -0.682248
    O   O4    0.408937  0.502529  0.020296  -0.694792
    O   O5    0.496861  0.591174  0.979713  -0.695487
    O   O6    0.591335  0.500899  0.979662  -0.697177
    O   O7    0.501054  0.408464  0.978719  -0.685453
    O   O8    0.408625  0.496737  0.978767  -0.683666
    O   O9    0.996900  0.908746  0.520330  -0.697443
    O   O10   0.091083  0.999388  0.520357  -0.694058
    O   O11   0.000438  0.091470  0.521268  -0.683014
    O   O12   0.908353  0.002884  0.521242  -0.684072
    O   O13   0.999454  0.091064  0.479680  -0.693775
    O   O14   0.091481  0.000365  0.478770  -0.682896
    O   O15   0.002838  0.908333  0.478802  -0.683874
    O   O16   0.908757  0.996939  0.479714  -0.697235
    C   C1    0.000517  0.501008  0.124603  0.343851
    C   C2    0.501314  0.000426  0.124636  0.341180
    C   C3    0.999583  0.498980  0.875358  0.334353
    C   C4    0.498817  0.999792  0.875391  0.339280
    C   C5    0.499438  0.998944  0.624639  0.341754
    C   C6    0.000694  0.500290  0.624603  0.335342
    C   C7    0.500654  0.001019  0.375394  0.338286
    C   C8    0.999041  0.499586  0.375356  0.343250
    C   C9    0.500584  0.380134  0.999539  0.695048
    C   C10   0.619977  0.500450  0.000427  0.696764
    C   C11   0.499597  0.619809  0.000455  0.685990
    C   C12   0.380301  0.499590  0.999559  0.688785
    C   C13   0.999769  0.880068  0.499601  0.694816
    C   C14   0.119763  0.999869  0.499599  0.688530
    C   C15   0.999956  0.119747  0.500438  0.689063
    C   C16   0.880084  0.999833  0.500443  0.694406
    Zn  Zn1   0.500078  0.499932  0.027288  1.296557
    Zn  Zn2   0.500148  0.500065  0.972702  1.297738
    Zn  Zn3   0.999887  0.999880  0.527311  1.297020
    Zn  Zn4   0.999890  0.999867  0.472729  1.296303
    C   C17   0.281748  0.460536  0.984491  -0.146846
    C   C18   0.539759  0.281588  0.984534  -0.144598
    C   C19   0.718228  0.539725  0.985175  -0.137150
    C   C20   0.460468  0.718125  0.985170  -0.141308
    C   C21   0.281734  0.538020  0.014861  -0.146459
    C   C22   0.537980  0.718615  0.015529  -0.150421
    C   C23   0.718776  0.461902  0.015412  -0.145959
    C   C24   0.461976  0.281631  0.014788  -0.145303
    C   C25   0.781828  0.959596  0.485589  -0.127649
    C   C26   0.039309  0.781242  0.485031  -0.141699
    C   C27   0.218290  0.037920  0.484149  -0.146304
    C   C28   0.962586  0.218295  0.484715  -0.143692
    C   C29   0.781269  0.039410  0.515015  -0.141414
    C   C30   0.037984  0.218291  0.515884  -0.146854
    C   C31   0.218329  0.962509  0.515314  -0.144596
    C   C32   0.959470  0.781820  0.514446  -0.128046
    H   H1    0.306304  0.429840  0.972644  0.131482
    H   H2    0.570549  0.306166  0.972731  0.130157
    H   H3    0.693418  0.570514  0.973446  0.128505
    H   H4    0.429771  0.693380  0.973383  0.130560
    H   H5    0.306277  0.568870  0.026652  0.131182
    H   H6    0.568851  0.694260  0.027371  0.132067
    H   H7    0.694400  0.430943  0.027212  0.130221
    H   H8    0.431048  0.306239  0.026526  0.130112
    H   H9    0.806626  0.928019  0.474184  0.127928
    H   H10   0.071075  0.805590  0.473557  0.131044
    H   H11   0.193707  0.067781  0.471985  0.130360
    H   H12   0.932550  0.193730  0.472612  0.128897
    H   H13   0.805626  0.071155  0.526495  0.130938
    H   H14   0.067846  0.193721  0.528052  0.130322
    H   H15   0.193778  0.932464  0.527418  0.129023
    H   H16   0.927894  0.806627  0.525849  0.127798
    C   C33   0.218573  0.459134  0.985053  -0.169262
    C   C34   0.541169  0.218412  0.985125  -0.175426
    C   C35   0.781412  0.541156  0.985581  -0.180802
    C   C36   0.459062  0.781309  0.985583  -0.176676
    C   C37   0.218544  0.539029  0.014443  -0.168772
    C   C38   0.538984  0.781797  0.014961  -0.163922
    C   C39   0.781955  0.460878  0.014810  -0.170168
    C   C40   0.460928  0.218443  0.014372  -0.171050
    C   C41   0.718647  0.958170  0.486015  -0.194640
    C   C42   0.040227  0.718061  0.485626  -0.177403
    C   C43   0.281458  0.039435  0.484716  -0.171043
    C   C44   0.961574  0.281488  0.485112  -0.169116
    C   C45   0.718086  0.040352  0.514418  -0.177945
    C   C46   0.039477  0.281460  0.515315  -0.168506
    C   C47   0.281524  0.961520  0.514914  -0.167220
    C   C48   0.958021  0.718637  0.514017  -0.192512
    H   H17   0.194022  0.427953  0.973400  0.128728
    H   H18   0.572481  0.193794  0.973549  0.129336
    H   H19   0.805801  0.572491  0.973939  0.130548
    H   H20   0.427868  0.805678  0.973877  0.130201
    H   H21   0.193973  0.570069  0.026147  0.129313
    H   H22   0.570032  0.806549  0.026603  0.128294
    H   H23   0.806771  0.429696  0.026376  0.128371
    H   H24   0.429755  0.193855  0.026016  0.128711
    H   H25   0.694287  0.926050  0.474698  0.133382
    H   H26   0.072148  0.693253  0.474372  0.129786
    H   H27   0.306017  0.069858  0.472760  0.130175
    H   H28   0.931348  0.306084  0.473091  0.129971
    H   H29   0.693285  0.072265  0.525677  0.130316
    H   H30   0.069883  0.306034  0.527273  0.129095
    H   H31   0.306135  0.931302  0.526933  0.129206
    H   H32   0.925888  0.694284  0.525331  0.133037
    C   C49   0.186889  0.498986  0.999783  0.110838
    C   C50   0.501138  0.186776  0.999793  0.122093
    C   C51   0.813335  0.501111  0.000144  0.123774
    C   C52   0.498931  0.813221  0.000230  0.110432
    C   C53   0.686706  0.999140  0.500173  0.136176
    C   C54   0.998994  0.686688  0.499863  0.134339
    C   C55   0.313150  0.000611  0.499856  0.106274
    C   C56   0.000648  0.313133  0.500171  0.106313
    C   C57   0.313416  0.499381  0.999638  0.074857
    C   C58   0.500775  0.313268  0.999617  0.072899
    C   C59   0.686844  0.500708  0.000341  0.068560
    C   C60   0.499331  0.686694  0.000387  0.076357
    C   C61   0.813212  0.999623  0.500345  0.063142
    C   C62   0.999524  0.813195  0.499698  0.063067
    C   C63   0.186640  0.000081  0.499688  0.076013
    C   C64   0.000162  0.186624  0.500345  0.075305
    O   O17   0.000866  0.449053  0.035825  -0.731918
    O   O18   0.554317  0.000792  0.035981  -0.713900
    O   O19   0.999789  0.554252  0.035928  -0.713519
    O   O20   0.449078  0.999636  0.035907  -0.733529
    O   O21   0.997914  0.551045  0.964071  -0.731768
    O   O22   0.550936  0.001804  0.964122  -0.732017
    O   O23   0.001780  0.445870  0.963964  -0.715030
    O   O24   0.445798  0.997867  0.964050  -0.716351
    O   O25   0.500391  0.945655  0.536002  -0.714880
    O   O26   0.053930  0.498118  0.536014  -0.716120
    O   O27   0.499056  0.050888  0.535893  -0.733371
    O   O28   0.948760  0.502106  0.535875  -0.733044
    O   O29   0.498093  0.054040  0.464033  -0.716323
    O   O30   0.050868  0.499118  0.464152  -0.731966
    O   O31   0.502205  0.948908  0.464144  -0.732360
    O   O32   0.945672  0.500324  0.464017  -0.713704
    C   C65   0.000414  0.501599  0.047370  0.681793
    C   C66   0.501663  0.000249  0.047428  0.682141
    C   C67   0.999725  0.498513  0.952542  0.681518
    C   C68   0.498401  0.999840  0.952600  0.683458
    C   C69   0.499643  0.998329  0.547432  0.681004
    C   C70   0.001268  0.500221  0.547420  0.683247
    C   C71   0.500274  0.001419  0.452603  0.684340
    C   C72   0.998345  0.499648  0.452590  0.681383
    O   O33   0.091614  0.445905  0.999513  -0.654769
    O   O34   0.554220  0.091555  0.000691  -0.650280
    O   O35   0.908573  0.554203  0.000809  -0.650234
    O   O36   0.445842  0.908484  0.999763  -0.653902
    O   O37   0.091359  0.551624  0.000208  -0.666586
    O   O38   0.551560  0.908765  0.000433  -0.667693
    O   O39   0.908824  0.448491  0.999256  -0.663038
    O   O40   0.448508  0.091269  0.999166  -0.662034
    O   O41   0.591558  0.945889  0.500875  -0.647838
    O   O42   0.051491  0.591118  0.500742  -0.661797
    O   O43   0.408303  0.053863  0.499585  -0.657194
    O   O44   0.948112  0.408708  0.499717  -0.668733
    O   O45   0.591097  0.051594  0.499310  -0.661650
    O   O46   0.053836  0.408326  0.500454  -0.656858
    O   O47   0.408767  0.948141  0.500297  -0.668587
    O   O48   0.945788  0.591499  0.499151  -0.647790
    C   C73   0.120016  0.498820  0.999843  0.687943
    C   C74   0.501308  0.119921  0.999881  0.674885
    C   C75   0.880190  0.501292  0.000043  0.674718
    C   C76   0.498759  0.880094  0.000138  0.689287
    C   C77   0.619842  0.998850  0.500101  0.668158
    C   C78   0.998730  0.619823  0.499942  0.668589
    C   C79   0.380012  0.000892  0.499929  0.694932
    C   C80   0.000886  0.379994  0.500098  0.694321
    Zn  Zn5   0.999991  0.430779  0.000001  1.368553
    Zn  Zn6   0.569304  0.999939  0.999933  1.367359
    Zn  Zn7   0.000173  0.569331  0.999886  1.367048
    Zn  Zn8   0.430760  0.000118  0.000086  1.368423
    Zn  Zn9   0.499986  0.930600  0.499958  1.367354
    Zn  Zn10  0.069082  0.499929  0.499981  1.369118
    Zn  Zn11  0.499899  0.069145  0.500068  1.369481
    Zn  Zn12  0.930532  0.499919  0.500055  1.367152
    C   C81   0.958574  0.536530  0.237508  0.069612
    C   C82   0.465740  0.958434  0.237547  0.065754
    C   C83   0.041297  0.464022  0.237516  0.070219
    C   C84   0.536200  0.042913  0.237546  0.067098
    C   C85   0.958602  0.463397  0.762394  0.066988
    C   C86   0.462078  0.040153  0.762455  0.072232
    C   C87   0.041335  0.535906  0.762507  0.070900
    C   C88   0.536590  0.959226  0.762515  0.071574
    C   C89   0.457157  0.034857  0.737517  0.063927
    C   C90   0.963783  0.458453  0.737452  0.070280
    C   C91   0.541631  0.964392  0.737578  0.064787
    C   C92   0.036359  0.541127  0.737568  0.067362
    C   C93   0.460464  0.963454  0.262483  0.065584
    C   C94   0.963591  0.541548  0.262450  0.067748
    C   C95   0.541381  0.037978  0.262487  0.068832
    C   C96   0.036054  0.458785  0.262446  0.065640
    C   C97   0.999993  0.500335  0.225123  -0.009308
    C   C98   0.500996  0.000651  0.225157  -0.002920
    C   C99   0.999922  0.499579  0.774841  -0.006963
    C   C100  0.499294  0.999713  0.774875  -0.011336
    C   C101  0.499414  0.999579  0.725158  -0.003426
    C   C102  0.000128  0.499854  0.725120  -0.008045
    C   C103  0.500899  0.000738  0.274875  -0.006203
    C   C104  0.999761  0.500110  0.274837  -0.004981
    C   C105  0.912863  0.566360  0.224611  -0.213927
    C   C106  0.437092  0.911952  0.224658  -0.209711
    C   C107  0.087111  0.434295  0.224636  -0.214117
    C   C108  0.564894  0.089354  0.224651  -0.212819
    C   C109  0.912829  0.433495  0.775236  -0.213735
    C   C110  0.431130  0.085184  0.775317  -0.217273
    C   C111  0.087014  0.565654  0.775455  -0.213480
    C   C112  0.567464  0.914251  0.775435  -0.216877
    C   C113  0.410723  0.063490  0.724597  -0.210466
    C   C114  0.933978  0.412819  0.724501  -0.214118
    C   C115  0.588121  0.935682  0.724715  -0.209682
    C   C116  0.066278  0.586897  0.724731  -0.214730
    C   C117  0.415445  0.932555  0.275370  -0.213453
    C   C118  0.933785  0.587278  0.275346  -0.214158
    C   C119  0.586355  0.068918  0.275383  -0.214821
    C   C120  0.065753  0.412956  0.275327  -0.212678
    C   C121  0.910016  0.561498  0.199968  0.005365
    C   C122  0.442162  0.909093  0.200021  0.003440
    C   C123  0.090190  0.439404  0.200003  0.003171
    C   C124  0.559937  0.092121  0.200010  0.005595
    C   C125  0.909839  0.438236  0.799879  0.006428
    C   C126  0.435906  0.088276  0.799959  0.011520
    C   C127  0.089830  0.560608  0.800092  0.002976
    C   C128  0.562504  0.911232  0.800072  0.008869
    C   C129  0.407936  0.058366  0.699961  0.004205
    C   C130  0.938993  0.410031  0.699862  0.004143
    C   C131  0.590967  0.940594  0.700074  0.002875
    C   C132  0.061509  0.589924  0.700089  0.006994
    C   C133  0.412343  0.937466  0.300008  0.006519
    C   C134  0.938644  0.590125  0.299989  0.005612
    C   C135  0.589359  0.064101  0.300025  0.010227
    C   C136  0.060638  0.409882  0.299960  0.003168
    C   C137  0.954710  0.529893  0.187615  -0.149756
    C   C138  0.472790  0.954443  0.187658  -0.149041
    C   C139  0.045630  0.471158  0.187634  -0.145249
    C   C140  0.529377  0.046717  0.187652  -0.148912
    C   C141  0.954396  0.469872  0.812294  -0.147952
    C   C142  0.468627  0.044460  0.812348  -0.155182
    C   C143  0.045188  0.528815  0.812397  -0.147139
    C   C144  0.529669  0.955069  0.812403  -0.151404
    C   C145  0.453317  0.027701  0.687629  -0.148786
    C   C146  0.970811  0.454661  0.687560  -0.147278
    C   C147  0.545594  0.971118  0.687685  -0.147106
    C   C148  0.029827  0.545406  0.687672  -0.148156
    C   C149  0.456135  0.970280  0.312372  -0.146806
    C   C150  0.970222  0.545414  0.312343  -0.149182
    C   C151  0.545512  0.031342  0.312381  -0.154324
    C   C152  0.028906  0.454462  0.312328  -0.145071
    C   C153  0.000111  0.500461  0.200201  0.163406
    C   C154  0.501053  0.000604  0.200233  0.160836
    C   C155  0.999833  0.499425  0.799766  0.161752
    C   C156  0.499201  0.999750  0.799798  0.169104
    C   C157  0.499444  0.999471  0.700235  0.160462
    C   C158  0.000251  0.499976  0.700195  0.163328
    C   C159  0.500850  0.000785  0.299798  0.165108
    C   C160  0.999631  0.499995  0.299758  0.161781
    C   C161  0.953261  0.526420  0.162771  0.433915
    C   C162  0.476483  0.952916  0.162817  0.434188
    C   C163  0.047335  0.474930  0.162795  0.432552
    C   C164  0.525826  0.048134  0.162807  0.429981
    C   C165  0.952778  0.473251  0.837141  0.430697
    C   C166  0.472049  0.046122  0.837194  0.433878
    C   C167  0.046644  0.525120  0.837238  0.430548
    C   C168  0.526011  0.953442  0.837243  0.430540
    C   C169  0.451849  0.023929  0.662789  0.432939
    C   C170  0.974488  0.453229  0.662718  0.428546
    C   C171  0.547073  0.974597  0.662839  0.431959
    C   C172  0.026433  0.547053  0.662825  0.428866
    C   C173  0.454435  0.973877  0.337214  0.427471
    C   C174  0.973688  0.546862  0.337188  0.432852
    C   C175  0.547098  0.027866  0.337226  0.431207
    C   C176  0.025126  0.452759  0.337166  0.432203
    N   N1    0.000372  0.500773  0.150488  -0.196646
    N   N2    0.501199  0.000494  0.150520  -0.191005
    N   N3    0.999667  0.499115  0.849478  -0.190196
    N   N4    0.498965  0.999787  0.849509  -0.191180
    N   N5    0.499455  0.999171  0.650522  -0.192061
    N   N6    0.000532  0.500193  0.650483  -0.187536
    N   N7    0.500734  0.000910  0.349511  -0.186519
    N   N8    0.999303  0.499737  0.349472  -0.195305
    H   H33   0.876328  0.591363  0.233193  0.149350
    H   H34   0.412916  0.874873  0.233245  0.147404
    H   H35   0.123552  0.409188  0.233232  0.148651
    H   H36   0.589025  0.126469  0.233234  0.148958
    H   H37   0.876360  0.408493  0.766612  0.148740
    H   H38   0.405223  0.121041  0.766708  0.149543
    H   H39   0.123546  0.590759  0.766918  0.149098
    H   H40   0.593437  0.878368  0.766873  0.149715
    H   H41   0.373619  0.087686  0.733159  0.147967
    H   H42   0.908852  0.376297  0.733034  0.149355
    H   H43   0.625207  0.911568  0.733324  0.147573
    H   H44   0.091317  0.623336  0.733358  0.149038
    H   H45   0.379597  0.906591  0.266782  0.148762
    H   H46   0.908803  0.623824  0.266762  0.149237
    H   H47   0.622240  0.094844  0.266801  0.148986
    H   H48   0.090841  0.376500  0.266732  0.148416
    H   H49   0.873167  0.584480  0.190620  0.112085
    H   H50   0.420124  0.871652  0.190685  0.113902
    H   H51   0.127122  0.416510  0.190672  0.114071
    H   H52   0.582015  0.129528  0.190667  0.112075
    H   H53   0.872957  0.415176  0.809177  0.112454
    H   H54   0.412007  0.124588  0.809276  0.110760
    H   H55   0.126648  0.583551  0.809473  0.112985
    H   H56   0.586333  0.874948  0.809433  0.111364
    H   H57   0.370525  0.080384  0.690599  0.113223
    H   H58   0.916007  0.373245  0.690477  0.112864
    H   H59   0.628403  0.918497  0.690756  0.113358
    H   H60   0.084588  0.626800  0.690795  0.112420
    H   H61   0.376032  0.913612  0.309343  0.112308
    H   H62   0.915681  0.626988  0.309335  0.112001
    H   H63   0.625634  0.087991  0.309368  0.110635
    H   H64   0.083510  0.372939  0.309292  0.113987
    O   O49   0.903792  0.547558  0.150969  -0.483843
    O   O50   0.456526  0.902928  0.151035  -0.486191
    O   O51   0.096909  0.453904  0.151030  -0.486000
    O   O52   0.545846  0.098073  0.151009  -0.483498
    O   O53   0.903369  0.451802  0.848896  -0.484872
    O   O54   0.449566  0.095043  0.848964  -0.484411
    O   O55   0.095989  0.546397  0.849081  -0.483585
    O   O56   0.548378  0.904534  0.849056  -0.483776
    O   O57   0.401887  0.043844  0.650980  -0.485370
    O   O58   0.953158  0.403916  0.650869  -0.483665
    O   O59   0.597044  0.954552  0.651070  -0.484632
    O   O60   0.047911  0.596459  0.651077  -0.484432
    O   O61   0.405502  0.951462  0.348997  -0.483876
    O   O62   0.952575  0.596344  0.348988  -0.483608
    O   O63   0.595978  0.050337  0.349027  -0.483476
    O   O64   0.046121  0.403175  0.348932  -0.486085
    C   C177  0.016101  0.449094  0.111819  -0.275141
    C   C178  0.553086  0.016986  0.111950  -0.271521
    C   C179  0.985032  0.553158  0.111950  -0.271121
    C   C180  0.449661  0.983795  0.111890  -0.273828
    C   C181  0.014596  0.551109  0.888114  -0.268154
    C   C182  0.551218  0.985793  0.888153  -0.273897
    C   C183  0.984532  0.446716  0.888025  -0.268306
    C   C184  0.446267  0.013782  0.888060  -0.275144
    C   C185  0.516038  0.947119  0.611995  -0.270837
    C   C186  0.052987  0.515306  0.611949  -0.270037
    C   C187  0.482826  0.050536  0.611852  -0.274208
    C   C188  0.948569  0.485328  0.611835  -0.269793
    C   C189  0.514583  0.053559  0.388080  -0.275543
    C   C190  0.050931  0.483968  0.388150  -0.273767
    C   C191  0.486634  0.948596  0.388138  -0.274953
    C   C192  0.946886  0.515096  0.388001  -0.271733
    H   H65   0.028032  0.407327  0.121152  0.169710
    H   H66   0.594469  0.029801  0.121367  0.167118
    H   H67   0.973089  0.594766  0.121390  0.167214
    H   H68   0.408195  0.971017  0.121257  0.168588
    H   H69   0.026157  0.592938  0.878751  0.167859
    H   H70   0.593280  0.975071  0.878797  0.169465
    H   H71   0.972974  0.404992  0.878589  0.166881
    H   H72   0.404313  0.024497  0.878629  0.168338
    H   H73   0.528828  0.905778  0.621445  0.167073
    H   H74   0.094709  0.526819  0.621394  0.167131
    H   H75   0.470006  0.092039  0.621185  0.169082
    H   H76   0.906720  0.473791  0.621189  0.168327
    H   H77   0.525319  0.095528  0.378663  0.167984
    H   H78   0.092701  0.472014  0.378824  0.169383
    H   H79   0.475966  0.906541  0.378768  0.169469
    H   H80   0.905296  0.527067  0.378554  0.167431
    C   C193  0.021543  0.450491  0.087098  0.022174
    C   C194  0.551924  0.022283  0.087223  0.023100
    C   C195  0.979602  0.552186  0.087228  0.022296
    C   C196  0.451054  0.978383  0.087168  0.022791
    C   C197  0.019940  0.549875  0.912839  0.016513
    C   C198  0.550070  0.980388  0.912876  0.019770
    C   C199  0.979237  0.447666  0.912755  0.023908
    C   C200  0.447127  0.019183  0.912785  0.028003
    C   C201  0.521433  0.948182  0.587272  0.020326
    C   C202  0.052072  0.520628  0.587220  0.025353
    C   C203  0.477501  0.049039  0.587128  0.018725
    C   C204  0.949829  0.480010  0.587109  0.017327
    C   C205  0.519877  0.052676  0.412809  0.030044
    C   C206  0.049502  0.478518  0.412870  0.020544
    C   C207  0.481132  0.949714  0.412859  0.022222
    C   C208  0.947832  0.520521  0.412724  0.021659
    C   C209  0.000538  0.501433  0.074128  -0.049271
    C   C210  0.501546  0.000310  0.074172  -0.046714
    C   C211  0.999614  0.498690  0.925809  -0.039734
    C   C212  0.498528  0.999796  0.925855  -0.045148
    C   C213  0.499511  0.998509  0.574176  -0.042585
    C   C214  0.001048  0.500308  0.574153  -0.041062
    C   C215  0.500443  0.001261  0.425858  -0.047049
    C   C216  0.998556  0.499547  0.425833  -0.047412
    C   C217  0.053170  0.397845  0.076177  0.491410
    H   H81   0.048192  0.352901  0.084272  -0.040961
    O   O65   0.092274  0.405450  0.060765  -0.418878
    C   C218  0.604101  0.054825  0.076367  0.481529
    H   H82   0.648981  0.050943  0.084609  -0.036137
    O   O66   0.595995  0.093437  0.060805  -0.415238
    C   C219  0.948011  0.605045  0.076451  0.486329
    H   H83   0.953172  0.649873  0.084628  -0.038783
    O   O67   0.908729  0.597725  0.061088  -0.416162
    C   C220  0.398993  0.945760  0.076262  0.488527
    H   H84   0.354036  0.949657  0.084437  -0.039929
    O   O68   0.407264  0.907079  0.060739  -0.417416
    C   C221  0.050836  0.602927  0.923785  0.493826
    H   H85   0.045735  0.647714  0.915568  -0.040380
    O   O69   0.089460  0.595894  0.939423  -0.422645
    C   C222  0.603693  0.950450  0.923801  0.497621
    H   H86   0.648408  0.956592  0.915634  -0.042440
    O   O70   0.597360  0.911426  0.939332  -0.423921
    C   C223  0.948405  0.394478  0.923627  0.483005
    H   H87   0.953374  0.349811  0.915298  -0.036890
    O   O71   0.909979  0.401305  0.939354  -0.418449
    C   C224  0.393363  0.049086  0.923617  0.488533
    H   H88   0.348743  0.042902  0.915374  -0.039192
    O   O72   0.399495  0.088129  0.939152  -0.420865
    C   C225  0.554032  0.895965  0.576473  0.483319
    H   H89   0.550053  0.851103  0.584723  -0.036988
    O   O73   0.592792  0.904021  0.560963  -0.414897
    C   C226  0.105299  0.551430  0.576363  0.483545
    H   H90   0.149951  0.546417  0.584701  -0.037441
    O   O74   0.098524  0.589877  0.560641  -0.418381
    C   C227  0.444895  0.101039  0.576170  0.491125
    H   H91   0.448713  0.146026  0.584325  -0.040130
    O   O75   0.406307  0.092688  0.560618  -0.417928
    C   C228  0.896766  0.449173  0.576146  0.494323
    H   H92   0.851974  0.454293  0.584357  -0.040678
    O   O76   0.903787  0.410573  0.560498  -0.422270
    C   C229  0.549716  0.106438  0.423670  0.486934
    H   H93   0.543617  0.151054  0.415415  -0.038566
    O   O77   0.588619  0.100305  0.439260  -0.420905
    C   C230  0.102117  0.446857  0.423799  0.491414
    H   H94   0.147076  0.451827  0.415716  -0.040835
    O   O78   0.094470  0.407736  0.439201  -0.418441
    C   C231  0.451189  0.896060  0.423758  0.495202
    H   H95   0.457419  0.851353  0.415594  -0.041632
    O   O79   0.412073  0.902352  0.439256  -0.423007
    C   C232  0.894978  0.552141  0.423490  0.486424
    H   H96   0.850157  0.547004  0.415306  -0.038477
    O   O80   0.902303  0.591422  0.438853  -0.416623
