# generated using pymatgen
data_V4H49C74NO20
_symmetry_space_group_name_H-M   'P 1'
_cell_length_a   6.69811200
_cell_length_b   19.92487000
_cell_length_c   23.47742700
_cell_angle_alpha   91.23355000
_cell_angle_beta   90.71261800
_cell_angle_gamma   89.15229200
_symmetry_Int_Tables_number   1
_chemical_formula_structural   V4H49C74NO20
_chemical_formula_sum   'V4 H49 C74 N1 O20'
_cell_volume   3131.97502485
_cell_formula_units_Z   1
loop_
 _symmetry_equiv_pos_site_id
 _symmetry_equiv_pos_as_xyz
  1  'x, y, z'
loop_
 _atom_site_type_symbol
 _atom_site_label
 _atom_site_symmetry_multiplicity
 _atom_site_fract_x
 _atom_site_fract_y
 _atom_site_fract_z
 _atom_site_occupancy
  V  V1  1  0.21745300  0.49409900  0.49556600  1
  V  V2  1  0.71789800  0.49826100  0.50997500  1
  V  V3  1  0.59149400  0.00213700  0.01051700  1
  V  V4  1  0.09054500  0.99675600  0.99841000  1
  H  H1  1  0.46780500  0.66637700  0.79991400  1
  H  H2  1  0.78658000  0.64013200  0.64365400  1
  H  H3  1  0.26870600  0.69899600  0.54350400  1
  H  H4  1  0.26700800  0.85453000  0.69292900  1
  H  H5  1  0.42536400  0.71788600  0.88873000  1
  H  H6  1  0.51169100  0.80553400  0.95931100  1
  H  H7  1  0.96619100  0.87492900  0.85351500  1
  H  H8  1  0.63045400  0.65544900  0.71027500  1
  H  H9  1  0.09523300  0.86842300  0.78123800  1
  H  H10  1  0.33173300  0.79497700  0.60822900  1
  H  H11  1  0.76022900  0.35186900  0.75543900  1
  H  H12  1  0.73988500  0.28296300  0.83045500  1
  H  H13  1  0.20470900  0.18901000  0.79330800  1
  H  H14  1  0.09896200  0.25006200  0.84298000  1
  H  H15  1  0.11257200  0.33308700  0.77909500  1
  H  H16  1  0.26750500  0.27698600  0.73674300  1
  H  H17  1  0.72912100  0.14317400  0.72299900  1
  H  H18  1  0.98899100  0.11916100  0.73252500  1
  H  H19  1  0.82293600  0.21032300  0.65232100  1
  H  H20  1  0.57624300  0.23115500  0.78678000  1
  H  H21  1  0.63464200  0.29220200  0.70867500  1
  H  H22  1  0.63123400  0.73061900  0.15909000  1
  H  H23  1  0.61574500  0.64705900  0.22358300  1
  H  H24  1  0.13112700  0.70138900  0.28366900  1
  H  H25  1  0.25417400  0.63348700  0.24467500  1
  H  H26  1  0.27742800  0.69490800  0.16442100  1
  H  H27  1  0.09297500  0.75018400  0.19737500  1
  H  H28  1  0.59168400  0.79038000  0.32541300  1
  H  H29  1  0.33315500  0.77973400  0.34470600  1
  H  H30  1  0.47010900  0.86630000  0.26218600  1
  H  H31  1  0.76763200  0.70099600  0.26903700  1
  H  H32  1  0.71725300  0.79113500  0.21224900  1
  H  H33  1  0.21739400  0.83604300  0.26738100  1
  H  H34  1  0.03333900  0.35342300  0.18928800  1
  H  H35  1  0.30826100  0.36152500  0.35586400  1
  H  H36  1  0.76311300  0.28778500  0.46447300  1
  H  H37  1  0.78779000  0.14298300  0.30803800  1
  H  H38  1  0.99133100  0.30198700  0.09934600  1
  H  H39  1  0.06583400  0.20955200  0.03151700  1
  H  H40  1  0.49948500  0.13110400  0.14412600  1
  H  H41  1  0.18156300  0.35795400  0.28243000  1
  H  H42  1  0.63638600  0.13754500  0.21567600  1
  H  H43  1  0.83514900  0.19520800  0.39677600  1
  H  H44  1  0.23308100  0.22689100  0.66260200  1
  H  H45  1  0.38059300  0.19462100  0.57735300  1
  H  H46  1  0.34413500  0.13840000  0.48358900  1
  H  H47  1  0.04919100  0.06976700  0.46219100  1
  H  H48  1  0.79132700  0.05703300  0.53469500  1
  H  H49  1  0.82797600  0.11271500  0.62849000  1
  C  C1  1  0.49158100  0.57461300  0.42171000  1
  C  C2  1  0.50342200  0.38755300  0.44946300  1
  C  C3  1  0.00496700  0.41732700  0.58353200  1
  C  C4  1  0.99848000  0.60494000  0.55597400  1
  C  C5  1  0.74688600  0.84390200  0.90965300  1
  C  C6  1  0.01860900  0.66602300  0.59025000  1
  C  C7  1  0.54561400  0.75185800  0.88061800  1
  C  C8  1  0.59453300  0.80058700  0.92018000  1
  C  C9  1  0.85093300  0.83895200  0.85953500  1
  C  C10  1  0.79906000  0.79076200  0.81849200  1
  C  C11  1  0.64601300  0.74738300  0.82995200  1
  C  C12  1  0.89544700  0.78531400  0.76627200  1
  C  C13  1  0.83934600  0.73575100  0.72680000  1
  C  C14  1  0.68384200  0.69358500  0.73936000  1
  C  C15  1  0.58884600  0.69953400  0.79057000  1
  C  C16  1  0.04744900  0.82857300  0.75298600  1
  C  C17  1  0.14612800  0.82132400  0.70233200  1
  C  C18  1  0.09717100  0.77066500  0.66450900  1
  C  C19  1  0.94219700  0.72808300  0.67581300  1
  C  C20  1  0.20948100  0.76174800  0.61615800  1
  C  C21  1  0.17375000  0.70829400  0.57980900  1
  C  C22  1  0.90001700  0.67652700  0.63701000  1
  C  C23  1  0.72695300  0.25332000  0.79008800  1
  C  C24  1  0.08808500  0.22857100  0.79910300  1
  C  C25  1  0.11910100  0.28360200  0.75660000  1
  C  C26  1  0.00918400  0.36966100  0.62905600  1
  C  C27  1  0.88417500  0.19787600  0.78964800  1
  C  C28  1  0.75826200  0.29886400  0.74005500  1
  C  C29  1  0.95471800  0.28104500  0.71172400  1
  C  C30  1  0.93951200  0.21052400  0.68626000  1
  C  C31  1  0.88143600  0.16200600  0.73211300  1
  C  C32  1  0.99216300  0.32947900  0.66666667  1
  C  C33  1  0.84695300  0.15045400  0.83555100  1
  C  C34  1  0.82998800  0.11310100  0.87516600  1
  C  C35  1  0.62319800  0.69670000  0.24573200  1
  C  C36  1  0.25866800  0.68781900  0.25581900  1
  C  C37  1  0.24521900  0.72812500  0.20179200  1
  C  C38  1  0.34270400  0.86928900  0.11976200  1
  C  C39  1  0.45218400  0.70363000  0.28714600  1
  C  C40  1  0.60504600  0.75206100  0.20238200  1
  C  C41  1  0.39761400  0.78343200  0.20517700  1
  C  C42  1  0.37602000  0.82095300  0.26163100  1
  C  C43  1  0.44184900  0.77543600  0.30951900  1
  C  C44  1  0.36609400  0.83005200  0.15799100  1
  C  C45  1  0.47993500  0.65748900  0.33483200  1
  C  C46  1  0.49257700  0.61963800  0.37437600  1
  C  C47  1  0.29454000  0.16733900  0.08442800  1
  C  C48  1  0.52600800  0.32796300  0.41351500  1
  C  C49  1  0.10633100  0.26530200  0.10932100  1
  C  C50  1  0.14902300  0.21400100  0.07113600  1
  C  C51  1  0.39490300  0.17106800  0.13568800  1
  C  C52  1  0.34718600  0.22078900  0.17553100  1
  C  C53  1  0.20226800  0.26788900  0.16160000  1
  C  C54  1  0.43643200  0.22277600  0.22945500  1
  C  C55  1  0.37787400  0.27182100  0.26909800  1
  C  C56  1  0.23293200  0.31881000  0.25385700  1
  C  C57  1  0.14728500  0.31685900  0.20044200  1
  C  C58  1  0.58299200  0.17621000  0.24436600  1
  C  C59  1  0.67119700  0.17878400  0.29731900  1
  C  C60  1  0.61644900  0.22767700  0.33614300  1
  C  C61  1  0.46796900  0.27393100  0.32296200  1
  C  C62  1  0.71722000  0.23112200  0.38754300  1
  C  C63  1  0.67621600  0.28254800  0.42555900  1
  C  C64  1  0.41873200  0.32303200  0.36335000  1
  C  C65  1  0.31748900  0.10655700  0.04997200  1
  C  C66  1  0.32113500  0.91744400  0.07495000  1
  C  C67  1  0.78027000  0.89867500  0.95025000  1
  C  C68  1  0.83417900  0.07150700  0.92482200  1
  C  C69  1  0.10571200  0.15778000  0.60850000  1
  C  C70  1  0.25090000  0.16449500  0.56795700  1
  C  C71  1  0.23046900  0.13298200  0.51538400  1
  C  C72  1  0.06512700  0.09452700  0.50338500  1
  C  C73  1  0.92046400  0.08745600  0.54401000  1
  C  C74  1  0.94073000  0.11900900  0.59658000  1
  N  N1  1  0.12749400  0.18993600  0.66219700  1
  O  O1  1  0.66808500  0.41422100  0.46701900  1
  O  O2  1  0.31983200  0.55017100  0.43442400  1
  O  O3  1  0.16385500  0.57799100  0.53871600  1
  O  O4  1  0.32724300  0.41508900  0.45376300  1
  O  O5  1  0.17127100  0.43419200  0.55969000  1
  O  O6  1  0.66083400  0.55782700  0.44567200  1
  O  O7  1  0.49269200  0.50437900  0.53814100  1
  O  O8  1  0.83070000  0.44238200  0.57118500  1
  O  O9  1  0.82412900  0.57747000  0.55158400  1
  O  O10  1  0.99049800  0.48799300  0.46739700  1
  O  O11  1  0.14053800  0.92136600  0.04989800  1
  O  O12  1  0.49663200  0.09446000  0.02849000  1
  O  O13  1  0.67982100  0.03250000  0.93544200  1
  O  O14  1  0.45036600  0.96799600  0.07732700  1
  O  O15  1  0.63427000  0.90775200  0.98719100  1
  O  O16  1  0.18166300  0.06067500  0.05828800  1
  O  O17  1  0.31483800  0.98975900  0.96715800  1
  O  O18  1  0.94556600  0.93571400  0.94504000  1
  O  O19  1  0.99664400  0.07616500  0.95639800  1
  O  O20  1  0.81720200  0.00760100  0.04243000  1
