# Generated by REPEAT Assigner based on pymatgen
data_DB0-m3_o1470_o23_f0_fsc.sym.1_sqe
_audit_creation_date              2022-05-24
_audit_creation_method            REPEAT_Assigner
_cell_length_a                    14.248436
_cell_length_b                    8.558878
_cell_length_c                    10.729433
_cell_angle_alpha                 90.000000
_cell_angle_beta                  97.716228
_cell_angle_gamma                 90.000000
_cell_volume                      1296.613176
_symmetry_space_group_name_H-M    P1
_symmetry_Int_Tables_number       1
loop_
    _symmetry_equiv_pos_site_id
    _symmetry_equiv_pos_as_xyz
    1  x,y,z
loop_
    _atom_site_type_symbol
    _atom_site_label
    _atom_site_fract_x
    _atom_site_fract_y
    _atom_site_fract_z
    _atom_type_partial_charge
    C   C1   0.045834  0.003106  0.689814  -0.096859
    C   C2   0.954166  0.003106  0.310186  -0.096888
    C   C3   0.031198  0.142128  0.748670  -0.248835
    C   C4   0.968802  0.142128  0.251330  -0.248643
    C   C5   0.009069  0.139592  0.870539  0.070366
    C   C6   0.990930  0.139592  0.129461  0.070189
    C   C7   0.979235  0.283942  0.931532  0.012891
    C   C8   0.020765  0.283942  0.068468  0.012687
    C   C9   0.032398  0.863030  0.747878  -0.192731
    C   C10  0.967602  0.863030  0.252122  -0.192780
    C   C11  0.016086  0.860506  0.871663  -0.008535
    C   C12  0.983914  0.860506  0.128337  -0.008485
    C   C13  0.008324  0.999332  0.934575  -0.030418
    C   C14  0.991675  0.999332  0.065425  -0.030226
    C   C15  0.003344  0.705855  0.929892  0.050783
    C   C16  0.996656  0.705855  0.070109  0.050568
    H   H1   0.003667  0.388917  0.885788  -0.016562
    H   H2   0.996332  0.388917  0.114212  -0.016447
    H   H3   0.099112  0.285894  0.075295  0.017594
    H   H4   0.900888  0.285894  0.924705  0.017598
    H   H5   0.065136  0.632895  0.915124  0.018471
    H   H6   0.934864  0.632895  0.084876  0.018504
    H   H7   0.061775  0.651283  0.119637  0.022046
    H   H8   0.938224  0.651283  0.880363  0.022053
    H   H9   0.056861  0.003871  0.592194  0.127444
    H   H10  0.943139  0.003871  0.407806  0.127440
    O   O1   0.935842  0.334349  0.633520  -0.729863
    O   O2   0.064158  0.334349  0.366481  -0.729880
    O   O3   0.097125  0.338178  0.627228  -0.755435
    O   O4   0.902875  0.338178  0.372773  -0.755413
    C   C17  0.021763  0.283289  0.670864  0.959066
    C   C18  0.978237  0.283289  0.329136  0.958911
    O   O5   0.064047  0.670838  0.366807  -0.724588
    O   O6   0.935953  0.670838  0.633194  -0.724528
    O   O7   0.902710  0.666091  0.372512  -0.751329
    O   O8   0.097290  0.666091  0.627488  -0.751299
    C   C19  0.977844  0.721515  0.329257  0.928393
    C   C20  0.022156  0.721515  0.670743  0.928274
    Zn  Zn1  0.104099  0.502362  0.493987  1.073307
    Zn  Zn2  0.895901  0.502362  0.506013  1.073237
    C   C21  0.454643  0.597075  0.606473  -0.116275
    C   C22  0.545357  0.597075  0.393527  -0.116285
    C   C23  0.439132  0.572566  0.375403  -0.172901
    C   C24  0.560867  0.572567  0.624597  -0.172868
    H   H11  0.597127  0.686272  0.644522  0.067582
    H   H12  0.402873  0.686271  0.355478  0.067602
    H   H13  0.438613  0.722557  0.588837  0.025297
    H   H14  0.561386  0.722557  0.411163  0.025291
    H   H15  0.418988  0.491837  0.295441  0.043441
    H   H16  0.581012  0.491837  0.704559  0.043427
    H   H17  0.574657  0.559434  0.307663  0.056821
    H   H18  0.425343  0.559434  0.692337  0.056837
    N   N1   0.773678  0.502039  0.513992  0.054680
    N   N2   0.226322  0.502039  0.486008  0.054645
    C   C25  0.410956  0.501877  0.494335  0.662047
    C   C26  0.589044  0.501877  0.505665  0.662094
    C   C27  0.552006  0.335967  0.492046  -0.128535
    C   C28  0.447994  0.335967  0.507955  -0.128459
    C   C29  0.692229  0.501944  0.511376  -0.302160
    C   C30  0.307771  0.501944  0.488625  -0.302109
    H   H19  0.439243  0.291135  0.602681  0.028324
    H   H20  0.560757  0.291135  0.397320  0.028304
    H   H21  0.408345  0.260039  0.435355  0.056540
    H   H22  0.591655  0.260039  0.564646  0.056583
