# Generated by REPEAT Assigner based on pymatgen
data_DB0-m29_o93_o1510_f0_pts.sym.40
_audit_creation_date              2022-05-24
_audit_creation_method            REPEAT_Assigner
_cell_length_a                    14.966920
_cell_length_b                    19.818087
_cell_length_c                    13.466022
_cell_angle_alpha                 96.530331
_cell_angle_beta                  101.572634
_cell_angle_gamma                 71.091162
_cell_volume                      3696.751916
_symmetry_space_group_name_H-M    P1
_symmetry_Int_Tables_number       1
loop_
    _symmetry_equiv_pos_site_id
    _symmetry_equiv_pos_as_xyz
    1  x,y,z
loop_
    _atom_site_type_symbol
    _atom_site_label
    _atom_site_fract_x
    _atom_site_fract_y
    _atom_site_fract_z
    _atom_type_partial_charge
    C   C1   0.781297  0.015399  0.164410  0.052447
    H   H1   0.768497  0.018638  0.241254  0.133348
    C   C2   0.866828  0.020557  0.148967  -0.342203
    H   H2   0.919318  0.028611  0.213221  0.154511
    C   C3   0.887043  0.013626  0.052523  0.478852
    C   C4   0.818589  0.003932  0.970440  -0.275197
    H   H3   0.831414  0.000211  0.893740  0.159919
    C   C5   0.731650  0.998913  0.984809  0.061196
    C   C6   0.714239  0.002847  0.083933  -0.208291
    N   N1   0.977667  0.016434  0.040415  -0.200362
    N   N2   0.989065  0.006738  0.950351  -0.058836
    C   C7   0.098670  0.001265  0.837384  -0.449334
    C   C8   0.186852  0.002333  0.823061  0.050022
    H   H4   0.201427  0.998941  0.747029  0.123658
    C   C9   0.256512  0.010246  0.903540  -0.110417
    C   C10  0.239374  0.015114  0.002356  0.015014
    C   C11  0.150289  0.015016  0.017276  -0.160410
    H   H5   0.138599  0.018035  0.094402  0.087679
    C   C12  0.079471  0.008328  0.935510  0.442854
    O   O1   0.474675  0.090206  0.714497  -0.657780
    C   C13  0.385337  0.126594  0.679934  0.676261
    O   O2   0.381408  0.065248  0.920847  -0.514013
    O   O3   0.315162  0.106445  0.697967  -0.547758
    O   O4   0.378260  0.975303  0.800517  -0.685394
    C   C14  0.345081  0.014735  0.878242  0.835700
    Fe  Fe1  0.487926  0.997086  0.765580  1.485609
    O   O5   0.576394  0.988313  0.900125  -0.538616
    O   O6   0.675146  0.003102  0.803711  -0.452717
    C   C15  0.659246  0.995019  0.893325  0.598040
    O   O7   0.527946  0.931123  0.646846  -0.562422
    O   O8   0.635974  0.851594  0.756844  -0.483744
    C   C16  0.597077  0.870586  0.663853  0.517638
    O   O9   0.440789  0.057064  0.335903  -0.542713
    O   O10  0.427888  0.154418  0.252066  -0.420222
    C   C17  0.416384  0.126680  0.330785  0.514498
    O   O11  0.405673  0.992033  0.084915  -0.570007
    O   O12  0.290020  0.034717  0.182126  -0.458016
    C   C18  0.314283  0.015848  0.092296  0.579105
    O   O13  0.679140  0.907113  0.295739  -0.588096
    O   O14  0.587693  0.032149  0.181669  -0.650978
    C   C19  0.629487  0.991512  0.109292  0.885853
    O   O15  0.528539  0.898899  0.274265  -0.665280
    C   C20  0.620392  0.874620  0.312364  0.714543
    O   O16  0.608527  0.932571  0.076272  -0.472681
    Fe  Fe2  0.492328  0.994390  0.219163  1.467229
    H   H6   0.544221  0.909259  0.473368  0.145654
    C   C21  0.648592  0.832279  0.401637  0.065999
    C   C22  0.727733  0.772382  0.411710  -0.221348
    H   H7   0.762612  0.751320  0.346896  0.123431
    C   C23  0.759410  0.738628  0.502728  0.122553
    C   C24  0.714832  0.768433  0.585606  -0.200367
    H   H8   0.742670  0.744842  0.658418  0.137464
    C   C25  0.637725  0.830514  0.576130  0.103050
    C   C26  0.602916  0.860092  0.482690  -0.173780
    C   C27  0.157175  0.469608  0.518173  -0.050714
    H   H9   0.178366  0.517491  0.533288  0.094699
    C   C28  0.227140  0.404317  0.513697  -0.184270
    H   H10  0.301698  0.401801  0.524889  0.093667
    C   C29  0.202352  0.342238  0.496164  0.162715
    C   C30  0.107541  0.345593  0.485858  -0.192883
    H   H11  0.087974  0.296977  0.474056  0.120843
    C   C31  0.037488  0.410721  0.490896  -0.083754
    H   H12  0.963453  0.412039  0.480306  0.106703
    C   C32  0.061757  0.473287  0.507079  -0.015716
    C   C33  0.314058  0.239569  0.412708  -0.439468
    C   C34  0.379687  0.170889  0.418417  0.196617
    C   C35  0.407565  0.138460  0.510041  -0.252786
    H   H13  0.457536  0.085099  0.515970  0.153755
    C   C36  0.366965  0.170053  0.593200  0.181588
    C   C37  0.300487  0.236759  0.587339  -0.332487
    H   H14  0.266161  0.260892  0.651688  0.129615
    C   C38  0.276708  0.272766  0.499076  0.288284
    C   C39  0.991011  0.600279  0.465350  -0.150941
    H   H15  0.049370  0.595112  0.426112  0.121768
    C   C40  0.918290  0.664359  0.464632  -0.145934
    H   H16  0.923150  0.708215  0.427350  0.123299
    C   C41  0.840573  0.672229  0.510724  0.106674
    C   C42  0.837858  0.615510  0.559717  -0.148985
    H   H17  0.777393  0.620029  0.595278  0.116587
    C   C43  0.910185  0.551131  0.559578  -0.138211
    H   H18  0.906009  0.507483  0.597883  0.115644
    C   C44  0.986824  0.542783  0.511426  0.111421
    C   C45  0.275814  0.274180  0.315398  0.756038
    O   O17  0.242002  0.242597  0.242019  -0.457665
    O   O18  0.276116  0.341325  0.307527  -0.309458
    C   C46  0.239826  0.374641  0.217656  -0.001764
    H   H19  0.247174  0.429029  0.227692  0.072386
    H   H20  0.162792  0.378981  0.194791  0.042311
    H   H21  0.280237  0.343840  0.157874  0.074574
    C   C47  0.027627  0.993269  0.746608  0.788406
    O   O19  0.947841  0.993232  0.754164  -0.481761
    O   O20  0.051246  0.985965  0.653575  -0.305219
    C   C48  0.987008  0.978643  0.567992  -0.030598
    H   H22  0.020776  0.973468  0.500191  0.095933
    H   H23  0.922393  0.026421  0.562281  0.079390
    H   H24  0.966430  0.930018  0.570919  0.068550
