# generated using pymatgen
data_Fe2H19C52ClO16
_symmetry_space_group_name_H-M   'P 1'
_cell_length_a   15.88131400
_cell_length_b   14.33384700
_cell_length_c   11.37213300
_cell_angle_alpha   95.07421700
_cell_angle_beta   87.99527400
_cell_angle_gamma   98.29996100
_symmetry_Int_Tables_number   1
_chemical_formula_structural   Fe2H19C52ClO16
_chemical_formula_sum   'Fe2 H19 C52 Cl1 O16'
_cell_volume   2550.95384973
_cell_formula_units_Z   1
loop_
 _symmetry_equiv_pos_site_id
 _symmetry_equiv_pos_as_xyz
  1  'x, y, z'
loop_
 _atom_site_type_symbol
 _atom_site_label
 _atom_site_symmetry_multiplicity
 _atom_site_fract_x
 _atom_site_fract_y
 _atom_site_fract_z
 _atom_site_occupancy
  Fe  Fe1  1  0.52441700  0.00084800  0.20753400  1
  Fe  Fe2  1  0.51792400  0.00793500  0.70494500  1
  H  H1  1  0.92968200  0.99232500  0.77062500  1
  H  H2  1  0.18996500  0.97856000  0.77766600  1
  H  H3  1  0.04742400  0.96995500  0.82181900  1
  H  H4  1  0.78750500  0.98443500  0.71570900  1
  H  H5  1  0.25562600  0.02398300  0.19816000  1
  H  H6  1  0.94959100  0.02478500  0.28991800  1
  H  H7  1  0.81031600  0.01255900  0.23027900  1
  H  H8  1  0.53852800  0.31748900  0.77328000  1
  H  H9  1  0.48396000  0.29767200  0.26700200  1
  H  H10  1  0.41574200  0.39050400  0.19289500  1
  H  H11  1  0.38983500  0.51647400  0.08400200  1
  H  H12  1  0.53653300  0.60337500  0.74900700  1
  H  H13  1  0.53269500  0.71001100  0.64454300  1
  H  H14  1  0.41975100  0.67696700  0.16129900  1
  H  H15  1  0.55232400  0.47641100  0.85919600  1
  H  H16  1  0.08113900  0.87952300  0.30599800  1
  H  H17  1  0.14854400  0.06649200  0.61105500  1
  H  H18  1  0.16231600  0.20222600  0.49058000  1
  H  H19  1  0.13484500  0.17695000  0.27787700  1
  C  C1  1  0.88299700  0.98577400  0.84112800  1
  C  C2  1  0.28854400  0.00000800  0.90468300  1
  C  C3  1  0.20457500  0.98927400  0.87023700  1
  C  C4  1  0.13854300  0.99346500  0.95273800  1
  C  C5  1  0.05577400  0.98430800  0.91524000  1
  C  C6  1  0.98773100  0.99126400  0.99530300  1
  C  C7  1  0.80053100  0.98300500  0.80814200  1
  C  C8  1  0.73450600  0.97527200  0.88925900  1
  C  C9  1  0.90289700  0.98596500  0.95921200  1
  C  C10  1  0.83652900  0.98535400  0.04324300  1
  C  C11  1  0.75125700  0.97468400  0.00846300  1
  C  C12  1  0.30482800  0.01261400  0.02479300  1
  C  C13  1  0.23879600  0.01455000  0.10634300  1
  C  C14  1  0.15534700  0.00682200  0.07107900  1
  C  C15  1  0.08876100  0.01171700  0.15256500  1
  C  C16  1  0.00536300  0.00395800  0.11475500  1
  C  C17  1  0.93949300  0.01121400  0.19630600  1
  C  C18  1  0.85691200  0.00177800  0.16133800  1
  C  C19  1  0.67952400  0.96778600  0.09588700  1
  C  C20  1  0.51300200  0.82162800  0.28525100  1
  C  C21  1  0.39023000  0.02388600  0.07164600  1
  C  C22  1  0.48569500  0.14710200  0.36738700  1
  C  C23  1  0.53378700  0.85490700  0.54457500  1
  C  C24  1  0.64887800  0.97121400  0.84360500  1
  C  C25  1  0.48875900  0.17649900  0.62310200  1
  C  C26  1  0.35705900  0.99663300  0.81318400  1
  C  C27  1  0.48788200  0.24139100  0.42873100  1
  C  C28  1  0.49299100  0.25740000  0.55002800  1
  C  C29  1  0.50497800  0.35084900  0.60001700  1
  C  C30  1  0.52628000  0.37076700  0.71756800  1
  C  C31  1  0.53642100  0.46184000  0.76711700  1
  C  C32  1  0.48487300  0.31535100  0.36094100  1
  C  C33  1  0.48386700  0.40700400  0.41155400  1
  C  C34  1  0.49958800  0.42564600  0.53085600  1
  C  C35  1  0.51066100  0.51875200  0.58081600  1
  C  C36  1  0.43669900  0.46089800  0.23164700  1
  C  C37  1  0.46987700  0.48009900  0.34416000  1
  C  C38  1  0.48526900  0.57363300  0.39158500  1
  C  C39  1  0.42021700  0.53274500  0.16839100  1
  C  C40  1  0.44026700  0.62493000  0.21212700  1
  C  C41  1  0.52779400  0.53499000  0.70099800  1
  C  C42  1  0.50621300  0.59316200  0.50941200  1
  C  C43  1  0.51910400  0.68729700  0.55404000  1
  C  C44  1  0.47770300  0.64748200  0.32140100  1
  C  C45  1  0.50278500  0.74215000  0.36393300  1
  C  C46  1  0.51920000  0.76011000  0.48370300  1
  C  C47  1  0.10656500  0.02664000  0.27879100  1
  C  C48  1  0.09924400  0.95040900  0.34641200  1
  C  C49  1  0.11429600  0.96469900  0.46574100  1
  C  C50  1  0.13696800  0.05515900  0.51748400  1
  C  C51  1  0.14463600  0.13133700  0.44993400  1
  C  C52  1  0.12932900  0.11714000  0.33066000  1
  Cl  Cl1  1  0.10394600  0.86791700  0.55152400  1
  O  O1  1  0.61293500  0.00991500  0.08050900  1
  O  O2  1  0.52350800  0.80553200  0.17067000  1
  O  O3  1  0.68068000  0.91745300  0.18655300  1
  O  O4  1  0.52073200  0.91016400  0.32985300  1
  O  O5  1  0.41259700  0.95674800  0.12977500  1
  O  O6  1  0.43958600  0.10556400  0.07032900  1
  O  O7  1  0.54657600  0.13117200  0.29041800  1
  O  O8  1  0.42136000  0.08066700  0.38391500  1
  O  O9  1  0.47581900  0.88190800  0.62020300  1
  O  O10  1  0.60828600  0.90738700  0.53591000  1
  O  O11  1  0.63590200  0.03240600  0.76918600  1
  O  O12  1  0.58823000  0.90254500  0.86727200  1
  O  O13  1  0.33747300  0.98388400  0.70119300  1
  O  O14  1  0.52652900  0.10290400  0.58723100  1
  O  O15  1  0.43769400  0.00968500  0.84211800  1
  O  O16  1  0.44450400  0.17626800  0.72265900  1
