# generated using pymatgen
data_Zn3H36C40(NO2)8
_symmetry_space_group_name_H-M   'P 1'
_cell_length_a   30.48395700
_cell_length_b   30.46805600
_cell_length_c   24.59112100
_cell_angle_alpha   90.00000000
_cell_angle_beta   128.30007300
_cell_angle_gamma   90.00000000
_symmetry_Int_Tables_number   1
_chemical_formula_structural   Zn3H36C40(NO2)8
_chemical_formula_sum   'Zn12 H144 C160 N32 O64'
_cell_volume   17924.20462775
_cell_formula_units_Z   4
loop_
 _symmetry_equiv_pos_site_id
 _symmetry_equiv_pos_as_xyz
  1  'x, y, z'
loop_
 _atom_site_type_symbol
 _atom_site_label
 _atom_site_symmetry_multiplicity
 _atom_site_fract_x
 _atom_site_fract_y
 _atom_site_fract_z
 _atom_site_occupancy
  Zn  Zn1  1  0.78660200  0.71125000  0.50150500  1
  Zn  Zn2  1  0.21339800  0.71125000  0.49849500  1
  Zn  Zn3  1  0.28660200  0.21125000  0.50150500  1
  Zn  Zn4  1  0.71339800  0.21125000  0.49849500  1
  Zn  Zn5  1  0.71502300  0.78129500  0.49912400  1
  Zn  Zn6  1  0.28497700  0.78129500  0.50087700  1
  Zn  Zn7  1  0.21502300  0.28129500  0.49912400  1
  Zn  Zn8  1  0.78497700  0.28129500  0.50087700  1
  Zn  Zn9  1  0.54109200  0.49678400  0.57823400  1
  Zn  Zn10  1  0.45890800  0.49678400  0.42176600  1
  Zn  Zn11  1  0.04109200  0.99678400  0.57823400  1
  Zn  Zn12  1  0.95890800  0.99678400  0.42176600  1
  H  H1  1  0.61325600  0.81034600  0.27920500  1
  H  H2  1  0.38674400  0.81034600  0.72079600  1
  H  H3  1  0.11325600  0.31034600  0.27920500  1
  H  H4  1  0.88674400  0.31034600  0.72079600  1
  H  H5  1  0.55049000  0.80986000  0.15358200  1
  H  H6  1  0.44951000  0.80986000  0.84641800  1
  H  H7  1  0.05049000  0.30986000  0.15358200  1
  H  H8  1  0.94951000  0.30986000  0.84641800  1
  H  H9  1  0.60619000  0.68077000  0.15480900  1
  H  H10  1  0.39381000  0.68077000  0.84519200  1
  H  H11  1  0.10619000  0.18077000  0.15480900  1
  H  H12  1  0.89381000  0.18077000  0.84519200  1
  H  H13  1  0.67041900  0.68190600  0.28085900  1
  H  H14  1  0.32958200  0.68190600  0.71914200  1
  H  H15  1  0.17041900  0.18190600  0.28085900  1
  H  H16  1  0.82958200  0.18190600  0.71914200  1
  H  H17  1  0.89553200  0.80119300  0.48389000  1
  H  H18  1  0.10446800  0.80119300  0.51611000  1
  H  H19  1  0.39553200  0.30119300  0.48389000  1
  H  H20  1  0.60446800  0.30119300  0.51611000  1
  H  H21  1  0.93159500  0.85428800  0.46141200  1
  H  H22  1  0.06840500  0.85428800  0.53858800  1
  H  H23  1  0.43159500  0.35428800  0.46141200  1
  H  H24  1  0.56840500  0.35428800  0.53858800  1
  H  H25  1  0.86455300  0.87948800  0.39783100  1
  H  H26  1  0.13544700  0.87948700  0.60216900  1
  H  H27  1  0.36455300  0.37948800  0.39783100  1
  H  H28  1  0.63544700  0.37948800  0.60216900  1
  H  H29  1  0.77637600  0.88256800  0.42204400  1
  H  H30  1  0.22362400  0.88256800  0.57795700  1
  H  H31  1  0.27637600  0.38256800  0.42204400  1
  H  H32  1  0.72362400  0.38256800  0.57795700  1
  H  H33  1  0.82990500  0.93776800  0.43120000  1
  H  H34  1  0.17009600  0.93776800  0.56880000  1
  H  H35  1  0.32990500  0.43776800  0.43120000  1
  H  H36  1  0.67009500  0.43776800  0.56880000  1
  H  H37  1  0.88533000  0.87028300  0.60189200  1
  H  H38  1  0.11467100  0.87028300  0.39810900  1
  H  H39  1  0.38533000  0.37028300  0.60189200  1
  H  H40  1  0.61467100  0.37028300  0.39810900  1
  H  H41  1  0.97468400  0.86240700  0.58678900  1
  H  H42  1  0.02531700  0.86240700  0.41321100  1
  H  H43  1  0.47468400  0.36240700  0.58678900  1
  H  H44  1  0.52531700  0.36240700  0.41321100  1
  H  H45  1  0.95354400  0.90668800  0.61470100  1
  H  H46  1  0.04645700  0.90668800  0.38530000  1
  H  H47  1  0.45354400  0.40668800  0.61470100  1
  H  H48  1  0.54645700  0.40668800  0.38530000  1
  H  H49  1  0.80231100  0.89509000  0.50793400  1
  H  H50  1  0.19768900  0.89509000  0.49206600  1
  H  H51  1  0.30231100  0.39509000  0.50793400  1
  H  H52  1  0.69768900  0.39509000  0.49206600  1
  H  H53  1  0.86141400  0.94525200  0.52139500  1
  H  H54  1  0.13858600  0.94525200  0.47860500  1
  H  H55  1  0.36141400  0.44525200  0.52139500  1
  H  H56  1  0.63858600  0.44525200  0.47860500  1
  H  H57  1  0.79503100  0.77437900  0.71967200  1
  H  H58  1  0.20497000  0.77437900  0.28032800  1
  H  H59  1  0.29503100  0.27437900  0.71967200  1
  H  H60  1  0.70497000  0.27437900  0.28032800  1
  H  H61  1  0.85776400  0.77511200  0.84557100  1
  H  H62  1  0.14223600  0.77511200  0.15442900  1
  H  H63  1  0.35776400  0.27511200  0.84557100  1
  H  H64  1  0.64223600  0.27511200  0.15442900  1
  H  H65  1  0.98781000  0.72096500  0.84674000  1
  H  H66  1  0.01219100  0.72096500  0.15326000  1
  H  H67  1  0.48781000  0.22096500  0.84674000  1
  H  H68  1  0.51219100  0.22096500  0.15326000  1
  H  H69  1  0.92471700  0.71898700  0.72125200  1
  H  H70  1  0.07528300  0.71898700  0.27874800  1
  H  H71  1  0.42471700  0.21898700  0.72125200  1
  H  H72  1  0.57528300  0.21898700  0.27874800  1
  H  H73  1  0.57352300  0.67826100  0.41974500  1
  H  H74  1  0.42647700  0.67826100  0.58025500  1
  H  H75  1  0.07352300  0.17826100  0.41974500  1
  H  H76  1  0.92647700  0.17826100  0.58025500  1
  H  H77  1  0.52322100  0.62204200  0.40247100  1
  H  H78  1  0.47678000  0.62204200  0.59753000  1
  H  H79  1  0.02322100  0.12204200  0.40247100  1
  H  H80  1  0.97678000  0.12204200  0.59753000  1
  H  H81  1  0.68811400  0.59412200  0.48035000  1
  H  H82  1  0.31188700  0.59412200  0.51965100  1
  H  H83  1  0.18811400  0.09412200  0.48035000  1
  H  H84  1  0.81188700  0.09412200  0.51965100  1
  H  H85  1  0.65004600  0.54169900  0.50727000  1
  H  H86  1  0.34995500  0.54169900  0.49273000  1
  H  H87  1  0.15004600  0.04169900  0.50727000  1
  H  H88  1  0.84995400  0.04169900  0.49273000  1
  H  H89  1  0.68306100  0.66051300  0.60199100  1
  H  H90  1  0.31693900  0.66051300  0.39800900  1
  H  H91  1  0.18306100  0.16051300  0.60199100  1
  H  H92  1  0.81693900  0.16051300  0.39800900  1
  H  H93  1  0.62626000  0.69622100  0.53950400  1
  H  H94  1  0.37374100  0.69622100  0.46049600  1
  H  H95  1  0.12626000  0.19622100  0.53950400  1
  H  H96  1  0.87374100  0.19622100  0.46049600  1
  H  H97  1  0.56060800  0.64746400  0.51493500  1
  H  H98  1  0.43939200  0.64746400  0.48506600  1
  H  H99  1  0.06060800  0.14746400  0.51493400  1
  H  H100  1  0.93939200  0.14746400  0.48506600  1
  H  H101  1  0.61687900  0.61955700  0.59227800  1
  H  H102  1  0.38312200  0.61955700  0.40772200  1
  H  H103  1  0.11687900  0.11955700  0.59227800  1
  H  H104  1  0.88312100  0.11955700  0.40772200  1
  H  H105  1  0.72628900  0.61043400  0.56911800  1
  H  H106  1  0.27371100  0.61043500  0.43088200  1
  H  H107  1  0.22628900  0.11043400  0.56911800  1
  H  H108  1  0.77371100  0.11043500  0.43088200  1
  H  H109  1  0.67451200  0.56964800  0.58506100  1
  H  H110  1  0.32548800  0.56964800  0.41494000  1
  H  H111  1  0.17451200  0.06964800  0.58506100  1
  H  H112  1  0.82548800  0.06964800  0.41494000  1
  H  H113  1  0.96423600  0.75259900  0.64145400  1
  H  H114  1  0.98746800  0.79067400  0.61533600  1
  H  H115  1  0.03576400  0.75259900  0.35854600  1
  H  H116  1  0.01253200  0.79067400  0.38466500  1
  H  H117  1  0.46423600  0.25259900  0.64145400  1
  H  H118  1  0.48746800  0.29067400  0.61533600  1
  H  H119  1  0.53576400  0.25259900  0.35854600  1
  H  H120  1  0.51253200  0.29067400  0.38466500  1
  H  H121  1  0.56168500  0.66389700  0.26633800  1
  H  H122  1  0.54786400  0.69926100  0.30673800  1
  H  H123  1  0.43831500  0.66389700  0.73366200  1
  H  H124  1  0.45213700  0.69926100  0.69326300  1
  H  H125  1  0.06168500  0.16389700  0.26633800  1
  H  H126  1  0.04786400  0.19926100  0.30673800  1
  H  H127  1  0.93831500  0.16389700  0.73366200  1
  H  H128  1  0.95213700  0.19926100  0.69326300  1
  H  H129  1  0.59446600  0.55398100  0.33549400  1
  H  H130  1  0.58813800  0.51681700  0.38100500  1
  H  H131  1  0.40553400  0.55398100  0.66450600  1
  H  H132  1  0.41186300  0.51681700  0.61899500  1
  H  H133  1  0.09446600  0.05398100  0.33549400  1
  H  H134  1  0.08813800  0.01681700  0.38100500  1
  H  H135  1  0.90553400  0.05398100  0.66450600  1
  H  H136  1  0.91186300  0.01681700  0.61899500  1
  H  H137  1  0.78458600  0.76269700  0.31671600  1
  H  H138  1  0.82257700  0.74502000  0.39931100  1
  H  H139  1  0.21541400  0.76269700  0.68328400  1
  H  H140  1  0.17742300  0.74502100  0.60068900  1
  H  H141  1  0.28458600  0.26269700  0.31671600  1
  H  H142  1  0.32257700  0.24502000  0.39931100  1
  H  H143  1  0.71541400  0.26269700  0.68328400  1
  H  H144  1  0.67742300  0.24502100  0.60069000  1
  C  C1  1  0.81255700  0.80678500  0.50173700  1
  C  C2  1  0.18744300  0.80678500  0.49826300  1
  C  C3  1  0.31255700  0.30678500  0.50173700  1
  C  C4  1  0.68744300  0.30678500  0.49826300  1
  C  C5  1  0.68370800  0.74664100  0.36464100  1
  C  C6  1  0.31629200  0.74664100  0.63535900  1
  C  C7  1  0.18370800  0.24664100  0.36464100  1
  C  C8  1  0.81629200  0.24664100  0.63535900  1
  C  C9  1  0.68922800  0.68584500  0.49915000  1
  C  C10  1  0.31077300  0.68584500  0.50085000  1
  C  C11  1  0.18922800  0.18584500  0.49915000  1
  C  C12  1  0.81077300  0.18584500  0.50085000  1
  C  C13  1  0.81788600  0.74589400  0.63592300  1
  C  C14  1  0.18211400  0.74589400  0.36407700  1
  C  C15  1  0.31788600  0.24589400  0.63592300  1
  C  C16  1  0.68211400  0.24589400  0.36407700  1
  C  C17  1  0.61208200  0.78174600  0.25234200  1
  C  C18  1  0.38791900  0.78174600  0.74765900  1
  C  C19  1  0.11208200  0.28174600  0.25234200  1
  C  C20  1  0.88791900  0.28174600  0.74765900  1
  C  C21  1  0.57670800  0.78157900  0.18095000  1
  C  C22  1  0.42329200  0.78157900  0.81905000  1
  C  C23  1  0.07670800  0.28157900  0.18095000  1
  C  C24  1  0.92329200  0.28157900  0.81905000  1
  C  C25  1  0.57381200  0.74525300  0.14523100  1
  C  C26  1  0.42618900  0.74525300  0.85476900  1
  C  C27  1  0.07381200  0.24525300  0.14523100  1
  C  C28  1  0.92618900  0.24525300  0.85476900  1
  C  C29  1  0.60750300  0.70940400  0.18171100  1
  C  C30  1  0.39249700  0.70940400  0.81828900  1
  C  C31  1  0.10750300  0.20940400  0.18171100  1
  C  C32  1  0.89249700  0.20940400  0.81828900  1
  C  C33  1  0.64430800  0.71019100  0.25320100  1
  C  C34  1  0.35569200  0.71019100  0.74679900  1
  C  C35  1  0.14430800  0.21019100  0.25320100  1
  C  C36  1  0.85569200  0.21019100  0.74679900  1
  C  C37  1  0.64631400  0.74620400  0.28880600  1
  C  C38  1  0.35368600  0.74620400  0.71119500  1
  C  C39  1  0.14631400  0.24620400  0.28880500  1
  C  C40  1  0.85368600  0.24620400  0.71119500  1
  C  C41  1  0.46467700  0.74501800  0.93071600  1
  C  C42  1  0.53532300  0.74501800  0.06928400  1
  C  C43  1  0.96467700  0.24501800  0.93071600  1
  C  C44  1  0.03532300  0.24501800  0.06928400  1
  C  C45  1  0.86450700  0.82790900  0.45788000  1
  C  C46  1  0.13549400  0.82790900  0.54212000  1
  C  C47  1  0.36450700  0.32790900  0.45788000  1
  C  C48  1  0.63549400  0.32790900  0.54212000  1
  C  C49  1  0.89261600  0.86599700  0.45110800  1
  C  C50  1  0.10738400  0.86599700  0.54889300  1
  C  C51  1  0.39261600  0.36599700  0.45110800  1
  C  C52  1  0.60738400  0.36599700  0.54889300  1
  C  C53  1  0.81499300  0.88503600  0.47612800  1
  C  C54  1  0.18500700  0.88503600  0.52387300  1
  C  C55  1  0.31499300  0.38503600  0.47612800  1
  C  C56  1  0.68500700  0.38503600  0.52387200  1
  C  C57  1  0.89921600  0.85123400  0.57662600  1
  C  C58  1  0.10078400  0.85123400  0.42337400  1
  C  C59  1  0.39921600  0.35123400  0.57662600  1
  C  C60  1  0.60078400  0.35123400  0.42337400  1
  C  C61  1  0.84732700  0.84174800  0.50242300  1
  C  C62  1  0.15267300  0.84174800  0.49757800  1
  C  C63  1  0.34732700  0.34174800  0.50242300  1
  C  C64  1  0.65267300  0.34174800  0.49757800  1
  C  C65  1  0.90641200  0.90122600  0.50309100  1
  C  C66  1  0.09358800  0.90122600  0.49690900  1
  C  C67  1  0.40641200  0.40122600  0.50309100  1
  C  C68  1  0.59358800  0.40122600  0.49690900  1
  C  C69  1  0.85214200  0.92095800  0.48191300  1
  C  C70  1  0.14785800  0.92095800  0.51808700  1
  C  C71  1  0.35214200  0.42095800  0.48191300  1
  C  C72  1  0.64785800  0.42095800  0.51808700  1
  C  C73  1  0.93841600  0.88085300  0.57493400  1
  C  C74  1  0.06158500  0.88085300  0.42506700  1
  C  C75  1  0.43841600  0.38085300  0.57493300  1
  C  C76  1  0.56158500  0.38085300  0.42506700  1
  C  C77  1  0.83732200  0.76257500  0.74723100  1
  C  C78  1  0.16267800  0.76257500  0.25277000  1
  C  C79  1  0.33732200  0.26257500  0.74723100  1
  C  C80  1  0.66267800  0.26257500  0.25277000  1
  C  C81  1  0.87282100  0.76271000  0.81866600  1
  C  C82  1  0.12717900  0.76271000  0.18133400  1
  C  C83  1  0.37282100  0.26271000  0.81866600  1
  C  C84  1  0.62717900  0.26271000  0.18133400  1
  C  C85  1  0.92724800  0.74819600  0.85500700  1
  C  C86  1  0.07275200  0.74819600  0.14499300  1
  C  C87  1  0.42724800  0.24819600  0.85500700  1
  C  C88  1  0.57275200  0.24819600  0.14499300  1
  C  C89  1  0.94557200  0.73283800  0.81936600  1
  C  C90  1  0.05442800  0.73283800  0.18063500  1
  C  C91  1  0.44557200  0.23283800  0.81936600  1
  C  C92  1  0.55442800  0.23283800  0.18063500  1
  C  C93  1  0.90956500  0.73135800  0.74806500  1
  C  C94  1  0.09043600  0.73135800  0.25193500  1
  C  C95  1  0.40956500  0.23135800  0.74806500  1
  C  C96  1  0.59043600  0.23135800  0.25193500  1
  C  C97  1  0.85545700  0.74659400  0.71167400  1
  C  C98  1  0.14454300  0.74659400  0.28832600  1
  C  C99  1  0.35545700  0.24659400  0.71167400  1
  C  C100  1  0.64454300  0.24659400  0.28832600  1
  C  C101  1  0.03474400  0.74877600  0.06920400  1
  C  C102  1  0.96525600  0.74877600  0.93079700  1
  C  C103  1  0.53474400  0.24877600  0.06920400  1
  C  C104  1  0.46525600  0.24877600  0.93079700  1
  C  C105  1  0.59704900  0.64857600  0.42533200  1
  C  C106  1  0.40295100  0.64857600  0.57466900  1
  C  C107  1  0.09704900  0.14857600  0.42533200  1
  C  C108  1  0.90295100  0.14857600  0.57466900  1
  C  C109  1  0.56472000  0.60923000  0.42202500  1
  C  C110  1  0.43528000  0.60923000  0.57797600  1
  C  C111  1  0.06472000  0.10923000  0.42202500  1
  C  C112  1  0.93528000  0.10923000  0.57797600  1
  C  C113  1  0.68382500  0.60686600  0.51893600  1
  C  C114  1  0.31617500  0.60686600  0.48106400  1
  C  C115  1  0.18382500  0.10686600  0.51893600  1
  C  C116  1  0.81617500  0.10686600  0.48106400  1
  C  C117  1  0.64326000  0.66254700  0.54842300  1
  C  C118  1  0.35674000  0.66254700  0.45157700  1
  C  C119  1  0.14326000  0.16254700  0.54842300  1
  C  C120  1  0.85674000  0.16254700  0.45157700  1
  C  C121  1  0.65381200  0.65101000  0.49719700  1
  C  C122  1  0.34618800  0.65101000  0.50280300  1
  C  C123  1  0.15381200  0.15101000  0.49719700  1
  C  C124  1  0.84618800  0.15101000  0.50280300  1
  C  C125  1  0.59379400  0.59200000  0.49596600  1
  C  C126  1  0.40620600  0.59200000  0.50403400  1
  C  C127  1  0.09379400  0.09200000  0.49596600  1
  C  C128  1  0.90620600  0.09200000  0.50403400  1
  C  C129  1  0.65182500  0.57415800  0.52870700  1
  C  C130  1  0.34817600  0.57415800  0.47129300  1
  C  C131  1  0.15182500  0.07415800  0.52870700  1
  C  C132  1  0.84817600  0.07415800  0.47129300  1
  C  C133  1  0.60124800  0.63064100  0.54012600  1
  C  C134  1  0.39875200  0.63064100  0.45987500  1
  C  C135  1  0.10124800  0.13064100  0.54012600  1
  C  C136  1  0.89875200  0.13064100  0.45987500  1
  C  C137  1  0.05974400  0.93599100  0.49806900  1
  C  C138  1  0.94025700  0.93599100  0.50193200  1
  C  C139  1  0.55974400  0.43599100  0.49806900  1
  C  C140  1  0.44025700  0.43599100  0.50193200  1
  C  C141  1  0.44017100  0.55750100  0.50212800  1
  C  C142  1  0.55982900  0.55750100  0.49787200  1
  C  C143  1  0.94017100  0.05750100  0.50212800  1
  C  C144  1  0.05982900  0.05750100  0.49787200  1
  C  C145  1  0.92783600  0.81143800  0.62160800  1
  C  C146  1  0.07216500  0.81143800  0.37839200  1
  C  C147  1  0.42783600  0.31143800  0.62160800  1
  C  C148  1  0.57216500  0.31143800  0.37839200  1
  C  C149  1  0.59909300  0.64960600  0.36579100  1
  C  C150  1  0.40090700  0.64960600  0.63420900  1
  C  C151  1  0.09909300  0.14960600  0.36579100  1
  C  C152  1  0.90090700  0.14960600  0.63420900  1
  C  C153  1  0.55344000  0.57530900  0.37004500  1
  C  C154  1  0.44656000  0.57530900  0.62995500  1
  C  C155  1  0.05344000  0.07530900  0.37004500  1
  C  C156  1  0.94656000  0.07530900  0.62995500  1
  C  C157  1  0.81699600  0.81069400  0.38753800  1
  C  C158  1  0.18300500  0.81069400  0.61246200  1
  C  C159  1  0.31699600  0.31069400  0.38753800  1
  C  C160  1  0.68300500  0.31069400  0.61246200  1
  N  N1  1  0.51759700  0.70681900  0.03426300  1
  N  N2  1  0.48240300  0.70681900  0.96573700  1
  N  N3  1  0.01759700  0.20681900  0.03426300  1
  N  N4  1  0.98240300  0.20681900  0.96573700  1
  N  N5  1  0.48268600  0.78317100  0.96576600  1
  N  N6  1  0.51731400  0.78317100  0.03423500  1
  N  N7  1  0.98268600  0.28317100  0.96576600  1
  N  N8  1  0.01731400  0.28317100  0.03423500  1
  N  N9  1  0.02088800  0.74870000  0.96559700  1
  N  N10  1  0.97911200  0.74870000  0.03440300  1
  N  N11  1  0.52088800  0.24870000  0.96559700  1
  N  N12  1  0.47911200  0.24870000  0.03440300  1
  N  N13  1  0.05527000  0.74895900  0.03406500  1
  N  N14  1  0.94473100  0.74895900  0.96593500  1
  N  N15  1  0.55527000  0.24895900  0.03406500  1
  N  N16  1  0.44473100  0.24895900  0.96593500  1
  N  N17  1  0.95161500  0.77810300  0.60621000  1
  N  N18  1  0.04838500  0.77810300  0.39379000  1
  N  N19  1  0.45161500  0.27810300  0.60621000  1
  N  N20  1  0.54838500  0.27810300  0.39379000  1
  N  N21  1  0.55215100  0.66606900  0.30034500  1
  N  N22  1  0.44784900  0.66606900  0.69965500  1
  N  N23  1  0.05215100  0.16606900  0.30034500  1
  N  N24  1  0.94784900  0.16606900  0.69965500  1
  N  N25  1  0.59687400  0.54971400  0.37939400  1
  N  N26  1  0.40312600  0.54971400  0.62060600  1
  N  N27  1  0.09687400  0.04971400  0.37939400  1
  N  N28  1  0.90312600  0.04971400  0.62060600  1
  N  N29  1  0.82119100  0.76810600  0.36696000  1
  N  N30  1  0.17880900  0.76810600  0.63304100  1
  N  N31  1  0.32119100  0.26810600  0.36696000  1
  N  N32  1  0.67880900  0.26810600  0.63304100  1
  O  O1  1  0.82597200  0.76557100  0.50371000  1
  O  O2  1  0.17402800  0.76557100  0.49629100  1
  O  O3  1  0.32597200  0.26557100  0.50370900  1
  O  O4  1  0.67402800  0.26557100  0.49629100  1
  O  O5  1  0.76985300  0.81874600  0.49895000  1
  O  O6  1  0.23014700  0.81874600  0.50105100  1
  O  O7  1  0.26985300  0.31874600  0.49895000  1
  O  O8  1  0.73014700  0.31874600  0.50105100  1
  O  O9  1  0.72732100  0.72050700  0.39821200  1
  O  O10  1  0.27268000  0.72050700  0.60178800  1
  O  O11  1  0.22732100  0.22050700  0.39821200  1
  O  O12  1  0.77268000  0.22050700  0.60178800  1
  O  O13  1  0.67170900  0.77306200  0.39583000  1
  O  O14  1  0.32829200  0.77306200  0.60417000  1
  O  O15  1  0.17170900  0.27306200  0.39583000  1
  O  O16  1  0.82829200  0.27306200  0.60417000  1
  O  O17  1  0.73234500  0.67380500  0.50281600  1
  O  O18  1  0.26765600  0.67380500  0.49718400  1
  O  O19  1  0.23234500  0.17380500  0.50281600  1
  O  O20  1  0.76765600  0.17380500  0.49718400  1
  O  O21  1  0.67511900  0.72700200  0.49587300  1
  O  O22  1  0.32488100  0.72700200  0.50412700  1
  O  O23  1  0.17511900  0.22700200  0.49587300  1
  O  O24  1  0.82488100  0.22700200  0.50412700  1
  O  O25  1  0.83045300  0.72002400  0.60482000  1
  O  O26  1  0.16954700  0.72002400  0.39518000  1
  O  O27  1  0.33045300  0.22002400  0.60482000  1
  O  O28  1  0.66954700  0.22002400  0.39518000  1
  O  O29  1  0.77376600  0.77150100  0.60237700  1
  O  O30  1  0.22623500  0.77150100  0.39762300  1
  O  O31  1  0.27376600  0.27150100  0.60237700  1
  O  O32  1  0.72623500  0.27150100  0.39762300  1
  O  O33  1  0.07808300  0.95125800  0.55863700  1
  O  O34  1  0.92191700  0.95125800  0.44136400  1
  O  O35  1  0.57808300  0.45125800  0.55863700  1
  O  O36  1  0.42191700  0.45125800  0.44136400  1
  O  O37  1  0.01338800  0.94969300  0.43937000  1
  O  O38  1  0.98661200  0.94969300  0.56063000  1
  O  O39  1  0.51338800  0.44969300  0.43937000  1
  O  O40  1  0.48661200  0.44969300  0.56063000  1
  O  O41  1  0.48659900  0.54383700  0.56050600  1
  O  O42  1  0.51340200  0.54383700  0.43949400  1
  O  O43  1  0.98659900  0.04383700  0.56050600  1
  O  O44  1  0.01340200  0.04383700  0.43949400  1
  O  O45  1  0.42185400  0.54216700  0.44150200  1
  O  O46  1  0.57814600  0.54216700  0.55849900  1
  O  O47  1  0.92185400  0.04216700  0.44150200  1
  O  O48  1  0.07814600  0.04216700  0.55849900  1
  O  O49  1  0.92995000  0.80726700  0.67247300  1
  O  O50  1  0.07005000  0.80726700  0.32752800  1
  O  O51  1  0.42995000  0.30726700  0.67247300  1
  O  O52  1  0.57005000  0.30726700  0.32752800  1
  O  O53  1  0.64018600  0.63723500  0.37236100  1
  O  O54  1  0.35981400  0.63723500  0.62763900  1
  O  O55  1  0.14018600  0.13723500  0.37236100  1
  O  O56  1  0.85981400  0.13723500  0.62763900  1
  O  O57  1  0.50535400  0.56944900  0.31836600  1
  O  O58  1  0.49464600  0.56944900  0.68163500  1
  O  O59  1  0.00535400  0.06944900  0.31836600  1
  O  O60  1  0.99464600  0.06944900  0.68163500  1
  O  O61  1  0.77648400  0.83346400  0.34604500  1
  O  O62  1  0.22351600  0.83346400  0.65395600  1
  O  O63  1  0.27648400  0.33346400  0.34604500  1
  O  O64  1  0.72351600  0.33346400  0.65395600  1
