# generated using pymatgen
data_Fe2H11C36I3O16
_symmetry_space_group_name_H-M   'P 1'
_cell_length_a   15.89103000
_cell_length_b   9.30134900
_cell_length_c   18.35147300
_cell_angle_alpha   90.06188900
_cell_angle_beta   100.21012300
_cell_angle_gamma   97.51445800
_symmetry_Int_Tables_number   1
_chemical_formula_structural   Fe2H11C36I3O16
_chemical_formula_sum   'Fe2 H11 C36 I3 O16'
_cell_volume   2645.79596768
_cell_formula_units_Z   1
loop_
 _symmetry_equiv_pos_site_id
 _symmetry_equiv_pos_as_xyz
  1  'x, y, z'
loop_
 _atom_site_type_symbol
 _atom_site_label
 _atom_site_symmetry_multiplicity
 _atom_site_fract_x
 _atom_site_fract_y
 _atom_site_fract_z
 _atom_site_occupancy
  Fe  Fe1  1  0.49642100  0.99377700  0.84151800  1
  Fe  Fe2  1  0.50192900  0.99209100  0.15988300  1
  H  H1  1  0.07200500  0.98258800  0.85652100  1
  H  H2  1  0.81587300  0.96262900  0.91474600  1
  H  H3  1  0.92803600  0.01406500  0.14201900  1
  H  H4  1  0.50224700  0.73923300  0.63082600  1
  H  H5  1  0.47710500  0.28018600  0.59506000  1
  H  H6  1  0.50121300  0.24782800  0.37164300  1
  H  H7  1  0.52577800  0.70690900  0.40794500  1
  H  H8  1  0.50863600  0.45388500  0.81297200  1
  H  H9  1  0.49727100  0.53432300  0.19014200  1
  H  H10  1  0.47031600  0.64214400  0.50492400  1
  H  H11  1  0.53253600  0.34447600  0.49778100  1
  C  C1  1  0.20909300  0.00065000  0.88285800  1
  C  C2  1  0.12813200  0.99481500  0.90010500  1
  C  C3  1  0.11857500  0.00580400  0.97260600  1
  C  C4  1  0.18936300  0.02218700  0.02873100  1
  C  C5  1  0.27259700  0.02972500  0.01243900  1
  C  C6  1  0.28157900  0.01870500  0.93815000  1
  C  C7  1  0.03397400  0.99884600  0.99076400  1
  C  C8  1  0.96333400  0.99344300  0.00680800  1
  C  C9  1  0.80710900  0.96958800  0.97162300  1
  C  C10  1  0.72547100  0.96398800  0.98917000  1
  C  C11  1  0.71728300  0.97419500  0.06337800  1
  C  C12  1  0.79059600  0.99386200  0.11771400  1
  C  C13  1  0.87120600  0.00039700  0.09914800  1
  C  C14  1  0.87937500  0.98723200  0.02622400  1
  C  C15  1  0.48779400  0.20828900  0.73594800  1
  C  C16  1  0.36605000  0.03189100  0.91540200  1
  C  C17  1  0.65140900  0.95805400  0.92772600  1
  C  C18  1  0.50745500  0.73230100  0.77925100  1
  C  C19  1  0.49780700  0.25592300  0.22332700  1
  C  C20  1  0.34848400  0.03958000  0.07314600  1
  C  C21  1  0.63314500  0.95799000  0.08666700  1
  C  C22  1  0.51501200  0.77926300  0.26698100  1
  C  C23  1  0.50556700  0.61047800  0.72764600  1
  C  C24  1  0.50070500  0.63105300  0.65241500  1
  C  C25  1  0.49414800  0.51359700  0.60421400  1
  C  C26  1  0.48780700  0.37445900  0.63143900  1
  C  C27  1  0.49476900  0.35421500  0.70647800  1
  C  C28  1  0.50527000  0.47188900  0.75445700  1
  C  C29  1  0.49058000  0.54047000  0.52465800  1
  C  C30  1  0.51228500  0.44615500  0.47802600  1
  C  C31  1  0.50302100  0.35616800  0.35023500  1
  C  C32  1  0.49936400  0.37727400  0.27515300  1
  C  C33  1  0.50020800  0.51605500  0.24859400  1
  C  C34  1  0.50964500  0.63342700  0.29660600  1
  C  C35  1  0.51578500  0.61278400  0.37154000  1
  C  C36  1  0.50923900  0.47341900  0.39854800  1
  I  I1  1  0.21960900  0.99375000  0.77000300  1
  I  I2  1  0.15863400  0.02421100  0.13642000  1
  I  I3  1  0.78116700  0.00396100  0.23065000  1
  O  O1  1  0.52842800  0.18814100  0.80312100  1
  O  O2  1  0.42322800  0.14594300  0.93652300  1
  O  O3  1  0.43630000  0.10171700  0.69804900  1
  O  O4  1  0.38222600  0.93533700  0.86921500  1
  O  O5  1  0.57488100  0.98031500  0.93904200  1
  O  O6  1  0.66394200  0.94601200  0.85933600  1
  O  O7  1  0.50399800  0.86503300  0.75572800  1
  O  O8  1  0.50731700  0.70744700  0.84960800  1
  O  O9  1  0.49291900  0.12115100  0.24519500  1
  O  O10  1  0.50463500  0.28248300  0.15424600  1
  O  O11  1  0.42175300  0.99963500  0.06263400  1
  O  O12  1  0.34174500  0.07794400  0.14027100  1
  O  O13  1  0.56469800  0.88773000  0.30489100  1
  O  O14  1  0.61491300  0.05580800  0.13096100  1
  O  O15  1  0.47391800  0.79753100  0.19977300  1
  O  O16  1  0.57816700  0.84037500  0.06761800  1
