# generated using pymatgen
data_FeH11C22N4O9
_symmetry_space_group_name_H-M   'P 1'
_cell_length_a   13.92389800
_cell_length_b   9.36186900
_cell_length_c   20.40413200
_cell_angle_alpha   88.70805700
_cell_angle_beta   90.04743100
_cell_angle_gamma   109.65150100
_symmetry_Int_Tables_number   1
_chemical_formula_structural   FeH11C22N4O9
_chemical_formula_sum   'Fe2 H22 C44 N8 O18'
_cell_volume   2504.13715355
_cell_formula_units_Z   2
loop_
 _symmetry_equiv_pos_site_id
 _symmetry_equiv_pos_as_xyz
  1  'x, y, z'
loop_
 _atom_site_type_symbol
 _atom_site_label
 _atom_site_symmetry_multiplicity
 _atom_site_fract_x
 _atom_site_fract_y
 _atom_site_fract_z
 _atom_site_occupancy
  Fe  Fe1  1  0.50986500  0.98574200  0.20618600  1
  Fe  Fe2  1  0.46573800  0.96747600  0.79498100  1
  H  H1  1  0.85221400  0.93468000  0.22535700  1
  H  H2  1  0.79343900  0.12653100  0.80266100  1
  H  H3  1  0.11693800  0.99226800  0.77336200  1
  H  H4  1  0.31723700  0.99663800  0.97864800  1
  H  H5  1  0.17793200  0.83541600  0.19734100  1
  H  H6  1  0.99518100  0.81776600  0.20497400  1
  H  H7  1  0.65982900  0.96114500  0.01985000  1
  H  H8  1  0.06856900  0.09110900  0.96961500  1
  H  H9  1  0.90833400  0.86299300  0.02723100  1
  H  H10  1  0.46009200  0.22050500  0.60904200  1
  H  H11  1  0.48025600  0.68126300  0.57645500  1
  H  H12  1  0.51058400  0.72747600  0.39168700  1
  H  H13  1  0.44711100  0.49422200  0.77060800  1
  H  H14  1  0.51012700  0.44907800  0.22935000  1
  H  H15  1  0.49728500  0.14412000  0.42468200  1
  H  H16  1  0.59829300  0.06853200  0.49575000  1
  H  H17  1  0.67514200  0.21427800  0.54875900  1
  H  H18  1  0.72798400  0.17811100  0.47254500  1
  H  H19  1  0.92246200  0.11322600  0.74584600  1
  H  H20  1  0.00749900  0.26407700  0.65954900  1
  H  H21  1  0.14463900  0.31742100  0.66365200  1
  H  H22  1  0.08234000  0.44733100  0.69034600  1
  C  C1  1  0.73352000  0.04155000  0.89968800  1
  C  C2  1  0.80692000  0.09305100  0.85181600  1
  C  C3  1  0.89477800  0.07710100  0.87715200  1
  C  C4  1  0.78051900  0.00381600  0.95370500  1
  C  C5  1  0.98052400  0.09895200  0.84269600  1
  C  C6  1  0.06334500  0.04822800  0.86734000  1
  C  C7  1  0.12381700  0.00079600  0.82601900  1
  C  C8  1  0.19694900  0.97176500  0.86403600  1
  C  C9  1  0.17813900  0.00231900  0.92799800  1
  C  C10  1  0.23871700  0.98931600  0.98548200  1
  C  C11  1  0.19529000  0.94822000  0.04417500  1
  C  C12  1  0.24233000  0.91627500  0.09959400  1
  C  C13  1  0.16771900  0.86351700  0.14671900  1
  C  C14  1  0.07965000  0.87139600  0.11918200  1
  C  C15  1  0.99456400  0.84815000  0.15343600  1
  C  C16  1  0.90852100  0.89170500  0.13035800  1
  C  C17  1  0.84600000  0.93187100  0.17255000  1
  C  C18  1  0.77403200  0.96514500  0.13492100  1
  C  C19  1  0.79547800  0.94321900  0.07022600  1
  C  C20  1  0.73725700  0.96337200  0.01265700  1
  C  C21  1  0.69130000  0.00385900  0.16571800  1
  C  C22  1  0.51133900  0.72539600  0.26105000  1
  C  C23  1  0.35008100  0.94933100  0.11461800  1
  C  C24  1  0.50366600  0.20210600  0.29437000  1
  C  C25  1  0.45377600  0.34460300  0.69459200  1
  C  C26  1  0.46037700  0.32722800  0.62829000  1
  C  C27  1  0.46981000  0.44602100  0.58529000  1
  C  C28  1  0.47268600  0.58562000  0.60916800  1
  C  C29  1  0.46208200  0.60179800  0.67609300  1
  C  C30  1  0.45188400  0.48041900  0.71843300  1
  C  C31  1  0.51218000  0.62184800  0.37228700  1
  C  C32  1  0.51280600  0.60251000  0.30579200  1
  C  C33  1  0.51267300  0.46618000  0.28159300  1
  C  C34  1  0.51167300  0.34821500  0.32357500  1
  C  C35  1  0.51499600  0.36918700  0.39131000  1
  C  C36  1  0.51220000  0.50719000  0.41550800  1
  C  C37  1  0.62533900  0.00928800  0.88603000  1
  C  C38  1  0.46759700  0.74870400  0.70312100  1
  C  C39  1  0.28056900  0.93342800  0.83421600  1
  C  C40  1  0.45260400  0.22066400  0.73938500  1
  C  C41  1  0.62266000  0.29821700  0.46283000  1
  C  C42  1  0.65787200  0.18224000  0.49696800  1
  C  C43  1  0.06864500  0.26119400  0.75622700  1
  C  C44  1  0.07588700  0.32618800  0.68821900  1
  N  N1  1  0.87930100  0.02494700  0.93979500  1
  N  N2  1  0.09609300  0.04920600  0.92956000  1
  N  N3  1  0.09543200  0.92137500  0.05641500  1
  N  N4  1  0.87806300  0.89798100  0.06801800  1
  N  N5  1  0.47584400  0.41873200  0.51780600  1
  N  N6  1  0.50731800  0.53620300  0.48322000  1
  N  N7  1  0.53029300  0.25731400  0.43399400  1
  N  N8  1  0.98522800  0.14477700  0.77569000  1
  O  O1  1  0.60990700  0.00862900  0.13450400  1
  O  O2  1  0.51821300  0.71081900  0.19757900  1
  O  O3  1  0.69114400  0.00946900  0.22988100  1
  O  O4  1  0.50391900  0.85158500  0.28348500  1
  O  O5  1  0.37058400  0.88722300  0.16868100  1
  O  O6  1  0.42092100  0.06145900  0.08477400  1
  O  O7  1  0.55046700  0.19869000  0.23853800  1
  O  O8  1  0.43627900  0.07677600  0.31774800  1
  O  O9  1  0.60303000  0.07514400  0.83359100  1
  O  O10  1  0.55620300  0.89131900  0.91364000  1
  O  O11  1  0.43293200  0.75516100  0.76287200  1
  O  O12  1  0.51398400  0.87379400  0.66938600  1
  O  O13  1  0.44076900  0.23272000  0.80257500  1
  O  O14  1  0.36339700  0.93688000  0.86591200  1
  O  O15  1  0.46849400  0.09964900  0.71749700  1
  O  O16  1  0.28114300  0.92464800  0.77016000  1
  O  O17  1  0.67843700  0.43031900  0.46071500  1
  O  O18  1  0.13791100  0.31608300  0.79446100  1
