# generated using pymatgen
data_Cd2H9C37(Cl3O4)2
_symmetry_space_group_name_H-M   'P 1'
_cell_length_a   16.06478000
_cell_length_b   16.07530800
_cell_length_c   16.56640200
_cell_angle_alpha   90.36562100
_cell_angle_beta   118.41695900
_cell_angle_gamma   119.23989000
_symmetry_Int_Tables_number   1
_chemical_formula_structural   Cd2H9C37(Cl3O4)2
_chemical_formula_sum   'Cd4 H18 C74 Cl12 O16'
_cell_volume   3120.23977709
_cell_formula_units_Z   2
loop_
 _symmetry_equiv_pos_site_id
 _symmetry_equiv_pos_as_xyz
  1  'x, y, z'
loop_
 _atom_site_type_symbol
 _atom_site_label
 _atom_site_symmetry_multiplicity
 _atom_site_fract_x
 _atom_site_fract_y
 _atom_site_fract_z
 _atom_site_occupancy
  Cd  Cd1  1  0.79374600  0.84377700  0.47223000  1
  Cd  Cd2  1  0.18924100  0.14185200  0.52511600  1
  Cd  Cd3  1  0.87706000  0.04540300  0.35173200  1
  Cd  Cd4  1  0.10577800  0.93992600  0.64557400  1
  H  H1  1  0.91315600  0.62024900  0.99429200  1
  H  H2  1  0.98472700  0.84843500  0.19538400  1
  H  H3  1  0.79244200  0.75013400  0.15376900  1
  H  H4  1  0.86959200  0.46138600  0.29269800  1
  H  H5  1  0.65285000  0.21494000  0.03787500  1
  H  H6  1  0.53750200  0.27845000  0.96120200  1
  H  H7  1  0.50931400  0.57184900  0.64146100  1
  H  H8  1  0.64397900  0.82402300  0.85980700  1
  H  H9  1  0.60881100  0.71889900  0.95900000  1
  H  H10  1  0.14451800  0.52668700  0.70080400  1
  H  H11  1  0.35769600  0.77519000  0.95298400  1
  H  H12  1  0.47591000  0.71519300  0.03141900  1
  H  H13  1  0.11527400  0.38355600  0.02070400  1
  H  H14  1  0.02023300  0.15523800  0.80266000  1
  H  H15  1  0.20825600  0.24941600  0.83469800  1
  H  H16  1  0.38451600  0.20995000  0.20419200  1
  H  H17  1  0.56035900  0.50661500  0.37883900  1
  H  H18  1  0.57939400  0.57132700  0.25405000  1
  C  C1  1  0.87746000  0.71654400  0.49590200  1
  C  C2  1  0.07999500  0.08349600  0.31787600  1
  C  C3  1  0.71405100  0.83796600  0.25122300  1
  C  C4  1  0.24144400  0.96943500  0.57143300  1
  C  C5  1  0.10501600  0.26878500  0.50094200  1
  C  C6  1  0.90286900  0.90248400  0.67949300  1
  C  C7  1  0.27045300  0.14624300  0.74534200  1
  C  C8  1  0.74140800  0.01594100  0.42588000  1
  C  C9  1  0.56250100  0.45170200  0.03330500  1
  C  C10  1  0.61477300  0.55791300  0.02635500  1
  C  C11  1  0.64837700  0.74067400  0.19098100  1
  C  C12  1  0.34762100  0.24518500  0.80486200  1
  C  C13  1  0.50154600  0.46854000  0.07265100  1
  C  C14  1  0.55341100  0.57433200  0.06556600  1
  C  C15  1  0.39881000  0.43397300  0.97102100  1
  C  C16  1  0.45993600  0.41697100  0.93102400  1
  C  C17  1  0.45142600  0.53962800  0.96370900  1
  C  C18  1  0.51251400  0.52307400  0.92403200  1
  C  C19  1  0.60251400  0.66253200  0.13613000  1
  C  C20  1  0.40329200  0.32605400  0.85988700  1
  C  C21  1  0.90979400  0.64483100  0.49805200  1
  C  C22  1  0.93913700  0.58712400  0.49856900  1
  C  C23  1  0.97509400  0.52033800  0.49816400  1
  C  C24  1  0.00588000  0.46404400  0.49743500  1
  C  C25  1  0.04228600  0.39754600  0.49736200  1
  C  C26  1  0.07216000  0.34018600  0.49829400  1
  C  C27  1  0.66641800  0.00386800  0.45306100  1
  C  C28  1  0.60146200  0.99773300  0.47217100  1
  C  C29  1  0.52466700  0.99396700  0.49115900  1
  C  C30  1  0.45852300  0.99166500  0.50649200  1
  C  C31  1  0.38165200  0.98785700  0.52539500  1
  C  C32  1  0.31658400  0.98164600  0.54438900  1
  C  C33  1  0.94018600  0.93436100  0.78127700  1
  C  C34  1  0.96221400  0.95770300  0.86330900  1
  C  C35  1  0.98299500  0.98341100  0.95840800  1
  C  C36  1  0.99944300  0.00467400  0.03849300  1
  C  C37  1  0.02032200  0.03008700  0.13368300  1
  C  C38  1  0.04246800  0.05276000  0.21586900  1
  C  C39  1  0.73677700  0.62258100  0.05036200  1
  C  C40  1  0.77466100  0.58864100  0.00576900  1
  C  C41  1  0.88544900  0.64778900  0.02941600  1
  C  C42  1  0.96104800  0.74079800  0.09730400  1
  C  C43  1  0.92546300  0.77557800  0.14136700  1
  C  C44  1  0.81464600  0.71802000  0.11737700  1
  C  C45  1  0.63440800  0.40947700  0.08242800  1
  C  C46  1  0.72952100  0.45899000  0.17751400  1
  C  C47  1  0.79548700  0.42140400  0.21975600  1
  C  C48  1  0.76847700  0.33412600  0.17021500  1
  C  C49  1  0.67469600  0.28375700  0.07739600  1
  C  C50  1  0.60869300  0.32090600  0.03397900  1
  C  C51  1  0.53460400  0.58163700  0.85674800  1
  C  C52  1  0.50910400  0.54198700  0.76656700  1
  C  C53  1  0.52998800  0.60343200  0.71128900  1
  C  C54  1  0.57702300  0.70407700  0.74376700  1
  C  C55  1  0.60565800  0.74464800  0.83320600  1
  C  C56  1  0.58511500  0.68424700  0.88896200  1
  C  C57  1  0.37881700  0.58112800  0.91332200  1
  C  C58  1  0.28496600  0.53112800  0.81775700  1
  C  C59  1  0.21760300  0.56714800  0.77408000  1
  C  C60  1  0.24256100  0.65394000  0.82233500  1
  C  C61  1  0.33650200  0.70599300  0.91486800  1
  C  C62  1  0.40389300  0.67039600  0.95965900  1
  C  C63  1  0.27748000  0.37422100  0.94945200  1
  C  C64  1  0.24662700  0.41044800  0.00031900  1
  C  C65  1  0.13733500  0.35452100  0.98053300  1
  C  C66  1  0.05618700  0.26288000  0.91040300  1
  C  C67  1  0.08402600  0.22683200  0.85885900  1
  C  C68  1  0.19287300  0.28154200  0.87811500  1
  C  C69  1  0.49085600  0.42764800  0.15253000  1
  C  C70  1  0.43625300  0.32484900  0.14114100  1
  C  C71  1  0.42709500  0.28959600  0.21417900  1
  C  C72  1  0.47123000  0.35434200  0.29928600  1
  C  C73  1  0.52544900  0.45535600  0.31192200  1
  C  C74  1  0.53556900  0.49168400  0.23974100  1
  Cl  Cl1  1  0.68817900  0.47174300  0.91837900  1
  Cl  Cl2  1  0.10164900  0.81462700  0.12715100  1
  Cl  Cl3  1  0.77274700  0.57018400  0.24929100  1
  Cl  Cl4  1  0.85313900  0.28749300  0.22502900  1
  Cl  Cl5  1  0.45412000  0.41709400  0.71724700  1
  Cl  Cl6  1  0.60138500  0.78031000  0.67195100  1
  Cl  Cl7  1  0.24730300  0.42286100  0.74622700  1
  Cl  Cl8  1  0.15643700  0.69885700  0.76565600  1
  Cl  Cl9  1  0.33946100  0.52675300  0.09039900  1
  Cl  Cl10  1  0.91794800  0.19306700  0.88627100  1
  Cl  Cl11  1  0.37630700  0.23406800  0.03650100  1
  Cl  Cl12  1  0.45871000  0.30832700  0.39118200  1
  O  O1  1  0.94605200  0.81082400  0.50949200  1
  O  O2  1  0.77066700  0.68965000  0.45548000  1
  O  O3  1  0.01668000  0.03879500  0.35265900  1
  O  O4  1  0.18986500  0.13850800  0.38607500  1
  O  O5  1  0.79796600  0.86108900  0.33725600  1
  O  O6  1  0.73129200  0.91140000  0.21304100  1
  O  O7  1  0.16530300  0.98956200  0.52667700  1
  O  O8  1  0.22760500  0.91614300  0.62889100  1
  O  O9  1  0.03677600  0.17466500  0.48779600  1
  O  O10  1  0.21188300  0.29582100  0.54165800  1
  O  O11  1  0.96630900  0.94677600  0.64473500  1
  O  O12  1  0.79300200  0.84718000  0.61120400  1
  O  O13  1  0.18526500  0.12443600  0.66034400  1
  O  O14  1  0.25180100  0.07368100  0.78437900  1
  O  O15  1  0.81773200  0.99606100  0.47076600  1
  O  O16  1  0.75503600  0.06901600  0.36824000  1
