# Generated by REPEAT Assigner based on pymatgen
data_DB0-m2_o10_o20_f0_pcu.sym.7
_audit_creation_date              2022-05-24
_audit_creation_method            REPEAT_Assigner
_cell_length_a                    14.471439
_cell_length_b                    8.789967
_cell_length_c                    7.398736
_cell_angle_alpha                 104.031289
_cell_angle_beta                  95.817679
_cell_angle_gamma                 89.999819
_cell_volume                      908.067144
_symmetry_space_group_name_H-M    P1
_symmetry_Int_Tables_number       1
loop_
    _symmetry_equiv_pos_site_id
    _symmetry_equiv_pos_as_xyz
    1  x,y,z
loop_
    _atom_site_type_symbol
    _atom_site_label
    _atom_site_fract_x
    _atom_site_fract_y
    _atom_site_fract_z
    _atom_type_partial_charge
    O   O1   0.512097  0.297859  0.616397  -0.555412
    O   O2   0.500544  0.724945  0.375824  -0.359254
    O   O3   0.493469  0.271397  0.297561  -0.569839
    O   O4   0.517378  0.751484  0.694494  -0.439803
    C   C1   0.498256  0.211892  0.445222  0.714020
    C   C2   0.506004  0.810795  0.546943  0.406600
    O   O5   0.377815  0.520109  0.656487  -0.519384
    O   O6   0.628752  0.501174  0.334683  -0.501642
    O   O7   0.360416  0.506795  0.340334  -0.462368
    O   O8   0.646205  0.517368  0.652416  -0.469748
    C   C3   0.326016  0.514163  0.499184  0.714015
    C   C4   0.680648  0.507560  0.492668  0.737269
    Cu  Cu1  0.511535  0.531035  0.682462  0.679443
    Cu  Cu2  0.493807  0.494379  0.310068  0.689537
    C   C5   0.226791  0.514557  0.499570  -0.267131
    C   C6   0.780313  0.506875  0.492131  -0.263876
    C   C7   0.143252  0.513948  0.498564  0.095996
    C   C8   0.863771  0.507736  0.492297  0.119541
    C   C9   0.045389  0.512151  0.495937  -0.028665
    C   C10  0.961863  0.510015  0.493605  -0.036160
    C   C11  0.494946  0.041255  0.421006  -0.019790
    C   C12  0.503551  0.981130  0.571411  0.258540
    N   N1   0.477272  0.473750  0.033135  0.017312
    N   N2   0.530053  0.546905  0.958545  0.109929
    O   O9   0.483667  0.943587  0.244871  -0.205039
    C   C13  0.387581  0.924576  0.200306  -0.022873
    H   H1   0.371613  0.885648  0.045997  0.070793
    H   H2   0.353808  0.037998  0.251592  0.027426
    H   H3   0.360555  0.835128  0.266021  0.017468
    O   O10  0.506992  0.077801  0.747638  -0.286141
    C   C14  0.417820  0.066172  0.800824  -0.222682
    H   H4   0.395514  0.941034  0.771034  0.081886
    H   H5   0.368354  0.129888  0.723011  0.046341
    H   H6   0.418220  0.118120  0.953244  0.179742
    O   O11  0.429379  0.354288  0.914048  0.165804
    C   C15  0.337042  0.383074  0.947747  -0.228002
    H   H7   0.329848  0.508577  0.017869  0.086967
    H   H8   0.315656  0.309425  0.038990  0.059679
    H   H9   0.291528  0.355466  0.813938  0.116313
    O   O12  0.566806  0.680181  0.075822  -0.042637
    C   C16  0.662163  0.666879  0.062886  -0.062124
    H   H10  0.688932  0.769527  0.019574  0.048475
    H   H11  0.675635  0.557813  0.957694  0.049746
    H   H12  0.697841  0.662395  0.201243  0.069727
