# generated using pymatgen
data_Fe2H21C48O16F
_symmetry_space_group_name_H-M   'P 1'
_cell_length_a   14.27467600
_cell_length_b   12.32789600
_cell_length_c   13.22333000
_cell_angle_alpha   91.53708200
_cell_angle_beta   93.00111900
_cell_angle_gamma   108.15147600
_symmetry_Int_Tables_number   1
_chemical_formula_structural   Fe2H21C48O16F
_chemical_formula_sum   'Fe2 H21 C48 O16 F1'
_cell_volume   2205.88297659
_cell_formula_units_Z   1
loop_
 _symmetry_equiv_pos_site_id
 _symmetry_equiv_pos_as_xyz
  1  'x, y, z'
loop_
 _atom_site_type_symbol
 _atom_site_label
 _atom_site_symmetry_multiplicity
 _atom_site_fract_x
 _atom_site_fract_y
 _atom_site_fract_z
 _atom_site_occupancy
  Fe  Fe1  1  0.51285900  0.00879300  0.16289500  1
  Fe  Fe2  1  0.50658400  0.01629400  0.70884900  1
  H  H1  1  0.13302000  0.89331500  0.74245300  1
  H  H2  1  0.99744100  0.87498600  0.84292500  1
  H  H3  1  0.97406700  0.05159800  0.85259300  1
  H  H4  1  0.81851100  0.04542700  0.77427800  1
  H  H5  1  0.25713300  0.00165000  0.17281800  1
  H  H6  1  0.94389900  0.96132600  0.27898800  1
  H  H7  1  0.78927200  0.94605400  0.20327200  1
  H  H8  1  0.38878200  0.42555100  0.62979300  1
  H  H9  1  0.49346700  0.61304300  0.68587800  1
  H  H10  1  0.36117400  0.40455200  0.23730800  1
  H  H11  1  0.45267100  0.58685100  0.17705900  1
  H  H12  1  0.51885800  0.15240600  0.42422800  1
  H  H13  1  0.43562900  0.85589700  0.43933700  1
  H  H14  1  0.50683000  0.42091000  0.68374700  1
  H  H15  1  0.59457900  0.59774100  0.61633300  1
  H  H16  1  0.46988100  0.39848200  0.17644700  1
  H  H17  1  0.56440300  0.58574500  0.24564800  1
  H  H18  1  0.16118000  0.18574300  0.28498700  1
  H  H19  1  0.18777800  0.22530800  0.46915000  1
  H  H20  1  0.12576500  0.86946300  0.51396900  1
  H  H21  1  0.09941100  0.82966600  0.32948900  1
  C  C1  1  0.24519600  0.96377300  0.86225100  1
  C  C2  1  0.14909900  0.92126700  0.82131900  1
  C  C3  1  0.07037700  0.91402000  0.87876200  1
  C  C4  1  0.90978500  0.01648500  0.89492700  1
  C  C5  1  0.26036200  0.98370700  0.96774200  1
  C  C6  1  0.17834500  0.97602300  0.02548200  1
  C  C7  1  0.08455200  0.95548600  0.97848500  1
  C  C8  1  0.00555400  0.96527300  0.03461000  1
  C  C9  1  0.82108200  0.01837600  0.85114400  1
  C  C10  1  0.73674400  0.98424700  0.90328500  1
  C  C11  1  0.91610200  0.97512900  0.99091400  1
  C  C12  1  0.83452300  0.95901300  0.04906500  1
  C  C13  1  0.74355400  0.95997300  0.00447300  1
  C  C14  1  0.18872300  0.98981200  0.13016300  1
  C  C15  1  0.10949000  0.98298200  0.18647000  1
  C  C16  1  0.01759600  0.96940800  0.13947100  1
  C  C17  1  0.93816800  0.96184700  0.19733900  1
  C  C18  1  0.84707000  0.95139600  0.15270100  1
  C  C19  1  0.65796900  0.94938200  0.06542800  1
  C  C20  1  0.45091100  0.79086900  0.25604200  1
  C  C21  1  0.36055000  0.01311300  0.01874900  1
  C  C22  1  0.48588900  0.21167100  0.24642700  1
  C  C23  1  0.49359100  0.80602000  0.61354100  1
  C  C24  1  0.64253900  0.97890600  0.85031500  1
  C  C25  1  0.49095200  0.21173300  0.60832200  1
  C  C26  1  0.32429700  0.97704800  0.79053600  1
  C  C27  1  0.50994400  0.23622500  0.42807800  1
  C  C28  1  0.49629600  0.28350200  0.51970300  1
  C  C29  1  0.48300700  0.39094800  0.52171500  1
  C  C30  1  0.46888100  0.44755600  0.61842600  1
  C  C31  1  0.51305500  0.57561000  0.61610100  1
  C  C32  1  0.49577100  0.28393000  0.33823800  1
  C  C33  1  0.47513500  0.38641100  0.33935400  1
  C  C34  1  0.47676200  0.44394400  0.43106100  1
  C  C35  1  0.46535200  0.55819900  0.43181900  1
  C  C36  1  0.47606500  0.61938800  0.52326100  1
  C  C37  1  0.46450000  0.72663600  0.52497700  1
  C  C38  1  0.44304500  0.43100600  0.24434800  1
  C  C39  1  0.48276300  0.55957800  0.24679700  1
  C  C40  1  0.45615000  0.60985300  0.34102900  1
  C  C41  1  0.44328500  0.71770200  0.34358900  1
  C  C42  1  0.44164400  0.77066100  0.43626100  1
  C  C43  1  0.12825300  0.00528700  0.29596600  1
  C  C44  1  0.15386600  0.11622400  0.33522400  1
  C  C45  1  0.16865600  0.13845000  0.43846600  1
  C  C46  1  0.15800800  0.04979100  0.50264800  1
  C  C47  1  0.13390200  0.93893600  0.46353000  1
  C  C48  1  0.11929100  0.91661700  0.36010900  1
  O  O1  1  0.61267600  0.02744400  0.06090800  1
  O  O2  1  0.40394500  0.75258000  0.16795000  1
  O  O3  1  0.62661000  0.86263500  0.12371700  1
  O  O4  1  0.50068800  0.89984500  0.27254300  1
  O  O5  1  0.37936200  0.94713500  0.08870200  1
  O  O6  1  0.42713600  0.11102000  0.00286800  1
  O  O7  1  0.55578000  0.16560700  0.23086300  1
  O  O8  1  0.39799000  0.16720900  0.20159000  1
  O  O9  1  0.43501100  0.86521000  0.63705000  1
  O  O10  1  0.58686000  0.84218100  0.64636000  1
  O  O11  1  0.64275600  0.04432100  0.77385700  1
  O  O12  1  0.55990400  0.90182300  0.87157400  1
  O  O13  1  0.29903100  0.95220200  0.69391500  1
  O  O14  1  0.53386200  0.13183200  0.60397300  1
  O  O15  1  0.41860500  0.01795900  0.81949000  1
  O  O16  1  0.43120000  0.21266800  0.68021300  1
  F  F1  1  0.17072300  0.07180100  0.60419500  1
