# generated using pymatgen
data_CuH10C20Br2NO4
_symmetry_space_group_name_H-M   'P 1'
_cell_length_a   15.10867200
_cell_length_b   13.67571500
_cell_length_c   17.72090900
_cell_angle_alpha   90.00000000
_cell_angle_beta   89.99515000
_cell_angle_gamma   90.00000000
_symmetry_Int_Tables_number   1
_chemical_formula_structural   CuH10C20Br2NO4
_chemical_formula_sum   'Cu2 H20 C40 Br4 N2 O8'
_cell_volume   3661.52773775
_cell_formula_units_Z   2
loop_
 _symmetry_equiv_pos_site_id
 _symmetry_equiv_pos_as_xyz
  1  'x, y, z'
loop_
 _atom_site_type_symbol
 _atom_site_label
 _atom_site_symmetry_multiplicity
 _atom_site_fract_x
 _atom_site_fract_y
 _atom_site_fract_z
 _atom_site_occupancy
  Cu  Cu1  1  0.49948200  0.59778500  0.50049900  1
  Cu  Cu2  1  0.49980900  0.40224000  0.50008300  1
  H  H1  1  0.49654500  0.65669900  0.73823100  1
  H  H2  1  0.50466000  0.34332300  0.26201500  1
  H  H3  1  0.49489600  0.65609800  0.26222200  1
  H  H4  1  0.50310600  0.34379100  0.73804500  1
  H  H5  1  0.06133000  0.64703900  0.54197000  1
  H  H6  1  0.93812100  0.34917100  0.53274700  1
  H  H7  1  0.93826500  0.65074600  0.46728100  1
  H  H8  1  0.06129500  0.35312600  0.45811800  1
  H  H9  1  0.22110600  0.64771400  0.53953800  1
  H  H10  1  0.77835700  0.34874900  0.53032900  1
  H  H11  1  0.77847200  0.65136200  0.46990500  1
  H  H12  1  0.22113000  0.35240000  0.46068800  1
  H  H13  1  0.62538200  0.06936800  0.55657200  1
  H  H14  1  0.43363100  0.93055400  0.39286500  1
  H  H15  1  0.37596400  0.06941000  0.44158200  1
  H  H16  1  0.56759200  0.93075100  0.60590600  1
  H  H17  1  0.62109800  0.24624700  0.55845800  1
  H  H18  1  0.43115200  0.75386700  0.39659700  1
  H  H19  1  0.38020200  0.24604700  0.43935900  1
  H  H20  1  0.57010200  0.75387900  0.60238900  1
  C  C1  1  0.32950500  0.50010900  0.50018400  1
  C  C2  1  0.66980500  0.50003200  0.50023000  1
  C  C3  1  0.49970300  0.49965000  0.35507400  1
  C  C4  1  0.49961500  0.50024700  0.64530700  1
  C  C5  1  0.49811500  0.58732400  0.84527100  1
  C  C6  1  0.50264000  0.41270100  0.15495400  1
  C  C7  1  0.49716500  0.58694100  0.15502700  1
  C  C8  1  0.50175100  0.41299600  0.84520800  1
  C  C9  1  0.49796800  0.58738600  0.76746600  1
  C  C10  1  0.50254400  0.41261300  0.23277300  1
  C  C11  1  0.49705700  0.58690000  0.23285000  1
  C  C12  1  0.50167900  0.41302500  0.76740300  1
  C  C13  1  0.49974100  0.50022100  0.72804600  1
  C  C14  1  0.49975500  0.49972400  0.27224600  1
  C  C15  1  0.50001000  0.50013600  0.88460800  1
  C  C16  1  0.49999100  0.49985500  0.11562600  1
  C  C17  1  0.50011200  0.50006300  0.96598600  1
  C  C18  1  0.50010600  0.49994700  0.03424900  1
  C  C19  1  0.09522900  0.58235700  0.52226900  1
  C  C20  1  0.90423800  0.41566700  0.51707500  1
  C  C21  1  0.90431800  0.58432700  0.48301900  1
  C  C22  1  0.09521600  0.41772600  0.47791500  1
  C  C23  1  0.18647200  0.58262700  0.52155100  1
  C  C24  1  0.81297000  0.41550300  0.51636200  1
  C  C25  1  0.81304900  0.58458400  0.48379700  1
  C  C26  1  0.18646500  0.41745100  0.47866200  1
  C  C27  1  0.23256900  0.50000700  0.50016100  1
  C  C28  1  0.76684500  0.50009600  0.50016200  1
  C  C29  1  0.04859000  0.50002200  0.50011100  1
  C  C30  1  0.95092900  0.49999700  0.50007800  1
  C  C31  1  0.56912800  0.10605000  0.53182000  1
  C  C32  1  0.46228600  0.89396400  0.44100200  1
  C  C33  1  0.43225800  0.10598700  0.46627300  1
  C  C34  1  0.53873300  0.89402900  0.55790400  1
  C  C35  1  0.56755300  0.20688000  0.53194100  1
  C  C36  1  0.46204100  0.79316900  0.44238100  1
  C  C37  1  0.43369100  0.20679000  0.46613300  1
  C  C38  1  0.53890600  0.79319900  0.55668500  1
  C  C39  1  0.50059500  0.05399500  0.49923600  1
  C  C40  1  0.50042800  0.94601500  0.49945800  1
  Br  Br1  1  0.49572500  0.70914100  0.89724400  1
  Br  Br2  1  0.50645600  0.29100000  0.10290200  1
  Br  Br3  1  0.49337200  0.70869800  0.10309600  1
  Br  Br4  1  0.50424400  0.29114000  0.89706300  1
  N  N1  1  0.49974900  0.25590900  0.50026200  1
  N  N2  1  0.49910400  0.74411200  0.50002900  1
  O  O1  1  0.37083600  0.58410300  0.50313100  1
  O  O2  1  0.62845600  0.41591500  0.49783200  1
  O  O3  1  0.62808500  0.58400600  0.50262300  1
  O  O4  1  0.37122000  0.41627500  0.49730000  1
  O  O5  1  0.49623000  0.58359400  0.39057500  1
  O  O6  1  0.50259600  0.41626200  0.60986100  1
  O  O7  1  0.49657800  0.58423500  0.60989200  1
  O  O8  1  0.50320700  0.41568200  0.39053300  1
