data_DB0-m3_o21_o151_f0_fsc.sym.10_repeat
_audit_creation_date              2024-02-20
_audit_creation_method            'Materials Studio'
_symmetry_space_group_name_H-M    'P1'
_symmetry_Int_Tables_number       1
_symmetry_cell_setting            triclinic
loop_
_symmetry_equiv_pos_as_xyz
  x,y,z
_cell_length_a                    12.4742
_cell_length_b                    8.5518
_cell_length_c                    19.2945
_cell_angle_alpha                 90.0000
_cell_angle_beta                  96.3303
_cell_angle_gamma                 90.0000
loop_
_atom_site_label
_atom_site_type_symbol
_atom_site_fract_x
_atom_site_fract_y
_atom_site_fract_z
_atom_site_U_iso_or_equiv
_atom_site_adp_type
_atom_site_occupancy
H1     H     0.04713   0.99717   0.55064   0.00000  Uiso   1.00
H2     H     0.95286   0.99717   0.44936   0.00000  Uiso   1.00
C1     C     0.01807   0.13643   0.63744   0.00000  Uiso   1.00
C2     C     0.98151   0.85740   0.36262   0.00000  Uiso   1.00
C3     C     0.98194   0.13643   0.36256   0.00000  Uiso   1.00
C4     C     0.01847   0.85740   0.63738   0.00000  Uiso   1.00
C5     C     0.00172   0.13720   0.70699   0.00000  Uiso   1.00
C6     C     0.99656   0.85624   0.29293   0.00000  Uiso   1.00
C7     C     0.99829   0.13720   0.29302   0.00000  Uiso   1.00
C8     C     0.00342   0.85624   0.70707   0.00000  Uiso   1.00
C9     C     0.99939   0.99658   0.74276   0.00000  Uiso   1.00
C10    C     0.00060   0.99658   0.25724   0.00000  Uiso   1.00
O1     O     0.10126   0.66628   0.57152   0.00000  Uiso   1.00
O2     O     0.89878   0.32754   0.42848   0.00000  Uiso   1.00
O3     O     0.89873   0.66627   0.42849   0.00000  Uiso   1.00
O4     O     0.10122   0.32754   0.57152   0.00000  Uiso   1.00
O5     O     0.91657   0.66023   0.57317   0.00000  Uiso   1.00
O6     O     0.08344   0.33373   0.42679   0.00000  Uiso   1.00
O7     O     0.08341   0.66024   0.42683   0.00000  Uiso   1.00
O8     O     0.91656   0.33372   0.57321   0.00000  Uiso   1.00
C11    C     0.03221   0.99701   0.60445   0.00000  Uiso   1.00
C12    C     0.96779   0.99701   0.39555   0.00000  Uiso   1.00
C13    C     0.90943   0.95464   0.06798   0.00000  Uiso   1.00
C14    C     0.90726   0.04022   0.91950   0.00000  Uiso   1.00
C15    C     0.09056   0.95462   0.93202   0.00000  Uiso   1.00
C16    C     0.09274   0.04020   0.08050   0.00000  Uiso   1.00
H3     H     0.83733   0.91783   0.03601   0.00000  Uiso   1.00
H4     H     0.83580   0.07765   0.94180   0.00000  Uiso   1.00
H5     H     0.16266   0.91780   0.96400   0.00000  Uiso   1.00
H6     H     0.16420   0.07762   0.05820   0.00000  Uiso   1.00
C17    C     0.91064   0.95311   0.13945   0.00000  Uiso   1.00
C18    C     0.90656   0.03983   0.84791   0.00000  Uiso   1.00
C19    C     0.08935   0.95310   0.86055   0.00000  Uiso   1.00
C20    C     0.09344   0.03982   0.15209   0.00000  Uiso   1.00
H7     H     0.83893   0.91943   0.16248   0.00000  Uiso   1.00
H8     H     0.83419   0.07284   0.81515   0.00000  Uiso   1.00
H9     H     0.16107   0.91941   0.83752   0.00000  Uiso   1.00
H10    H     0.16581   0.07282   0.18486   0.00000  Uiso   1.00
C21    C     0.00237   0.99581   0.18165   0.00000  Uiso   1.00
C22    C     0.99763   0.99581   0.81836   0.00000  Uiso   1.00
Zn1    Zn    0.88031   0.49692   0.49889   0.00000  Uiso   1.00
Zn2    Zn    0.11968   0.49692   0.50111   0.00000  Uiso   1.00
C23    C     0.01258   0.71539   0.59517   0.00000  Uiso   1.00
C24    C     0.98750   0.27854   0.40476   0.00000  Uiso   1.00
C25    C     0.98740   0.71539   0.40483   0.00000  Uiso   1.00
C26    C     0.01251   0.27854   0.59524   0.00000  Uiso   1.00
C27    C     0.00054   0.99805   0.03805   0.00000  Uiso   1.00
C28    C     0.99946   0.99805   0.96195   0.00000  Uiso   1.00
N1     N     0.26088   0.49693   0.50393   0.00000  Uiso   1.00
N2     N     0.73912   0.49690   0.49607   0.00000  Uiso   1.00
C29    C     0.46996   0.49797   0.52636   0.00000  Uiso   1.00
C30    C     0.53003   0.49782   0.47364   0.00000  Uiso   1.00
C31    C     0.64585   0.49724   0.48692   0.00000  Uiso   1.00
C32    C     0.35414   0.49732   0.51309   0.00000  Uiso   1.00
N3     N     0.99298   0.28239   0.74210   0.00000  Uiso   1.00
H11    H     0.91803   0.28591   0.76127   0.00000  Uiso   1.00
H12    H     0.05331   0.28613   0.78412   0.00000  Uiso   1.00
N4     N     0.00848   0.71111   0.25838   0.00000  Uiso   1.00
H13    H     0.94496   0.69968   0.21875   0.00000  Uiso   1.00
H14    H     0.08075   0.71523   0.23582   0.00000  Uiso   1.00
N5     N     0.00703   0.28239   0.25791   0.00000  Uiso   1.00
H15    H     0.08198   0.28590   0.23873   0.00000  Uiso   1.00
H16    H     0.94670   0.28614   0.21589   0.00000  Uiso   1.00
N6     N     0.99149   0.71112   0.74162   0.00000  Uiso   1.00
H17    H     0.05501   0.69967   0.78125   0.00000  Uiso   1.00
H18    H     0.91923   0.71525   0.76419   0.00000  Uiso   1.00
N7     N     0.47974   0.49751   0.40358   0.00000  Uiso   1.00
H19    H     0.54094   0.49848   0.37078   0.00000  Uiso   1.00
H20    H     0.43644   0.60168   0.39576   0.00000  Uiso   1.00
N8     N     0.52026   0.49808   0.59642   0.00000  Uiso   1.00
H21    H     0.45906   0.49925   0.62923   0.00000  Uiso   1.00
H22    H     0.56354   0.60230   0.60412   0.00000  Uiso   1.00
