# Generated by REPEAT Assigner based on pymatgen
data_DB0-m29_o90_o470_f0_pts.sym.20
_audit_creation_date              2022-05-24
_audit_creation_method            REPEAT_Assigner
_cell_length_a                    12.186839
_cell_length_b                    16.152102
_cell_length_c                    13.380425
_cell_angle_alpha                 100.250267
_cell_angle_beta                  81.083247
_cell_angle_gamma                 71.614433
_cell_volume                      2395.823783
_symmetry_space_group_name_H-M    P1
_symmetry_Int_Tables_number       1
loop_
    _symmetry_equiv_pos_site_id
    _symmetry_equiv_pos_as_xyz
    1  x,y,z
loop_
    _atom_site_type_symbol
    _atom_site_label
    _atom_site_fract_x
    _atom_site_fract_y
    _atom_site_fract_z
    _atom_type_partial_charge
    C   C1   0.776613  0.025200  0.053165  0.156735
    C   C2   0.713806  0.026862  0.976095  -0.222731
    C   C3   0.768889  0.009951  0.873770  0.111881
    C   C4   0.889966  0.989065  0.846672  -0.294931
    C   C5   0.955404  0.989887  0.923457  0.199242
    C   C6   0.897073  0.012591  0.027190  -0.032259
    C   C7   0.078951  0.964170  0.898005  0.006213
    C   C8   0.137799  0.987602  0.974998  -0.180642
    C   C9   0.078772  0.010442  0.079862  0.377256
    C   C10  0.959547  0.020737  0.103688  -0.235650
    C   C11  0.253355  0.989257  0.951537  0.121449
    C   C12  0.312161  0.996865  0.030864  -0.246756
    C   C13  0.257701  0.012445  0.133020  0.174882
    C   C14  0.138707  0.023449  0.159973  -0.347321
    H   H1   0.621629  0.032962  0.993407  0.167609
    H   H2   0.931460  0.971545  0.764809  0.182978
    H   H3   0.400790  0.998870  0.015836  0.173310
    H   H4   0.911088  0.041728  0.183010  0.182330
    O   O1   0.597135  0.062930  0.179489  -0.555052
    C   C15  0.713146  0.025494  0.156280  0.462006
    O   O2   0.637333  0.840229  0.210706  -0.508515
    O   O3   0.765657  0.971787  0.211068  -0.465168
    O   O4   0.593748  0.939493  0.366603  -0.544127
    C   C16  0.644278  0.856680  0.308715  0.579387
    Fe  Fe1  0.511427  0.029953  0.295181  1.458909
    O   O5   0.404118  0.972738  0.235508  -0.576762
    O   O6   0.325202  0.117989  0.228635  -0.544086
    C   C17  0.323959  0.035814  0.208873  0.634410
    O   O7   0.441495  0.148348  0.401046  -0.620019
    O   O8   0.334447  0.073148  0.474161  -0.528881
    C   C18  0.360183  0.146390  0.476260  0.689534
    O   O9   0.564675  0.885678  0.607231  -0.628795
    O   O10  0.696950  0.943012  0.535437  -0.535756
    C   C19  0.653934  0.877868  0.532806  0.761237
    O   O11  0.636399  0.050340  0.759365  -0.628853
    O   O12  0.677546  0.914699  0.796461  -0.531948
    C   C20  0.702653  0.987869  0.797612  0.698828
    O   O13  0.253832  0.032634  0.786000  -0.536993
    O   O14  0.433898  0.097866  0.643260  -0.554631
    C   C21  0.352716  0.171137  0.704904  0.615457
    O   O15  0.429062  0.978266  0.834346  -0.582249
    C   C22  0.313798  0.996884  0.850610  0.619295
    O   O16  0.336969  0.182322  0.806346  -0.534868
    Fe  Fe2  0.513667  0.004106  0.711712  1.455578
    C   C23  0.286960  0.229602  0.553337  0.030353
    C   C24  0.218933  0.297708  0.515960  -0.083345
    H   H5   0.223503  0.286897  0.433111  0.128730
    C   C25  0.139047  0.376110  0.582142  -0.448263
    C   C26  0.132838  0.389271  0.689077  0.263552
    C   C27  0.202337  0.321069  0.726514  -0.208573
    H   H6   0.195642  0.331381  0.809528  0.177998
    C   C28  0.279539  0.240795  0.660174  0.003787
    N   N1   0.943398  0.470376  0.569668  -0.427741
    N   N2   0.874414  0.529659  0.528726  -0.140154
    C   C29  0.922001  0.559990  0.451730  0.779841
    N   N3   0.040185  0.526320  0.413166  -0.270255
    N   N4   0.109313  0.466751  0.454028  -0.304234
    C   C30  0.061996  0.440744  0.535396  0.960838
    C   C31  0.845088  0.628688  0.315218  -0.003076
    H   H7   0.895538  0.565467  0.259413  0.097823
    C   C32  0.778077  0.700085  0.281718  -0.141772
    H   H8   0.778453  0.690429  0.199669  0.136714
    C   C33  0.713468  0.782461  0.350818  0.083491
    C   C34  0.716844  0.791693  0.456322  -0.198203
    C   C35  0.783775  0.718790  0.490298  0.292543
    C   C36  0.847346  0.636812  0.418965  -0.495413
    C   C37  0.798424  0.731305  0.601284  -0.016287
    C   C38  0.704585  0.709962  0.670452  0.018325
    H   H9   0.628845  0.772019  0.711651  0.040817
    H   H10  0.671320  0.663768  0.622851  -0.046331
    H   H11  0.744177  0.677939  0.729469  0.000159
    H   H12  0.887404  0.688115  0.605818  0.030896
    H   H13  0.796480  0.799722  0.633246  -0.033700
    C   C39  0.078762  0.047699  0.274376  0.314807
    C   C40  0.070961  0.964643  0.308892  -0.187675
    H   H14  0.019970  0.932902  0.263423  0.037778
    H   H15  0.161766  0.915418  0.297562  0.058171
    H   H16  0.026498  0.984107  0.392742  0.062042
    H   H17  0.127430  0.077010  0.324879  -0.030388
    H   H18  0.990271  0.101184  0.292171  -0.037771
    C   C41  0.147389  0.894906  0.797051  0.209235
    C   C42  0.117010  0.809956  0.791113  -0.305527
    H   H19  0.113201  0.792391  0.867711  0.081372
    H   H20  0.031707  0.817794  0.767846  0.063793
    H   H21  0.187736  0.754117  0.731739  0.089199
    H   H22  0.131646  0.922199  0.728094  0.022256
    H   H23  0.243715  0.870745  0.792536  0.001859
    C   C43  0.057665  0.476060  0.766561  -0.213179
    C   C44  0.135913  0.521113  0.814125  -0.072329
    H   H24  0.182074  0.482395  0.865377  0.031875
    H   H25  0.202209  0.526435  0.751088  0.022135
    H   H26  0.079856  0.589553  0.861425  0.044870
    H   H27  0.000119  0.524843  0.731609  0.109758
    H   H28  0.000181  0.462037  0.829194  0.077664
