# Generated by REPEAT Assigner based on pymatgen
data_DB0-m3_o160_o530_f0_fsc.sym.60_sqe
_audit_creation_date              2022-05-24
_audit_creation_method            REPEAT_Assigner
_cell_length_a                    18.982486
_cell_length_b                    8.544644
_cell_length_c                    13.413945
_cell_angle_alpha                 90.000000
_cell_angle_beta                  101.902559
_cell_angle_gamma                 90.000000
_cell_volume                      2128.944460
_symmetry_space_group_name_H-M    P1
_symmetry_Int_Tables_number       1
loop_
    _symmetry_equiv_pos_site_id
    _symmetry_equiv_pos_as_xyz
    1  x,y,z
loop_
    _atom_site_type_symbol
    _atom_site_label
    _atom_site_fract_x
    _atom_site_fract_y
    _atom_site_fract_z
    _atom_type_partial_charge
    C   C1   0.870365  0.908851  0.079783  0.435337
    C   C2   0.844783  0.089159  0.945422  0.416581
    N   N1   0.822930  0.999230  0.016012  -0.141903
    C   C3   0.916441  0.091198  0.938314  -0.069974
    C   C4   0.942258  0.907647  0.074089  -0.119613
    C   C5   0.965363  0.999935  0.003166  0.093038
    C   C6   0.939454  0.183437  0.866627  -0.081658
    C   C7   0.991268  0.816033  0.139486  -0.045586
    C   C8   0.011095  0.184491  0.860630  -0.055357
    C   C9   0.062912  0.817054  0.133469  -0.068067
    C   C10  0.060123  0.093129  0.926157  -0.121785
    C   C11  0.085940  0.909549  0.061915  -0.101800
    C   C12  0.037020  0.000824  0.997075  0.101858
    C   C13  0.132036  0.092237  0.920612  0.468278
    C   C14  0.157621  0.911866  0.054940  0.446111
    N   N2   0.179485  0.002034  0.984470  -0.196022
    O   O1   0.847928  0.823370  0.151346  -0.445860
    O   O2   0.796372  0.173651  0.879907  -0.486750
    H   H1   0.902053  0.255890  0.814756  0.136410
    H   H2   0.974384  0.742635  0.195842  0.119409
    H   H3   0.027965  0.257732  0.804186  0.126657
    H   H4   0.100312  0.744410  0.185223  0.127920
    O   O3   0.154495  0.177858  0.849126  -0.485323
    O   O4   0.206042  0.827457  0.120498  -0.490795
    C   C15  0.289236  0.860734  0.972915  -0.296718
    C   C16  0.289234  0.141182  0.972054  -0.301980
    H   H5   0.262681  0.750297  0.978885  0.156922
    H   H6   0.263591  0.251110  0.982766  0.148303
    C   C17  0.359229  0.861098  0.958995  -0.036186
    C   C18  0.359180  0.140533  0.958080  0.018998
    C   C19  0.392716  0.000689  0.947598  -0.166192
    C   C20  0.253150  0.001141  0.975800  0.361519
    C   C21  0.713174  0.140660  0.027541  -0.311746
    C   C22  0.713139  0.860236  0.028362  -0.328510
    H   H7   0.739754  0.251069  0.021640  0.163045
    H   H8   0.738772  0.750309  0.017638  0.148439
    C   C23  0.643127  0.140295  0.041273  0.065148
    C   C24  0.643161  0.860946  0.042198  0.131761
    C   C25  0.609606  0.000754  0.052552  -0.280057
    C   C26  0.749261  0.000235  0.024696  0.325947
    H   H9   0.448153  0.000548  0.939802  0.146728
    H   H10  0.554113  0.000900  0.060082  0.119750
    O   O5   0.427069  0.668590  0.064394  -0.677798
    O   O6   0.427092  0.332261  0.063927  -0.736712
    O   O7   0.425665  0.664861  0.892020  -0.750056
    O   O8   0.425654  0.337152  0.891542  -0.769553
    C   C27  0.402924  0.719133  0.971286  0.862190
    C   C28  0.402970  0.282288  0.970703  0.887848
    O   O9   0.575145  0.669712  0.936110  -0.797000
    O   O10  0.575186  0.332339  0.935654  -0.738175
    O   O11  0.576525  0.664690  0.108684  -0.685668
    O   O12  0.576510  0.336146  0.108195  -0.660119
    C   C29  0.599328  0.719326  0.029479  0.896088
    C   C30  0.599391  0.282147  0.028898  0.867752
    Zn  Zn1  0.501591  0.501082  0.888826  1.098013
    Zn  Zn2  0.500743  0.500346  0.111289  0.967997
    C   C31  0.562225  0.498682  0.313111  -0.254429
    N   N3   0.500683  0.499868  0.242033  0.176753
    C   C32  0.436704  0.500726  0.270162  -0.181712
    C   C33  0.432816  0.501035  0.371598  -0.049280
    C   C34  0.495386  0.499914  0.446478  -0.282840
    C   C35  0.560474  0.498232  0.415449  0.678839
    C   C36  0.432994  0.503255  0.589168  -0.246733
    C   C37  0.495432  0.500493  0.550658  0.318361
    C   C38  0.560612  0.498482  0.619327  -0.043949
    C   C39  0.624073  0.496083  0.584749  0.242338
    N   N4   0.622973  0.496262  0.484314  -0.593815
    C   C40  0.437163  0.503691  0.692847  -0.108418
    N   N5   0.501271  0.501534  0.758025  0.183924
    C   C41  0.562695  0.498967  0.722951  -0.192250
    H   H11  0.387548  0.501375  0.212726  0.193802
    H   H12  0.613824  0.497389  0.776345  0.183633
    H   H13  0.675121  0.494305  0.638333  0.105116
    H   H14  0.379779  0.501833  0.388042  0.128895
    H   H15  0.379893  0.505231  0.541978  0.166623
    H   H16  0.388085  0.505554  0.721753  0.180292
    C   C42  0.630563  0.498355  0.283175  0.403220
    N   N6   0.685663  0.498127  0.259027  -0.399455
