# generated using pymatgen
data_ZnH9C14N4O5
_symmetry_space_group_name_H-M   'P 1'
_cell_length_a   8.58219900
_cell_length_b   14.97906900
_cell_length_c   9.17301600
_cell_angle_alpha   90.95959200
_cell_angle_beta   90.08146900
_cell_angle_gamma   90.01766300
_symmetry_Int_Tables_number   1
_chemical_formula_structural   ZnH9C14N4O5
_chemical_formula_sum   'Zn2 H18 C28 N8 O10'
_cell_volume   1179.05530842
_cell_formula_units_Z   2
loop_
 _symmetry_equiv_pos_site_id
 _symmetry_equiv_pos_as_xyz
  1  'x, y, z'
loop_
 _atom_site_type_symbol
 _atom_site_label
 _atom_site_symmetry_multiplicity
 _atom_site_fract_x
 _atom_site_fract_y
 _atom_site_fract_z
 _atom_site_occupancy
  Zn  Zn1  1  0.50601500  0.50530300  0.83478000  1
  Zn  Zn2  1  0.50695000  0.49552100  0.15910100  1
  H  H1  1  0.00739900  0.56093700  0.04262100  1
  H  H2  1  0.00559800  0.43659100  0.92927700  1
  H  H3  1  0.25668900  0.80259100  0.99785500  1
  H  H4  1  0.75623500  0.20018200  0.02057700  1
  H  H5  1  0.75620800  0.80216800  0.00036000  1
  H  H6  1  0.25616200  0.20062600  0.02121100  1
  H  H7  1  0.31653200  0.60544400  0.58285400  1
  H  H8  1  0.68630200  0.39042600  0.41256700  1
  H  H9  1  0.55423700  0.63786200  0.37792900  1
  H  H10  1  0.44684700  0.36305400  0.60979700  1
  H  H11  1  0.20108900  0.37764300  0.42627300  1
  H  H12  1  0.92938100  0.42994400  0.44182800  1
  H  H13  1  0.95619200  0.42341200  0.24654800  1
  H  H14  1  0.88284900  0.52572900  0.32971400  1
  H  H15  1  0.84581200  0.50672500  0.66377600  1
  H  H16  1  0.05614100  0.69198600  0.56903100  1
  H  H17  1  0.04462500  0.60681700  0.70611100  1
  H  H18  1  0.96750500  0.71734700  0.74246700  1
  C  C1  1  0.14633600  0.67598800  0.01414400  1
  C  C2  1  0.86653300  0.32455200  0.98061300  1
  C  C3  1  0.14671100  0.76772600  0.00400800  1
  C  C4  1  0.86618300  0.23430700  0.00770600  1
  C  C5  1  0.00648300  0.81404000  0.00583300  1
  C  C6  1  0.00622300  0.18814100  0.01284400  1
  C  C7  1  0.86642000  0.76749700  0.00555000  1
  C  C8  1  0.14608100  0.23458100  0.00811700  1
  C  C9  1  0.86752800  0.67565900  0.01421800  1
  C  C10  1  0.14533300  0.32487500  0.98119000  1
  C  C11  1  0.00710300  0.63168800  0.02719400  1
  C  C12  1  0.00582600  0.36736900  0.95729900  1
  C  C13  1  0.00633800  0.09044500  0.01848900  1
  C  C14  1  0.00639600  0.91189500  0.00854500  1
  C  C15  1  0.72500100  0.62197700  0.00765300  1
  C  C16  1  0.28764800  0.37895600  0.98647000  1
  C  C17  1  0.72409200  0.37838800  0.98600000  1
  C  C18  1  0.28922900  0.62265000  0.00789700  1
  C  C19  1  0.40406400  0.55684500  0.54176300  1
  C  C20  1  0.60786200  0.44407400  0.45226500  1
  C  C21  1  0.38012600  0.47526900  0.44971600  1
  C  C22  1  0.63314500  0.52608800  0.54421500  1
  C  C23  1  0.53602800  0.57436100  0.43574700  1
  C  C24  1  0.47661900  0.42699200  0.55738500  1
  C  C25  1  0.12373300  0.49969300  0.36557700  1
  C  C26  1  0.96178900  0.46797700  0.34415300  1
  C  C27  1  0.82927800  0.63731500  0.59781400  1
  C  C28  1  0.98396800  0.66463900  0.65793500  1
  N  N1  1  0.87086900  0.95697900  0.01192300  1
  N  N2  1  0.14186600  0.04535100  0.01563100  1
  N  N3  1  0.87084500  0.04524200  0.01621700  1
  N  N4  1  0.14189200  0.95708800  0.01131700  1
  N  N5  1  0.50738800  0.49184700  0.35045600  1
  N  N6  1  0.50540100  0.50898500  0.64345000  1
  N  N7  1  0.23621800  0.43993300  0.39392400  1
  N  N8  1  0.78397200  0.55096400  0.60155600  1
  O  O1  1  0.67580500  0.58686400  0.12915900  1
  O  O2  1  0.33708900  0.41394100  0.86481200  1
  O  O3  1  0.66932700  0.59880900  0.87875400  1
  O  O4  1  0.34364000  0.40206400  0.11510600  1
  O  O5  1  0.67419800  0.41344000  0.86437200  1
  O  O6  1  0.33911300  0.58750200  0.12930600  1
  O  O7  1  0.66905400  0.40156900  0.11482900  1
  O  O8  1  0.34388900  0.59926100  0.87906000  1
  O  O9  1  0.15391100  0.57895900  0.35816200  1
  O  O10  1  0.74518400  0.69367000  0.54493400  1
