# Generated by REPEAT Assigner based on pymatgen
data_DB0-m3_o10_o18_f0_pcu.sym.4
_audit_creation_date              2022-05-24
_audit_creation_method            REPEAT_Assigner
_cell_length_a                    7.708954
_cell_length_b                    8.899142
_cell_length_c                    14.666832
_cell_angle_alpha                 91.732150
_cell_angle_beta                  95.340476
_cell_angle_gamma                 91.438373
_cell_volume                      1000.970366
_symmetry_space_group_name_H-M    P1
_symmetry_Int_Tables_number       1
loop_
    _symmetry_equiv_pos_site_id
    _symmetry_equiv_pos_as_xyz
    1  x,y,z
loop_
    _atom_site_type_symbol
    _atom_site_label
    _atom_site_fract_x
    _atom_site_fract_y
    _atom_site_fract_z
    _atom_type_partial_charge
    O   O1   0.884101  0.736879  0.503992  -0.725531
    O   O2   0.115899  0.263121  0.496008  -0.725480
    O   O3   0.176926  0.708331  0.487820  -0.700846
    O   O4   0.823074  0.291670  0.512180  -0.700925
    C   C1   0.040810  0.791947  0.494927  0.872419
    C   C2   0.959190  0.208053  0.505073  0.872546
    O   O5   0.904371  0.525691  0.644327  -0.624311
    O   O6   0.095629  0.474310  0.355673  -0.624315
    O   O7   0.196971  0.498361  0.627215  -0.596291
    O   O8   0.803029  0.501639  0.372785  -0.596271
    C   C3   0.067404  0.516121  0.678085  0.648636
    C   C4   0.932597  0.483879  0.321915  0.648623
    Zn  Zn1  0.807129  0.518508  0.511002  1.041420
    Zn  Zn2  0.192871  0.481493  0.488998  1.041385
    C   C5   0.108156  0.531519  0.777212  -0.114845
    C   C6   0.891844  0.468481  0.222788  -0.114846
    C   C7   0.025617  0.603507  0.923764  -0.434256
    C   C8   0.974383  0.396493  0.076236  -0.434239
    C   C9   0.983469  0.580570  0.831275  0.072323
    C   C10  0.016531  0.419430  0.168725  0.072314
    C   C11  0.273671  0.502059  0.815771  -0.155323
    C   C12  0.726329  0.497942  0.184229  -0.155309
    C   C13  0.316689  0.520029  0.910031  -0.039427
    C   C14  0.683311  0.479972  0.089969  -0.039426
    C   C15  0.190473  0.573607  0.962712  0.411948
    C   C16  0.809527  0.426394  0.037288  0.411928
    C   C17  0.481800  0.487685  0.952710  0.015310
    C   C18  0.518200  0.512316  0.047290  0.015303
    C   C19  0.388944  0.570093  0.097183  -0.036311
    C   C20  0.611056  0.429908  0.902817  -0.036325
    C   C21  0.227445  0.599059  0.055143  -0.409468
    C   C22  0.772555  0.400942  0.944857  -0.409441
    H   H1   0.128752  0.643211  0.095504  0.183721
    H   H2   0.871248  0.356789  0.904496  0.183713
    H   H3   0.635535  0.533389  0.231028  0.126306
    H   H4   0.364466  0.466612  0.768973  0.126322
    H   H5   0.145535  0.395032  0.199069  0.074150
    H   H6   0.854465  0.604968  0.800932  0.074146
    H   H7   0.928986  0.645955  0.966046  0.188909
    H   H8   0.071014  0.354045  0.033954  0.188903
    H   H9   0.406950  0.595829  0.169337  0.105604
    H   H10  0.593051  0.404172  0.830663  0.105603
    C   C23  0.066236  0.955250  0.494412  -0.250616
    C   C24  0.933764  0.044750  0.505588  -0.250987
    H   H11  0.194058  0.003201  0.485727  0.146361
    H   H12  0.805942  0.996800  0.514274  0.146532
    N   N1   0.446780  0.458902  0.475591  0.114225
    N   N2   0.553220  0.541098  0.524409  0.114214
    O   O9   0.503837  0.416700  0.395559  -0.274690
    H   H13  0.535696  0.310463  0.403336  0.360656
    O   O10  0.496163  0.583301  0.604441  -0.274687
    H   H14  0.464304  0.689537  0.596664  0.360644
