# generated using pymatgen
data_ZnH11C21N5O4
_symmetry_space_group_name_H-M   'P 1'
_cell_length_a   27.49211200
_cell_length_b   27.49218200
_cell_length_c   14.94254100
_cell_angle_alpha   90.00000000
_cell_angle_beta   89.99126700
_cell_angle_gamma   90.00000000
_symmetry_Int_Tables_number   1
_chemical_formula_structural   ZnH11C21N5O4
_chemical_formula_sum   'Zn4 H44 C84 N20 O16'
_cell_volume   11293.84351395
_cell_formula_units_Z   4
loop_
 _symmetry_equiv_pos_site_id
 _symmetry_equiv_pos_as_xyz
  1  'x, y, z'
loop_
 _atom_site_type_symbol
 _atom_site_label
 _atom_site_symmetry_multiplicity
 _atom_site_fract_x
 _atom_site_fract_y
 _atom_site_fract_z
 _atom_site_occupancy
  Zn  Zn1  1  0.00001400  0.00000000  0.10090800  1
  Zn  Zn2  1  0.99998600  0.00000000  0.89909200  1
  Zn  Zn3  1  0.50001400  0.50000000  0.10090800  1
  Zn  Zn4  1  0.49998600  0.50000000  0.89909200  1
  H  H1  1  0.54153500  0.57194000  0.44462700  1
  H  H2  1  0.45846500  0.42806000  0.55537300  1
  H  H3  1  0.45846500  0.57194000  0.55537300  1
  H  H4  1  0.54153500  0.42806000  0.44462700  1
  H  H5  1  0.04153500  0.07194000  0.44462700  1
  H  H6  1  0.95846500  0.92806000  0.55537300  1
  H  H7  1  0.95846500  0.07194000  0.55537300  1
  H  H8  1  0.04153500  0.92806000  0.44462700  1
  H  H9  1  0.08306900  0.00000000  0.55533400  1
  H  H10  1  0.91693100  0.00000000  0.44466600  1
  H  H11  1  0.58306900  0.50000000  0.55533400  1
  H  H12  1  0.41693100  0.50000000  0.44466600  1
  H  H13  1  0.88936900  0.11067300  0.14307400  1
  H  H14  1  0.11063100  0.88932700  0.85692600  1
  H  H15  1  0.11063100  0.11067300  0.85692600  1
  H  H16  1  0.88936900  0.88932700  0.14307400  1
  H  H17  1  0.38936900  0.61067300  0.14307400  1
  H  H18  1  0.61063100  0.38932700  0.85692600  1
  H  H19  1  0.61063100  0.61067300  0.85692600  1
  H  H20  1  0.38936900  0.38932700  0.14307400  1
  H  H21  1  0.82715600  0.17288000  0.14330700  1
  H  H22  1  0.17284400  0.82712000  0.85669300  1
  H  H23  1  0.17284400  0.17288000  0.85669300  1
  H  H24  1  0.82715600  0.82712000  0.14330700  1
  H  H25  1  0.32715600  0.67288000  0.14330700  1
  H  H26  1  0.67284400  0.32712000  0.85669300  1
  H  H27  1  0.67284400  0.67288000  0.85669300  1
  H  H28  1  0.32715600  0.32712000  0.14330700  1
  H  H29  1  0.82714200  0.17285200  0.85667200  1
  H  H30  1  0.17285800  0.82714800  0.14332800  1
  H  H31  1  0.17285800  0.17285200  0.14332800  1
  H  H32  1  0.82714200  0.82714800  0.85667200  1
  H  H33  1  0.32714200  0.67285200  0.85667200  1
  H  H34  1  0.67285800  0.32714800  0.14332800  1
  H  H35  1  0.67285800  0.67285200  0.14332800  1
  H  H36  1  0.32714200  0.32714800  0.85667200  1
  H  H37  1  0.88935600  0.11064400  0.85689100  1
  H  H38  1  0.11064400  0.88935600  0.14310900  1
  H  H39  1  0.11064400  0.11064400  0.14310900  1
  H  H40  1  0.88935600  0.88935600  0.85689100  1
  H  H41  1  0.38935600  0.61064400  0.85689100  1
  H  H42  1  0.61064400  0.38935600  0.14310900  1
  H  H43  1  0.61064400  0.61064400  0.14310900  1
  H  H44  1  0.38935600  0.38935600  0.85689100  1
  C  C1  1  0.56823600  0.56825400  0.00001900  1
  C  C2  1  0.43176400  0.43174600  0.99998100  1
  C  C3  1  0.43176400  0.56825400  0.99998100  1
  C  C4  1  0.56823600  0.43174600  0.00001900  1
  C  C5  1  0.06823600  0.06825400  0.00001900  1
  C  C6  1  0.93176400  0.93174600  0.99998100  1
  C  C7  1  0.93176400  0.06825400  0.99998100  1
  C  C8  1  0.06823600  0.93174600  0.00001900  1
  C  C9  1  0.47734900  0.53923300  0.52931600  1
  C  C10  1  0.52265100  0.46076700  0.47068400  1
  C  C11  1  0.52265100  0.53923300  0.47068400  1
  C  C12  1  0.47734900  0.46076700  0.52931600  1
  C  C13  1  0.97734900  0.03923300  0.52931600  1
  C  C14  1  0.02265100  0.96076700  0.47068400  1
  C  C15  1  0.02265100  0.03923300  0.47068400  1
  C  C16  1  0.97734900  0.96076700  0.52931600  1
  C  C17  1  0.95469800  0.00000000  0.47070500  1
  C  C18  1  0.04530200  0.00000000  0.52929500  1
  C  C19  1  0.45469800  0.50000000  0.47070500  1
  C  C20  1  0.54530200  0.50000000  0.52929500  1
  C  C21  1  0.50000000  0.50000000  0.41358900  1
  C  C22  1  0.50000000  0.50000000  0.58641100  1
  C  C23  1  0.00000000  0.00000000  0.41358900  1
  C  C24  1  0.00000000  0.00000000  0.58641100  1
  C  C25  1  0.49999800  0.50000000  0.31470700  1
  C  C26  1  0.50000200  0.50000000  0.68529300  1
  C  C27  1  0.99999800  0.00000000  0.31470700  1
  C  C28  1  0.00000200  0.00000000  0.68529300  1
  C  C29  1  0.87594700  0.12408500  0.07975400  1
  C  C30  1  0.12405300  0.87591500  0.92024600  1
  C  C31  1  0.12405300  0.12408500  0.92024600  1
  C  C32  1  0.87594700  0.87591500  0.07975400  1
  C  C33  1  0.37594700  0.62408500  0.07975400  1
  C  C34  1  0.62405300  0.37591500  0.92024600  1
  C  C35  1  0.62405300  0.62408500  0.92024600  1
  C  C36  1  0.37594700  0.37591500  0.07975400  1
  C  C37  1  0.84043200  0.15959700  0.07979800  1
  C  C38  1  0.15956800  0.84040300  0.92020200  1
  C  C39  1  0.15956800  0.15959700  0.92020200  1
  C  C40  1  0.84043200  0.84040300  0.07979800  1
  C  C41  1  0.34043200  0.65959700  0.07979800  1
  C  C42  1  0.65956800  0.34040300  0.92020200  1
  C  C43  1  0.65956800  0.65959700  0.92020200  1
  C  C44  1  0.34043200  0.34040300  0.07979800  1
  C  C45  1  0.82236500  0.17764900  0.99999000  1
  C  C46  1  0.17763500  0.82235100  0.00001000  1
  C  C47  1  0.17763500  0.17764900  0.00001000  1
  C  C48  1  0.82236500  0.82235100  0.99999000  1
  C  C49  1  0.32236500  0.67764900  0.99999000  1
  C  C50  1  0.67763500  0.32235100  0.00001000  1
  C  C51  1  0.67763500  0.67764900  0.00001000  1
  C  C52  1  0.32236500  0.32235100  0.99999000  1
  C  C53  1  0.84042400  0.15958100  0.92017700  1
  C  C54  1  0.15957600  0.84041900  0.07982300  1
  C  C55  1  0.15957600  0.15958100  0.07982300  1
  C  C56  1  0.84042400  0.84041900  0.92017700  1
  C  C57  1  0.34042400  0.65958100  0.92017700  1
  C  C58  1  0.65957600  0.34041900  0.07982300  1
  C  C59  1  0.65957600  0.65958100  0.07982300  1
  C  C60  1  0.34042400  0.34041900  0.92017700  1
  C  C61  1  0.87594000  0.12406800  0.92021400  1
  C  C62  1  0.12406000  0.87593200  0.07978600  1
  C  C63  1  0.12406000  0.12406800  0.07978600  1
  C  C64  1  0.87594000  0.87593200  0.92021400  1
  C  C65  1  0.37594000  0.62406800  0.92021400  1
  C  C66  1  0.62406000  0.37593200  0.07978600  1
  C  C67  1  0.62406000  0.62406800  0.07978600  1
  C  C68  1  0.37594000  0.37593200  0.92021400  1
  C  C69  1  0.89395200  0.10606900  0.99998200  1
  C  C70  1  0.10604800  0.89393100  0.00001800  1
  C  C71  1  0.10604800  0.10606900  0.00001800  1
  C  C72  1  0.89395200  0.89393100  0.99998200  1
  C  C73  1  0.39395200  0.60606900  0.99998200  1
  C  C74  1  0.60604800  0.39393100  0.00001800  1
  C  C75  1  0.60604800  0.60606900  0.00001800  1
  C  C76  1  0.39395200  0.39393100  0.99998200  1
  C  C77  1  0.21551100  0.78448200  0.00000500  1
  C  C78  1  0.78448900  0.21551800  0.99999500  1
  C  C79  1  0.78448900  0.78448200  0.99999500  1
  C  C80  1  0.21551100  0.21551800  0.00000500  1
  C  C81  1  0.71551100  0.28448200  0.00000500  1
  C  C82  1  0.28448900  0.71551800  0.99999500  1
  C  C83  1  0.28448900  0.28448200  0.99999500  1
  C  C84  1  0.71551100  0.71551800  0.00000500  1
  N  N1  1  0.99999500  0.00000000  0.23691400  1
  N  N2  1  0.00000600  0.00000000  0.76308600  1
  N  N3  1  0.49999500  0.50000000  0.23691400  1
  N  N4  1  0.50000600  0.50000000  0.76308600  1
  N  N5  1  0.76701000  0.23298200  0.92223200  1
  N  N6  1  0.23299000  0.76701800  0.07776800  1
  N  N7  1  0.23299000  0.23298200  0.07776800  1
  N  N8  1  0.76701000  0.76701800  0.92223200  1
  N  N9  1  0.26701000  0.73298200  0.92223200  1
  N  N10  1  0.73299000  0.26701800  0.07776800  1
  N  N11  1  0.73299000  0.73298200  0.07776800  1
  N  N12  1  0.26701000  0.26701800  0.92223200  1
  N  N13  1  0.73298200  0.26700300  0.92223800  1
  N  N14  1  0.26701800  0.73299700  0.07776200  1
  N  N15  1  0.26701800  0.26700300  0.07776200  1
  N  N16  1  0.73298200  0.73299700  0.92223800  1
  N  N17  1  0.23298200  0.76700300  0.92223800  1
  N  N18  1  0.76701800  0.23299700  0.07776200  1
  N  N19  1  0.76701800  0.76700300  0.07776200  1
  N  N20  1  0.23298200  0.23299700  0.92223800  1
  O  O1  1  0.55144000  0.55144000  0.07638200  1
  O  O2  1  0.44856000  0.44856000  0.92361800  1
  O  O3  1  0.44856000  0.55144000  0.92361800  1
  O  O4  1  0.55144000  0.44856000  0.07638200  1
  O  O5  1  0.05144000  0.05144000  0.07638200  1
  O  O6  1  0.94856000  0.94856000  0.92361800  1
  O  O7  1  0.94856000  0.05144000  0.92361800  1
  O  O8  1  0.05144000  0.94856000  0.07638200  1
  O  O9  1  0.55143300  0.55146000  0.92365700  1
  O  O10  1  0.44856700  0.44854000  0.07634300  1
  O  O11  1  0.44856700  0.55146000  0.07634300  1
  O  O12  1  0.55143300  0.44854000  0.92365700  1
  O  O13  1  0.05143300  0.05146000  0.92365700  1
  O  O14  1  0.94856700  0.94854000  0.07634300  1
  O  O15  1  0.94856700  0.05146000  0.07634300  1
  O  O16  1  0.05143300  0.94854000  0.92365700  1
