data_DB0-m3_o12_o29_f0_pcu.sym.49_repeat
_audit_creation_date              2024-02-23
_audit_creation_method            'Materials Studio'
_symmetry_space_group_name_H-M    'P1'
_symmetry_Int_Tables_number       1
_symmetry_cell_setting            triclinic
loop_
_symmetry_equiv_pos_as_xyz
  x,y,z
_cell_length_a                    9.9981
_cell_length_b                    11.2508
_cell_length_c                    27.6424
_cell_angle_alpha                 89.9790
_cell_angle_beta                  80.7846
_cell_angle_gamma                 92.4443
loop_
_atom_site_label
_atom_site_type_symbol
_atom_site_fract_x
_atom_site_fract_y
_atom_site_fract_z
_atom_site_U_iso_or_equiv
_atom_site_adp_type
_atom_site_occupancy
O1     O     0.43865   0.67970   0.50406   0.00000  Uiso   1.00
O2     O     0.58862   0.29844   0.49456   0.00000  Uiso   1.00
O3     O     0.66832   0.64868   0.48960   0.00000  Uiso   1.00
O4     O     0.35895   0.32946   0.50887   0.00000  Uiso   1.00
C1     C     0.56573   0.71904   0.49608   0.00000  Uiso   1.00
C2     C     0.46154   0.25910   0.50247   0.00000  Uiso   1.00
O5     O     0.40168   0.50433   0.57836   0.00000  Uiso   1.00
O6     O     0.62554   0.47362   0.42018   0.00000  Uiso   1.00
O7     O     0.63127   0.47357   0.56403   0.00000  Uiso   1.00
O8     O     0.39607   0.50480   0.43452   0.00000  Uiso   1.00
C3     C     0.51723   0.48893   0.59381   0.00000  Uiso   1.00
C4     C     0.51000   0.48923   0.40474   0.00000  Uiso   1.00
Zn1    Zn    0.36228   0.50965   0.50873   0.00000  Uiso   1.00
Zn2    Zn    0.66499   0.46849   0.48982   0.00000  Uiso   1.00
C5     C     0.57814   0.58878   0.81843   0.00000  Uiso   1.00
C6     C     0.42305   0.40999   0.18093   0.00000  Uiso   1.00
O9     O     0.63059   0.67784   0.78800   0.00000  Uiso   1.00
O10    O     0.35654   0.32629   0.21130   0.00000  Uiso   1.00
N1     N     0.52184   0.49386   0.79844   0.00000  Uiso   1.00
N2     N     0.50255   0.49082   0.20012   0.00000  Uiso   1.00
C7     C     0.46400   0.40199   0.82611   0.00000  Uiso   1.00
C8     C     0.58053   0.57169   0.17160   0.00000  Uiso   1.00
C9     C     0.64093   0.48549   0.71456   0.00000  Uiso   1.00
C10    C     0.38755   0.50913   0.28418   0.00000  Uiso   1.00
C11    C     0.63990   0.48372   0.66472   0.00000  Uiso   1.00
C12    C     0.38917   0.50879   0.33396   0.00000  Uiso   1.00
C13    C     0.39885   0.49597   0.67933   0.00000  Uiso   1.00
C14    C     0.62522   0.47017   0.31914   0.00000  Uiso   1.00
C15    C     0.40012   0.49671   0.72912   0.00000  Uiso   1.00
C16    C     0.62326   0.47045   0.26937   0.00000  Uiso   1.00
C17    C     0.52107   0.49198   0.74690   0.00000  Uiso   1.00
C18    C     0.50448   0.48993   0.25166   0.00000  Uiso   1.00
C19    C     0.51741   0.49871   0.89821   0.00000  Uiso   1.00
C20    C     0.49979   0.49263   0.10068   0.00000  Uiso   1.00
C21    C     0.57821   0.59406   0.86938   0.00000  Uiso   1.00
C22    C     0.41616   0.41080   0.13046   0.00000  Uiso   1.00
C23    C     0.63347   0.69158   0.89257   0.00000  Uiso   1.00
C24    C     0.32758   0.33461   0.10896   0.00000  Uiso   1.00
C25    C     0.46084   0.40319   0.87605   0.00000  Uiso   1.00
C26    C     0.58139   0.57273   0.12175   0.00000  Uiso   1.00
C27    C     0.51878   0.48938   0.64680   0.00000  Uiso   1.00
C28    C     0.50811   0.48936   0.35176   0.00000  Uiso   1.00
H1     H     0.30273   0.50028   0.66640   0.00000  Uiso   1.00
H2     H     0.71948   0.45441   0.33200   0.00000  Uiso   1.00
H3     H     0.30587   0.50237   0.75420   0.00000  Uiso   1.00
H4     H     0.71521   0.45428   0.24429   0.00000  Uiso   1.00
C29    C     0.58133   0.58165   0.02135   0.00000  Uiso   1.00
C30    C     0.44444   0.40497   0.97720   0.00000  Uiso   1.00
C31    C     0.42914   0.41055   0.02841   0.00000  Uiso   1.00
C32    C     0.57518   0.58879   0.97113   0.00000  Uiso   1.00
C33    C     0.50310   0.49515   0.05014   0.00000  Uiso   1.00
C34    C     0.51254   0.49746   0.94885   0.00000  Uiso   1.00
C35    C     0.66631   0.65783   0.04338   0.00000  Uiso   1.00
C36    C     0.39494   0.30762   0.95356   0.00000  Uiso   1.00
C37    C     0.66557   0.65350   0.09290   0.00000  Uiso   1.00
C38    C     0.40291   0.30723   0.90370   0.00000  Uiso   1.00
O11    O     0.65652   0.65268   0.19206   0.00000  Uiso   1.00
O12    O     0.41054   0.30819   0.80462   0.00000  Uiso   1.00
C39    C     0.62869   0.68699   0.94308   0.00000  Uiso   1.00
C40    C     0.33772   0.33516   0.05823   0.00000  Uiso   1.00
H5     H     0.29626   0.52440   0.35855   0.00000  Uiso   1.00
H6     H     0.73508   0.47862   0.64016   0.00000  Uiso   1.00
H7     H     0.29424   0.52564   0.27072   0.00000  Uiso   1.00
H8     H     0.73606   0.48100   0.72822   0.00000  Uiso   1.00
H9     H     0.73348   0.71447   0.10833   0.00000  Uiso   1.00
H10    H     0.36246   0.22976   0.88698   0.00000  Uiso   1.00
H11    H     0.74023   0.71924   0.02320   0.00000  Uiso   1.00
H12    H     0.35396   0.22694   0.97226   0.00000  Uiso   1.00
H13    H     0.66022   0.76413   0.96142   0.00000  Uiso   1.00
H14    H     0.26842   0.28001   0.04171   0.00000  Uiso   1.00
H15    H     0.63600   0.08400   0.49167   0.00000  Uiso   1.00
H16    H     0.39126   0.89415   0.50692   0.00000  Uiso   1.00
C41    C     0.59566   0.84779   0.49421   0.00000  Uiso   1.00
C42    C     0.43161   0.13035   0.50434   0.00000  Uiso   1.00
C43    C     0.49681   0.92493   0.50035   0.00000  Uiso   1.00
C44    C     0.53046   0.05321   0.49822   0.00000  Uiso   1.00
H17    H     0.32663   0.09780   0.51087   0.00000  Uiso   1.00
H18    H     0.70063   0.88034   0.48766   0.00000  Uiso   1.00
H19    H     0.13096   0.41800   0.46810   0.00000  Uiso   1.00
H20    H     0.89631   0.56017   0.53044   0.00000  Uiso   1.00
N3     N     0.86384   0.44088   0.47724   0.00000  Uiso   1.00
N4     N     0.16343   0.53726   0.52131   0.00000  Uiso   1.00
C45    C     0.94037   0.49817   0.50303   0.00000  Uiso   1.00
C46    C     0.08690   0.47999   0.49552   0.00000  Uiso   1.00
H21    H     0.11575   0.59498   0.54661   0.00000  Uiso   1.00
H22    H     0.91152   0.38314   0.45195   0.00000  Uiso   1.00
C47    C     0.69780   0.80039   0.86385   0.00000  Uiso   1.00
C48    C     0.75624   0.89900   0.89313   0.00000  Uiso   1.00
C49    C     0.82094   0.99767   0.85864   0.00000  Uiso   1.00
H23    H     0.90513   0.96284   0.83212   0.00000  Uiso   1.00
H24    H     0.74413   0.03418   0.83856   0.00000  Uiso   1.00
H25    H     0.86179   0.06973   0.88021   0.00000  Uiso   1.00
H26    H     0.67426   0.93756   0.91951   0.00000  Uiso   1.00
H27    H     0.83582   0.86417   0.91236   0.00000  Uiso   1.00
H28    H     0.78354   0.77159   0.83644   0.00000  Uiso   1.00
H29    H     0.62016   0.84117   0.84540   0.00000  Uiso   1.00
C50    C     0.22014   0.25509   0.13992   0.00000  Uiso   1.00
C51    C     0.11483   0.19343   0.11318   0.00000  Uiso   1.00
C52    C     0.00823   0.12768   0.14992   0.00000  Uiso   1.00
H30    H     0.05692   0.06186   0.17055   0.00000  Uiso   1.00
H31    H     0.95425   0.19161   0.17579   0.00000  Uiso   1.00
H32    H     0.93400   0.08043   0.13012   0.00000  Uiso   1.00
H33    H     0.06345   0.26005   0.09386   0.00000  Uiso   1.00
H34    H     0.16349   0.12713   0.08712   0.00000  Uiso   1.00
H35    H     0.27063   0.18411   0.15712   0.00000  Uiso   1.00
H36    H     0.16240   0.31054   0.16845   0.00000  Uiso   1.00
