# Generated by REPEAT Assigner based on pymatgen
data_DB0-m9_o20_o24_f0_sra.sym.26
_audit_creation_date              2022-05-24
_audit_creation_method            REPEAT_Assigner
_cell_length_a                    6.700255
_cell_length_b                    14.558359
_cell_length_c                    20.048141
_cell_angle_alpha                 108.606177
_cell_angle_beta                  90.838468
_cell_angle_gamma                 91.131780
_cell_volume                      1852.565380
_symmetry_space_group_name_H-M    P1
_symmetry_Int_Tables_number       1
loop_
    _symmetry_equiv_pos_site_id
    _symmetry_equiv_pos_as_xyz
    1  x,y,z
loop_
    _atom_site_type_symbol
    _atom_site_label
    _atom_site_fract_x
    _atom_site_fract_y
    _atom_site_fract_z
    _atom_type_partial_charge
    O  O1   0.530600  0.430590  0.561010  -0.553493
    O  O2   0.181608  0.387893  0.411870  -0.581707
    O  O3   0.030954  0.567425  0.436252  -0.561159
    C  C1   0.354640  0.369956  0.382719  0.654390
    O  O4   0.188713  0.409018  0.553109  -0.535900
    O  O5   0.038520  0.589703  0.586002  -0.543489
    C  C2   0.363026  0.399568  0.578789  0.770441
    O  O6   0.523376  0.407714  0.411214  -0.568856
    O  O7   0.359364  0.559537  0.508045  -0.434804
    V  V1   0.081834  0.486437  0.496474  1.365144
    O  O8   0.698435  0.609890  0.584853  -0.541907
    C  C3   0.873780  0.626931  0.614452  0.585889
    O  O9   0.691510  0.588436  0.443637  -0.546751
    C  C4   0.865080  0.598615  0.418445  0.767068
    V  V2   0.583048  0.511211  0.500478  1.373435
    O  O10  0.853497  0.438111  0.488885  -0.431732
    C  C5   0.875949  0.650995  0.368488  -0.230631
    C  C6   0.885693  0.691822  0.324705  0.084191
    C  C7   0.896245  0.737500  0.272028  -0.014431
    C  C8   0.902892  0.775832  0.226740  -0.034372
    C  C9   0.906184  0.821343  0.173876  0.099869
    C  C10  0.903160  0.861855  0.129812  -0.220764
    C  C11  0.811749  0.836774  0.751020  0.203342
    C  C12  0.995917  0.792839  0.711250  -0.208591
    H  H1   0.090979  0.824072  0.678657  0.123564
    C  C13  0.884455  0.696048  0.686714  0.053542
    C  C14  0.701804  0.740437  0.725601  0.425597
    C  C15  0.770270  0.715098  0.789978  -0.147420
    C  C16  0.955644  0.669630  0.750159  -0.197812
    C  C17  0.063396  0.767301  0.775487  0.553716
    C  C18  0.881258  0.811982  0.814709  -0.051814
    H  H2   0.674301  0.684445  0.822667  0.101550
    H  H3   0.021654  0.599659  0.748402  0.086771
    C  C19  0.490965  0.210008  0.293287  0.366694
    C  C20  0.319477  0.150299  0.249873  -0.186581
    H  H4   0.272377  0.076377  0.248800  0.088252
    C  C21  0.397564  0.176422  0.187716  0.129521
    C  C22  0.571379  0.234162  0.230538  -0.054953
    C  C23  0.442630  0.323701  0.249481  -0.167564
    C  C24  0.269496  0.264695  0.205378  0.075452
    C  C25  0.191574  0.239961  0.268617  -0.068176
    C  C26  0.364516  0.297866  0.311709  0.064332
    H  H5   0.729056  0.229779  0.213968  0.029150
    H  H6   0.490825  0.397648  0.250950  0.072378
    H  H7   0.178278  0.286144  0.166428  0.049735
    H  H8   0.034334  0.244076  0.285637  0.067265
    C  C27  0.369723  0.350681  0.630914  -0.234473
    C  C28  0.370940  0.313512  0.676879  0.085316
    C  C29  0.370272  0.272397  0.732146  0.002707
    C  C30  0.370802  0.237573  0.779384  -0.066146
    C  C31  0.375639  0.195102  0.833901  0.176997
    C  C32  0.386465  0.155629  0.878436  -0.325880
    O  O11  0.217706  0.062693  0.097156  -0.506452
    O  O12  0.578113  0.054740  0.922516  -0.500765
    O  O13  0.752868  0.890721  0.930427  -0.428713
    C  C33  0.411129  0.102731  0.927546  0.769430
    O  O14  0.531596  0.118020  0.071317  -0.489054
    O  O15  0.712790  0.951882  0.075748  -0.503323
    C  C34  0.396033  0.105148  0.116169  0.464280
    O  O16  0.264359  0.103440  0.971761  -0.459850
    O  O17  0.390060  0.935826  0.987672  -0.522044
    V  V3   0.668822  0.011434  0.001465  1.312381
    O  O18  0.019323  0.890835  0.026798  -0.489425
    C  C35  0.890023  0.913515  0.079458  0.667648
    O  O19  0.071907  0.932936  0.898718  -0.529178
    C  C36  0.902182  0.882998  0.886053  0.574852
    V  V4   0.167655  0.989722  0.997142  1.361031
    O  O20  0.896744  0.065686  0.012970  -0.546215
    F  F1   0.730334  0.924070  0.753007  -0.226902
    F  F2   0.510593  0.726110  0.696769  -0.291204
    F  F3   0.254551  0.782560  0.804365  -0.329274
    F  F4   0.604957  0.183114  0.341669  -0.274126
