# Generated by REPEAT Assigner based on pymatgen
data_DB0-m3_o50_o22_f0_fsc.sym.1_sqe
_audit_creation_date              2022-05-24
_audit_creation_method            REPEAT_Assigner
_cell_length_a                    8.526921
_cell_length_b                    9.137155
_cell_length_c                    11.143749
_cell_angle_alpha                 90.000000
_cell_angle_beta                  106.927716
_cell_angle_gamma                 90.000000
_cell_volume                      830.611622
_symmetry_space_group_name_H-M    P1
_symmetry_Int_Tables_number       1
loop_
    _symmetry_equiv_pos_site_id
    _symmetry_equiv_pos_as_xyz
    1  x,y,z
loop_
    _atom_site_type_symbol
    _atom_site_label
    _atom_site_fract_x
    _atom_site_fract_y
    _atom_site_fract_z
    _atom_type_partial_charge
    C   C1   0.425513  0.030769  0.312084  -0.177879
    C   C2   0.261815  0.009485  0.252716  -0.132030
    C   C3   0.207322  0.976854  0.126717  0.114890
    C   C4   0.323293  0.938461  0.067263  -0.053963
    H   H1   0.285127  0.899156  0.971709  0.081620
    C   C5   0.489389  0.940008  0.133053  -0.204233
    C   C6   0.541222  0.995343  0.253813  -0.007377
    C   C7   0.029058  0.982239  0.061013  -0.207536
    C   C8   0.971026  0.018358  0.939610  -0.184339
    H   H2   0.943134  0.963459  0.114252  0.127296
    H   H3   0.056926  0.037138  0.886356  0.122990
    C   C9   0.738425  0.990519  0.747931  -0.147734
    C   C10  0.574813  0.968896  0.688550  -0.136542
    C   C11  0.458971  0.004494  0.746625  -0.047691
    C   C12  0.510611  0.060163  0.867281  -0.159844
    C   C13  0.676674  0.061922  0.933172  -0.074225
    H   H4   0.714699  0.101430  0.028665  0.082096
    C   C14  0.792777  0.023515  0.873854  0.122083
    H   H5   0.464034  0.063007  0.409341  0.131258
    H   H6   0.578141  0.899072  0.089405  0.123378
    H   H7   0.536436  0.936439  0.591347  0.124198
    H   H8   0.421742  0.101213  0.910774  0.114241
    O   O1   0.115497  0.129923  0.373060  -0.753632
    O   O2   0.118423  0.875748  0.368160  -0.738547
    C   C15  0.152851  0.005201  0.330475  0.938250
    O   O3   0.219951  0.876443  0.626260  -0.737569
    O   O4   0.215067  0.127853  0.632047  -0.725834
    C   C16  0.286561  0.002461  0.670034  0.837749
    O   O5   0.884163  0.869661  0.627386  -0.728903
    O   O6   0.882237  0.124663  0.632972  -0.715046
    C   C17  0.847350  0.994783  0.670171  0.895214
    O   O7   0.779843  0.122876  0.375082  -0.752631
    O   O8   0.785290  0.872562  0.368484  -0.736752
    C   C18  0.713779  0.997471  0.330128  0.849276
    Zn  Zn1  0.002485  0.833123  0.497871  0.998618
    Zn  Zn2  0.997640  0.166806  0.502419  1.000157
    C   C19  0.019678  0.584809  0.624991  -0.019613
    C   C20  0.049185  0.420987  0.629883  -0.011837
    H   H9   0.905037  0.604698  0.650166  0.023647
    H   H10  0.981776  0.371411  0.690837  0.025896
    H   H11  0.122772  0.639443  0.694650  0.032600
    H   H12  0.182082  0.400214  0.671248  0.010803
    H   H13  0.744289  0.637430  0.444105  0.075743
    H   H14  0.748314  0.401198  0.496221  0.035190
    C   C21  0.848020  0.584371  0.419947  -0.091261
    C   C22  0.834182  0.421459  0.440002  -0.063771
    C   C23  0.134196  0.575696  0.457174  -0.038255
    C   C24  0.107717  0.412534  0.438363  -0.086840
    N   N1   0.003375  0.640244  0.499294  0.291222
    N   N2   0.994113  0.359653  0.503935  0.288828
    H   H15  0.135190  0.621090  0.365509  0.041757
    H   H16  0.056796  0.391705  0.336352  0.045906
    H   H17  0.253999  0.596697  0.527647  0.025607
    H   H18  0.228278  0.357650  0.474844  0.077165
    H   H19  0.838754  0.604870  0.320012  0.041141
    H   H20  0.784540  0.373597  0.345403  0.055064
