# generated using pymatgen
data_ZnH10C17NO5
_symmetry_space_group_name_H-M   'P 1'
_cell_length_a   13.02245200
_cell_length_b   13.43383700
_cell_length_c   8.51094000
_cell_angle_alpha   90.00000000
_cell_angle_beta   93.37872200
_cell_angle_gamma   90.00000000
_symmetry_Int_Tables_number   1
_chemical_formula_structural   ZnH10C17NO5
_chemical_formula_sum   'Zn2 H20 C34 N2 O10'
_cell_volume   1486.32852981
_cell_formula_units_Z   2
loop_
 _symmetry_equiv_pos_site_id
 _symmetry_equiv_pos_as_xyz
  1  'x, y, z'
loop_
 _atom_site_type_symbol
 _atom_site_label
 _atom_site_symmetry_multiplicity
 _atom_site_fract_x
 _atom_site_fract_y
 _atom_site_fract_z
 _atom_site_occupancy
  Zn  Zn1  1  0.49995600  0.09530400  0.49998700  1
  Zn  Zn2  1  0.49996400  0.86988300  0.49999700  1
  H  H1  1  0.99527400  0.04488500  0.17804900  1
  H  H2  1  0.00422900  0.04143200  0.82249400  1
  H  H3  1  0.83870100  0.03377400  0.28453900  1
  H  H4  1  0.16104900  0.03351200  0.71552600  1
  H  H5  1  0.58458400  0.92412800  0.00484100  1
  H  H6  1  0.41535900  0.92414200  0.99508800  1
  H  H7  1  0.66016100  0.73075700  0.54992400  1
  H  H8  1  0.33940400  0.23442100  0.51699800  1
  H  H9  1  0.33976800  0.73076100  0.45008900  1
  H  H10  1  0.66050900  0.23441600  0.48297200  1
  H  H11  1  0.69028600  0.51049900  0.69413600  1
  H  H12  1  0.24483000  0.38917100  0.49038900  1
  H  H13  1  0.30964000  0.51050900  0.30586300  1
  H  H14  1  0.75508900  0.38916300  0.50960500  1
  H  H15  1  0.30778900  0.45467800  0.65490900  1
  H  H16  1  0.75491600  0.57601100  0.54270200  1
  H  H17  1  0.69213600  0.45467600  0.34508700  1
  H  H18  1  0.24500900  0.57601800  0.45730000  1
  H  H19  1  0.80176100  0.07033900  0.63441100  1
  H  H20  1  0.19801600  0.07003400  0.36566400  1
  C  C1  1  0.70363900  0.98276800  0.15779200  1
  C  C2  1  0.29626700  0.98277200  0.84220100  1
  C  C3  1  0.80205600  0.02015600  0.16926700  1
  C  C4  1  0.19778800  0.02003400  0.83077900  1
  C  C5  1  0.85405700  0.03833900  0.03473700  1
  C  C6  1  0.14580600  0.03825100  0.96533400  1
  C  C7  1  0.79870300  0.03423400  0.88913900  1
  C  C8  1  0.20127900  0.03425400  0.11088600  1
  C  C9  1  0.70503900  0.98483700  0.87859500  1
  C  C10  1  0.29490600  0.98481100  0.12137100  1
  C  C11  1  0.66079300  0.95513800  0.01337300  1
  C  C12  1  0.33914100  0.95513000  0.98658700  1
  C  C13  1  0.96680200  0.05263400  0.05780300  1
  C  C14  1  0.03289700  0.05164000  0.94225100  1
  C  C15  1  0.63887900  0.98228800  0.29226600  1
  C  C16  1  0.36102000  0.98229600  0.70770300  1
  C  C17  1  0.36024100  0.98301700  0.26669800  1
  C  C18  1  0.63970200  0.98303100  0.73326400  1
  C  C19  1  0.41053100  0.68983400  0.47280000  1
  C  C20  1  0.58958200  0.27534900  0.49114700  1
  C  C21  1  0.58939600  0.68983200  0.52721400  1
  C  C22  1  0.41033200  0.27535100  0.50882400  1
  C  C23  1  0.59049300  0.58711100  0.52809300  1
  C  C24  1  0.40922800  0.37807100  0.50949000  1
  C  C25  1  0.40943200  0.58711400  0.47191500  1
  C  C26  1  0.59069000  0.37806800  0.49049600  1
  C  C27  1  0.49996200  0.53635800  0.50000200  1
  C  C28  1  0.49996100  0.42882400  0.49999600  1
  C  C29  1  0.68689500  0.53018800  0.56739500  1
  C  C30  1  0.31251600  0.43499300  0.52899900  1
  C  C31  1  0.31302900  0.53019400  0.43260500  1
  C  C32  1  0.68740500  0.43498900  0.47099600  1
  C  C33  1  0.82904700  0.09140200  0.75249300  1
  C  C34  1  0.17131600  0.09160800  0.24754700  1
  N  N1  1  0.49996400  0.73935700  0.50000800  1
  N  N2  1  0.49995600  0.22582900  0.49998200  1
  O  O1  1  0.60582200  0.89590800  0.34195700  1
  O  O2  1  0.39420400  0.06897900  0.65819600  1
  O  O3  1  0.39410200  0.89591900  0.65803000  1
  O  O4  1  0.60570500  0.06897300  0.34177800  1
  O  O5  1  0.39359800  0.06811500  0.32289400  1
  O  O6  1  0.60593800  0.89734200  0.67798000  1
  O  O7  1  0.60631400  0.06812200  0.67708100  1
  O  O8  1  0.39399600  0.89733100  0.32200200  1
  O  O9  1  0.87878100  0.16781400  0.77196900  1
  O  O10  1  0.12291800  0.16881400  0.22809900  1
