# generated using pymatgen
data_ZnH22C26N6O7
_symmetry_space_group_name_H-M   'P 1'
_cell_length_a   15.90656500
_cell_length_b   17.13936200
_cell_length_c   17.48707000
_cell_angle_alpha   90.23431200
_cell_angle_beta   91.05925900
_cell_angle_gamma   89.12188900
_symmetry_Int_Tables_number   1
_chemical_formula_structural   ZnH22C26N6O7
_chemical_formula_sum   'Zn2 H44 C52 N12 O14'
_cell_volume   4766.06243833
_cell_formula_units_Z   2
loop_
 _symmetry_equiv_pos_site_id
 _symmetry_equiv_pos_as_xyz
  1  'x, y, z'
loop_
 _atom_site_type_symbol
 _atom_site_label
 _atom_site_symmetry_multiplicity
 _atom_site_fract_x
 _atom_site_fract_y
 _atom_site_fract_z
 _atom_site_occupancy
  Zn  Zn1  1  0.58406900  0.50247400  0.50321700  1
  Zn  Zn2  1  0.39377700  0.49346000  0.50966200  1
  H  H1  1  0.37000000  0.48583200  0.75342800  1
  H  H2  1  0.60646200  0.51602900  0.25910400  1
  H  H3  1  0.34164500  0.47737500  0.26661200  1
  H  H4  1  0.63720900  0.50923000  0.74680500  1
  H  H5  1  0.39374100  0.51553600  0.00795400  1
  H  H6  1  0.58245100  0.47704600  0.00555700  1
  H  H7  1  0.64407800  0.50479300  0.88556900  1
  H  H8  1  0.33391500  0.48107700  0.12785800  1
  H  H9  1  0.59856700  0.52105500  0.12197200  1
  H  H10  1  0.37692300  0.47949300  0.89020600  1
  H  H11  1  0.57650800  0.89381400  0.56606700  1
  H  H12  1  0.38961600  0.10338000  0.45727900  1
  H  H13  1  0.62891600  0.11033700  0.57199900  1
  H  H14  1  0.34690300  0.88310800  0.43548000  1
  H  H15  1  0.72904500  0.44793800  0.60165600  1
  H  H16  1  0.24955100  0.56432400  0.42226100  1
  H  H17  1  0.88030800  0.45297500  0.59707900  1
  H  H18  1  0.09815000  0.56255600  0.42810900  1
  H  H19  1  0.27342800  0.41017700  0.60768700  1
  H  H20  1  0.70402400  0.57144600  0.39531000  1
  H  H21  1  0.14350100  0.34401900  0.64531100  1
  H  H22  1  0.07986000  0.33031700  0.76065500  1
  H  H23  1  0.00350300  0.40514600  0.78437800  1
  H  H24  1  0.11258400  0.41652100  0.81258900  1
  H  H25  1  0.83074100  0.58258700  0.31969200  1
  H  H26  1  0.89893200  0.68246700  0.26261000  1
  H  H27  1  0.98345900  0.72493900  0.31820300  1
  H  H28  1  0.87793400  0.76483900  0.32478800  1
  H  H29  1  0.60473300  0.76168100  0.63682900  1
  H  H30  1  0.75453500  0.68015100  0.61888600  1
  H  H31  1  0.75956900  0.78515200  0.63069800  1
  H  H32  1  0.80758400  0.73855100  0.54916500  1
  H  H33  1  0.31321700  0.22598300  0.44482200  1
  H  H34  1  0.27478400  0.33936200  0.33672300  1
  H  H35  1  0.27555200  0.23865700  0.30459500  1
  H  H36  1  0.33862200  0.30987500  0.25668900  1
  H  H37  1  0.65732300  0.24981600  0.62774800  1
  H  H38  1  0.79501300  0.28493100  0.62014800  1
  H  H39  1  0.83041500  0.31289900  0.52674500  1
  H  H40  1  0.83320900  0.21151500  0.55408500  1
  H  H41  1  0.28062500  0.75368000  0.43214800  1
  H  H42  1  0.23013500  0.69136100  0.32617900  1
  H  H43  1  0.30383000  0.62702000  0.27932700  1
  H  H44  1  0.29431400  0.72785400  0.25023900  1
  C  C1  1  0.50038500  0.34508000  0.50733000  1
  C  C2  1  0.47750300  0.65075600  0.50515800  1
  C  C3  1  0.49827900  0.49980700  0.65611500  1
  C  C4  1  0.47953700  0.49586900  0.35679000  1
  C  C5  1  0.50296100  0.49875800  0.73992200  1
  C  C6  1  0.47474500  0.49589800  0.27301300  1
  C  C7  1  0.43067000  0.49097700  0.78166200  1
  C  C8  1  0.54625900  0.50719700  0.23102600  1
  C  C9  1  0.43472800  0.48823400  0.86041800  1
  C  C10  1  0.54174200  0.50917200  0.15224300  1
  C  C11  1  0.51145300  0.49396800  0.89875400  1
  C  C12  1  0.46542100  0.49913800  0.11426600  1
  C  C13  1  0.58359300  0.50095700  0.85671900  1
  C  C14  1  0.39408300  0.48836700  0.15651700  1
  C  C15  1  0.57958400  0.50358600  0.77794300  1
  C  C16  1  0.39858400  0.48628900  0.23526100  1
  C  C17  1  0.52025400  0.49028300  0.98282000  1
  C  C18  1  0.45615300  0.50270100  0.03030600  1
  C  C19  1  0.50581000  0.25898800  0.50709300  1
  C  C20  1  0.47173900  0.73659600  0.50248000  1
  C  C21  1  0.44033000  0.21510800  0.47612900  1
  C  C22  1  0.53340100  0.78144000  0.53778000  1
  C  C23  1  0.44210000  0.13471500  0.48181400  1
  C  C24  1  0.52751100  0.86186400  0.53660800  1
  C  C25  1  0.51003000  0.09679400  0.51669300  1
  C  C26  1  0.46052100  0.89875000  0.49916700  1
  C  C27  1  0.57566800  0.13999800  0.54524800  1
  C  C28  1  0.39903900  0.85433100  0.46484300  1
  C  C29  1  0.57475000  0.22020900  0.53997700  1
  C  C30  1  0.40440000  0.77395400  0.46542200  1
  C  C31  1  0.22037400  0.52906300  0.46510700  1
  C  C32  1  0.75779900  0.47715100  0.55437700  1
  C  C33  1  0.13391200  0.52784100  0.46907400  1
  C  C34  1  0.84424500  0.48017700  0.55116900  1
  C  C35  1  0.09659300  0.48364400  0.52499400  1
  C  C36  1  0.88128900  0.51649700  0.48989800  1
  C  C37  1  0.14746700  0.44185300  0.57550500  1
  C  C38  1  0.83014700  0.55108900  0.43455500  1
  C  C39  1  0.23363000  0.44321000  0.56844500  1
  C  C40  1  0.74397800  0.54570800  0.43934700  1
  C  C41  1  0.08509900  0.43538500  0.69419300  1
  C  C42  1  0.06944700  0.39406900  0.76737000  1
  C  C43  1  0.89933600  0.65703700  0.38298900  1
  C  C44  1  0.91574800  0.71044400  0.31797000  1
  C  C45  1  0.67383000  0.74597500  0.54389300  1
  C  C46  1  0.75393100  0.73688300  0.58856800  1
  C  C47  1  0.38582000  0.27410700  0.36609100  1
  C  C48  1  0.31407700  0.29154900  0.31266700  1
  C  C49  1  0.71132500  0.25764400  0.52604500  1
  C  C50  1  0.79765000  0.26739500  0.55912700  1
  C  C51  1  0.36043300  0.70871500  0.35590000  1
  C  C52  1  0.29283200  0.68755800  0.29962500  1
  N  N1  1  0.51549700  0.01456900  0.52269800  1
  N  N2  1  0.45368500  0.98099500  0.49402000  1
  N  N3  1  0.26860600  0.48714900  0.51435300  1
  N  N4  1  0.70925000  0.50900500  0.49858100  1
  N  N5  1  0.00824700  0.48028900  0.53206900  1
  N  N6  1  0.96960100  0.51834400  0.48190700  1
  N  N7  1  0.11181700  0.39520100  0.63238700  1
  N  N8  1  0.86521600  0.58638800  0.36989200  1
  N  N9  1  0.59974700  0.74587500  0.58011700  1
  N  N10  1  0.37090000  0.25125000  0.43832600  1
  N  N11  1  0.64345500  0.26131500  0.57117700  1
  N  N12  1  0.34072000  0.73134100  0.42752500  1
  O  O1  1  0.56992200  0.38521300  0.50474500  1
  O  O2  1  0.40795400  0.61071500  0.50786200  1
  O  O3  1  0.42567100  0.37858300  0.50971200  1
  O  O4  1  0.55212300  0.61731000  0.50312500  1
  O  O5  1  0.56834500  0.50284600  0.61793600  1
  O  O6  1  0.40944700  0.49288700  0.39494600  1
  O  O7  1  0.42404400  0.49614400  0.62264700  1
  O  O8  1  0.55381400  0.49980300  0.39021600  1
  O  O9  1  0.07449000  0.50590800  0.69095200  1
  O  O10  1  0.91644600  0.67805500  0.44802900  1
  O  O11  1  0.67537500  0.75256700  0.47453200  1
  O  O12  1  0.45770600  0.28051600  0.34418600  1
  O  O13  1  0.70235900  0.24516400  0.45770700  1
  O  O14  1  0.43365500  0.70608000  0.33649400  1
