data_DB0-m3_o12_o29_f0_pcu.sym.26_repeat
_audit_creation_date              2024-02-23
_audit_creation_method            'Materials Studio'
_symmetry_space_group_name_H-M    'P1'
_symmetry_Int_Tables_number       1
_symmetry_cell_setting            triclinic
loop_
_symmetry_equiv_pos_as_xyz
  x,y,z
_cell_length_a                    9.9787
_cell_length_b                    11.2528
_cell_length_c                    27.6915
_cell_angle_alpha                 89.9774
_cell_angle_beta                  80.8191
_cell_angle_gamma                 92.4391
loop_
_atom_site_label
_atom_site_type_symbol
_atom_site_fract_x
_atom_site_fract_y
_atom_site_fract_z
_atom_site_U_iso_or_equiv
_atom_site_adp_type
_atom_site_occupancy
O1     O     0.42456   0.69040   0.50453   0.00000  Uiso   1.00
O2     O     0.57505   0.30918   0.49575   0.00000  Uiso   1.00
O3     O     0.65443   0.65940   0.48914   0.00000  Uiso   1.00
O4     O     0.34518   0.34017   0.51104   0.00000  Uiso   1.00
C1     C     0.55175   0.72976   0.49587   0.00000  Uiso   1.00
C2     C     0.44786   0.26981   0.50437   0.00000  Uiso   1.00
O5     O     0.38902   0.51705   0.57939   0.00000  Uiso   1.00
O6     O     0.61044   0.48238   0.42084   0.00000  Uiso   1.00
O7     O     0.61869   0.48634   0.56426   0.00000  Uiso   1.00
O8     O     0.38105   0.51335   0.43595   0.00000  Uiso   1.00
C3     C     0.50564   0.50294   0.59447   0.00000  Uiso   1.00
C4     C     0.49393   0.49674   0.40568   0.00000  Uiso   1.00
Zn1    Zn    0.34833   0.52031   0.50999   0.00000  Uiso   1.00
Zn2    Zn    0.65127   0.47926   0.49022   0.00000  Uiso   1.00
C5     C     0.53878   0.60166   0.82208   0.00000  Uiso   1.00
C6     C     0.44601   0.40241   0.17871   0.00000  Uiso   1.00
O9     O     0.57443   0.70140   0.79559   0.00000  Uiso   1.00
O10    O     0.39418   0.30773   0.20612   0.00000  Uiso   1.00
N1     N     0.50052   0.50229   0.79983   0.00000  Uiso   1.00
N2     N     0.50048   0.49641   0.20001   0.00000  Uiso   1.00
C7     C     0.46125   0.40241   0.82603   0.00000  Uiso   1.00
C8     C     0.55591   0.59070   0.17282   0.00000  Uiso   1.00
C9     C     0.38462   0.48217   0.72913   0.00000  Uiso   1.00
C10    C     0.61709   0.50412   0.27085   0.00000  Uiso   1.00
C11    C     0.38696   0.48345   0.67925   0.00000  Uiso   1.00
C12    C     0.61415   0.50343   0.32077   0.00000  Uiso   1.00
C13    C     0.62717   0.52583   0.66678   0.00000  Uiso   1.00
C14    C     0.37108   0.48682   0.33311   0.00000  Uiso   1.00
C15    C     0.62375   0.52437   0.71694   0.00000  Uiso   1.00
C16    C     0.37525   0.48826   0.28292   0.00000  Uiso   1.00
C17    C     0.50293   0.50259   0.74815   0.00000  Uiso   1.00
C18    C     0.49772   0.49662   0.25173   0.00000  Uiso   1.00
C19    C     0.49965   0.50094   0.89950   0.00000  Uiso   1.00
C20    C     0.50119   0.49751   0.10032   0.00000  Uiso   1.00
C21    C     0.53926   0.60201   0.87203   0.00000  Uiso   1.00
C22    C     0.44575   0.40190   0.12874   0.00000  Uiso   1.00
C23    C     0.57758   0.70362   0.89466   0.00000  Uiso   1.00
C24    C     0.38891   0.30647   0.10723   0.00000  Uiso   1.00
C25    C     0.45996   0.40069   0.87609   0.00000  Uiso   1.00
C26    C     0.55680   0.59236   0.12278   0.00000  Uiso   1.00
C27    C     0.50779   0.50427   0.64756   0.00000  Uiso   1.00
C28    C     0.49176   0.49539   0.35249   0.00000  Uiso   1.00
H1     H     0.71583   0.54047   0.73232   0.00000  Uiso   1.00
H2     H     0.28225   0.48248   0.26749   0.00000  Uiso   1.00
H3     H     0.60623   0.78516   0.87430   0.00000  Uiso   1.00
H4     H     0.34205   0.23114   0.12867   0.00000  Uiso   1.00
C29    C     0.55259   0.59775   0.02239   0.00000  Uiso   1.00
C30    C     0.45516   0.39828   0.97701   0.00000  Uiso   1.00
C31    C     0.44864   0.39976   0.02793   0.00000  Uiso   1.00
C32    C     0.54503   0.60104   0.97232   0.00000  Uiso   1.00
C33    C     0.50085   0.49833   0.05006   0.00000  Uiso   1.00
C34    C     0.49990   0.50009   0.94977   0.00000  Uiso   1.00
C35    C     0.61204   0.69127   0.04566   0.00000  Uiso   1.00
C36    C     0.41916   0.29680   0.95233   0.00000  Uiso   1.00
C37    C     0.61364   0.68845   0.09511   0.00000  Uiso   1.00
C38    C     0.42143   0.29837   0.90265   0.00000  Uiso   1.00
O11    O     0.60726   0.68484   0.19472   0.00000  Uiso   1.00
O12    O     0.42611   0.30336   0.80311   0.00000  Uiso   1.00
C39    C     0.58030   0.70353   0.94405   0.00000  Uiso   1.00
C40    C     0.38988   0.30524   0.05763   0.00000  Uiso   1.00
H5     H     0.70960   0.51029   0.33450   0.00000  Uiso   1.00
H6     H     0.29276   0.46625   0.66541   0.00000  Uiso   1.00
H7     H     0.71377   0.50956   0.24676   0.00000  Uiso   1.00
H8     H     0.28920   0.46608   0.75329   0.00000  Uiso   1.00
H9     H     0.66071   0.76317   0.11146   0.00000  Uiso   1.00
H10    H     0.39256   0.21748   0.88521   0.00000  Uiso   1.00
H11    H     0.66272   0.76805   0.02677   0.00000  Uiso   1.00
H12    H     0.39198   0.21200   0.96979   0.00000  Uiso   1.00
H13    H     0.60737   0.78782   0.95883   0.00000  Uiso   1.00
H14    H     0.33913   0.22889   0.04429   0.00000  Uiso   1.00
H15    H     0.62240   0.09465   0.49152   0.00000  Uiso   1.00
H16    H     0.37723   0.90492   0.50876   0.00000  Uiso   1.00
C41    C     0.58177   0.85848   0.49379   0.00000  Uiso   1.00
C42    C     0.41784   0.14109   0.50645   0.00000  Uiso   1.00
C43    C     0.48290   0.93566   0.50116   0.00000  Uiso   1.00
C44    C     0.51673   0.06391   0.49911   0.00000  Uiso   1.00
H17    H     0.31272   0.10860   0.51388   0.00000  Uiso   1.00
H18    H     0.68690   0.89096   0.48635   0.00000  Uiso   1.00
H19    H     0.11736   0.42673   0.47017   0.00000  Uiso   1.00
H20    H     0.88215   0.57242   0.53018   0.00000  Uiso   1.00
N3     N     0.85051   0.45182   0.47745   0.00000  Uiso   1.00
N4     N     0.14909   0.54774   0.52273   0.00000  Uiso   1.00
C45    C     0.92656   0.50934   0.50337   0.00000  Uiso   1.00
C46    C     0.07298   0.49000   0.49689   0.00000  Uiso   1.00
H21    H     0.10135   0.60729   0.54715   0.00000  Uiso   1.00
H22    H     0.89829   0.39246   0.45295   0.00000  Uiso   1.00
N5     N     0.75274   0.55367   0.63555   0.00000  Uiso   1.00
H23    H     0.74553   0.63743   0.62015   0.00000  Uiso   1.00
H24    H     0.83055   0.56005   0.65662   0.00000  Uiso   1.00
N6     N     0.24264   0.47300   0.36414   0.00000  Uiso   1.00
H25    H     0.23596   0.38749   0.37926   0.00000  Uiso   1.00
H26    H     0.16546   0.47815   0.34297   0.00000  Uiso   1.00
