# Generated by REPEAT Assigner based on pymatgen
data_DB0-m2_o2_o12_f0_pcu.sym.7
_audit_creation_date              2022-05-24
_audit_creation_method            REPEAT_Assigner
_cell_length_a                    11.160400
_cell_length_b                    15.130866
_cell_length_c                    13.679251
_cell_angle_alpha                 89.996767
_cell_angle_beta                  102.216642
_cell_angle_gamma                 89.993473
_cell_volume                      2257.657173
_symmetry_space_group_name_H-M    P1
_symmetry_Int_Tables_number       1
loop_
    _symmetry_equiv_pos_site_id
    _symmetry_equiv_pos_as_xyz
    1  x,y,z
loop_
    _atom_site_type_symbol
    _atom_site_label
    _atom_site_fract_x
    _atom_site_fract_y
    _atom_site_fract_z
    _atom_type_partial_charge
    O   O1   0.483190  0.369951  0.575291  -0.610707
    O   O2   0.487630  0.630697  0.415789  -0.641704
    O   O3   0.489050  0.373910  0.408365  -0.530134
    O   O4   0.482202  0.626718  0.582642  -0.518870
    C   C1   0.487070  0.330363  0.490799  0.690098
    C   C2   0.484795  0.670506  0.500398  0.706258
    O   O5   0.308826  0.500888  0.551985  -0.641274
    O   O6   0.661982  0.499570  0.439556  -0.624967
    O   O7   0.305844  0.498713  0.383330  -0.641392
    O   O8   0.665083  0.501726  0.608062  -0.686415
    C   C3   0.250080  0.499332  0.458453  0.811134
    C   C4   0.720754  0.500545  0.532908  0.846516
    Cu  Cu1  0.487107  0.498078  0.593632  0.912546
    Cu  Cu2  0.484008  0.502432  0.397642  0.825605
    H   H1   0.871911  0.498834  0.404395  0.132211
    H   H2   0.098770  0.503080  0.586200  0.114763
    C   C5   0.115810  0.498344  0.435693  -0.402591
    C   C6   0.855004  0.500620  0.555000  -0.374068
    C   C7   0.052508  0.500487  0.508130  0.036526
    C   C8   0.918145  0.499813  0.482419  -0.038988
    H   H3   0.903790  0.501317  0.632375  0.170041
    H   H4   0.067233  0.495771  0.358076  0.177074
    C   C9   0.428498  0.096689  0.554529  -0.191322
    C   C10  0.462521  0.903985  0.409758  -0.236282
    H   H5   0.377447  0.062991  0.602250  0.107120
    H   H6   0.439309  0.937348  0.338427  0.119621
    C   C11  0.430003  0.187758  0.554035  -0.144839
    C   C12  0.463112  0.813034  0.411781  -0.062930
    H   H7   0.382517  0.223207  0.602957  0.143290
    H   H8   0.443092  0.777803  0.341491  0.118043
    C   C13  0.487393  0.233224  0.489344  -0.152613
    C   C14  0.484841  0.768004  0.501766  -0.160742
    C   C15  0.545642  0.186029  0.425773  0.226953
    C   C16  0.507917  0.816063  0.590517  0.121014
    C   C17  0.552069  0.094542  0.431947  0.194510
    C   C18  0.517374  0.907251  0.588089  0.240321
    C   C19  0.490737  0.049257  0.494662  0.018563
    C   C20  0.490611  0.951941  0.497578  0.041696
    C   C21  0.583514  0.533282  0.118866  -0.197929
    C   C22  0.426181  0.431497  0.879365  -0.211728
    H   H9   0.665885  0.555769  0.097046  0.115611
    H   H10  0.379134  0.378438  0.907891  0.116981
    C   C23  0.579308  0.536595  0.218843  0.002195
    C   C24  0.426297  0.432745  0.778367  0.021197
    H   H11  0.656581  0.564263  0.271179  0.122037
    H   H12  0.374923  0.383204  0.729680  0.128825
    N   N1   0.480521  0.506114  0.250813  0.023801
    N   N2   0.490315  0.494682  0.740394  -0.124545
    C   C25  0.385372  0.471467  0.184907  -0.025350
    C   C26  0.549916  0.558627  0.799722  0.182398
    H   H13  0.307404  0.445563  0.210256  0.121371
    H   H14  0.598257  0.609642  0.769064  0.056554
    C   C27  0.385094  0.469228  0.083990  -0.194079
    C   C28  0.549450  0.560575  0.900241  -0.269783
    H   H15  0.304618  0.444298  0.033051  0.122851
    H   H16  0.596214  0.614267  0.944963  0.136906
    C   C29  0.485792  0.499086  0.049619  0.134613
    C   C30  0.487862  0.496305  0.941902  0.141862
    O   O9   0.606053  0.229148  0.362513  -0.298215
    C   C31  0.528404  0.223945  0.267970  0.084879
    H   H17  0.432688  0.212032  0.275514  -0.009009
    H   H18  0.558464  0.169542  0.224372  0.007994
    H   H19  0.531761  0.287187  0.227741  0.051277
    O   O10  0.527759  0.774318  0.681308  -0.235208
    C   C32  0.416826  0.780990  0.712944  0.113386
    H   H20  0.341136  0.797166  0.648767  -0.002511
    H   H21  0.423885  0.833146  0.770827  -0.000447
    H   H22  0.395927  0.717045  0.745048  0.019593
    O   O11  0.619140  0.049213  0.375294  -0.244928
    C   C33  0.739144  0.047418  0.431802  0.072740
    H   H23  0.742716  0.074669  0.507587  0.006718
    H   H24  0.799045  0.087439  0.393873  0.026907
    H   H25  0.772530  0.978210  0.439033  0.031979
    O   O12  0.551761  0.952859  0.676081  -0.261060
    C   C34  0.679968  0.953713  0.697357  0.068629
    H   H26  0.715432  0.926561  0.633596  0.008447
    H   H27  0.714978  0.913115  0.764910  0.019002
    H   H28  0.712936  0.022694  0.711210  0.041968
