# Generated by REPEAT Assigner based on pymatgen
data_DB0-m2_o7_o28_f0_nbo.sym.24_sqe
_audit_creation_date              2022-05-24
_audit_creation_method            REPEAT_Assigner
_cell_length_a                    35.255467
_cell_length_b                    35.255467
_cell_length_c                    46.590864
_cell_angle_alpha                 90.000000
_cell_angle_beta                  90.000000
_cell_angle_gamma                 90.000000
_cell_volume                      57910.018931
_symmetry_space_group_name_H-M    P1
_symmetry_Int_Tables_number       1
loop_
    _symmetry_equiv_pos_site_id
    _symmetry_equiv_pos_as_xyz
    1  x,y,z
loop_
    _atom_site_type_symbol
    _atom_site_label
    _atom_site_fract_x
    _atom_site_fract_y
    _atom_site_fract_z
    _atom_type_partial_charge
    O   O1    0.554170  0.968680  0.992234  -0.589731
    O   O2    0.031320  0.554170  0.992234  -0.589814
    O   O3    0.445830  0.031320  0.992234  -0.589779
    O   O4    0.968680  0.445830  0.992234  -0.589746
    O   O5    0.554170  0.031320  0.007766  -0.589972
    O   O6    0.031320  0.445830  0.007766  -0.590044
    O   O7    0.445830  0.968680  0.007766  -0.589952
    O   O8    0.968680  0.554170  0.007766  -0.589939
    O   O9    0.054170  0.468680  0.492234  -0.589764
    O   O10   0.531320  0.054170  0.492234  -0.589768
    O   O11   0.945830  0.531320  0.492234  -0.589730
    O   O12   0.468680  0.945830  0.492234  -0.589721
    O   O13   0.054170  0.531320  0.507766  -0.589960
    O   O14   0.531320  0.945830  0.507766  -0.590063
    O   O15   0.945830  0.468680  0.507766  -0.590061
    O   O16   0.468680  0.054170  0.507766  -0.589954
    C   C1    0.572000  0.000000  0.000000  0.645359
    C   C2    0.000000  0.572000  0.000000  0.645397
    C   C3    0.428000  0.000000  0.000000  0.645387
    C   C4    0.000000  0.428000  0.000000  0.645451
    C   C5    0.072000  0.500000  0.500000  0.645292
    C   C6    0.500000  0.072000  0.500000  0.645286
    C   C7    0.928000  0.500000  0.500000  0.645483
    C   C8    0.500000  0.928000  0.500000  0.645474
    O   O17   0.489747  0.968677  0.959032  -0.582395
    O   O18   0.031323  0.489747  0.959032  -0.582329
    O   O19   0.510253  0.031323  0.959032  -0.582406
    O   O20   0.968677  0.510253  0.959032  -0.582435
    O   O21   0.489747  0.031323  0.040968  -0.582328
    O   O22   0.031323  0.510253  0.040968  -0.582249
    O   O23   0.510253  0.968677  0.040968  -0.582320
    O   O24   0.968677  0.489747  0.040968  -0.582334
    O   O25   0.989747  0.468677  0.459032  -0.582409
    O   O26   0.531323  0.989747  0.459032  -0.582412
    O   O27   0.010253  0.531323  0.459032  -0.582405
    O   O28   0.468677  0.010253  0.459032  -0.582401
    O   O29   0.989747  0.531323  0.540968  -0.582355
    O   O30   0.531323  0.010253  0.540968  -0.582352
    O   O31   0.010253  0.468677  0.540968  -0.582354
    O   O32   0.468677  0.989747  0.540968  -0.582353
    C   C9    0.500000  0.000000  0.945529  0.792897
    C   C10   0.000000  0.500000  0.945529  0.792926
    C   C11   0.500000  0.000000  0.054471  0.793402
    C   C12   0.000000  0.500000  0.054471  0.793280
    C   C13   0.000000  0.500000  0.445529  0.792973
    C   C14   0.500000  0.000000  0.445529  0.792966
    C   C15   0.000000  0.500000  0.554471  0.793486
    C   C16   0.500000  0.000000  0.554471  0.793484
    Cu  Cu1   0.500000  0.962903  0.000000  1.001205
    Cu  Cu2   0.037097  0.500000  0.000000  1.001225
    Cu  Cu3   0.500000  0.037097  0.000000  1.001240
    Cu  Cu4   0.962903  0.500000  0.000000  1.001232
    Cu  Cu5   0.000000  0.462903  0.500000  1.001248
    Cu  Cu6   0.537097  0.000000  0.500000  1.001257
    Cu  Cu7   0.000000  0.537097  0.500000  1.001199
    Cu  Cu8   0.462903  0.000000  0.500000  1.001189
    C   C17   0.522913  0.024088  0.690431  0.481541
    C   C18   0.975912  0.522913  0.690431  0.481527
    C   C19   0.477087  0.975912  0.690431  0.481516
    C   C20   0.024088  0.477087  0.690431  0.481533
    C   C21   0.522913  0.975912  0.309569  0.481970
    C   C22   0.975912  0.477087  0.309569  0.481958
    C   C23   0.477087  0.024088  0.309569  0.481968
    C   C24   0.024088  0.522913  0.309569  0.481978
    C   C25   0.022913  0.524088  0.190431  0.481703
    C   C26   0.475912  0.022913  0.190431  0.481678
    C   C27   0.977087  0.475912  0.190431  0.481692
    C   C28   0.524088  0.977087  0.190431  0.481667
    C   C29   0.022913  0.475912  0.809569  0.481922
    C   C30   0.475912  0.977087  0.809569  0.481931
    C   C31   0.977087  0.524088  0.809569  0.481948
    C   C32   0.524088  0.022913  0.809569  0.481964
    N   N1    0.500000  0.000000  0.676150  -0.078602
    N   N2    0.000000  0.500000  0.676150  -0.078602
    N   N3    0.500000  0.000000  0.323850  -0.079619
    N   N4    0.000000  0.500000  0.323850  -0.079613
    N   N5    0.000000  0.500000  0.176150  -0.078830
    N   N6    0.500000  0.000000  0.176150  -0.078804
    N   N7    0.000000  0.500000  0.823850  -0.079573
    N   N8    0.500000  0.000000  0.823850  -0.079592
    C   C33   0.476303  0.975892  0.720201  -0.209357
    C   C34   0.024108  0.476303  0.720201  -0.209374
    C   C35   0.523697  0.024108  0.720201  -0.209373
    C   C36   0.975892  0.523697  0.720201  -0.209364
    C   C37   0.476302  0.024107  0.279799  -0.208876
    C   C38   0.024107  0.523698  0.279799  -0.208884
    C   C39   0.523698  0.975893  0.279799  -0.208876
    C   C40   0.975893  0.476302  0.279799  -0.208864
    C   C41   0.976303  0.475892  0.220201  -0.209467
    C   C42   0.524108  0.976303  0.220201  -0.209463
    C   C43   0.023697  0.524108  0.220201  -0.209498
    C   C44   0.475892  0.023697  0.220201  -0.209459
    C   C45   0.976302  0.524107  0.779799  -0.208917
    C   C46   0.524107  0.023698  0.779799  -0.208930
    C   C47   0.023698  0.475893  0.779799  -0.208905
    C   C48   0.475893  0.976302  0.779799  -0.208906
    C   C49   0.500000  0.000000  0.735136  0.022010
    C   C50   0.000000  0.500000  0.735136  0.022012
    C   C51   0.500000  0.000000  0.264864  0.021276
    C   C52   0.000000  0.500000  0.264864  0.021272
    C   C53   0.000000  0.500000  0.235136  0.022046
    C   C54   0.500000  0.000000  0.235136  0.022030
    C   C55   0.000000  0.500000  0.764864  0.021360
    C   C56   0.500000  0.000000  0.764864  0.021364
    C   C57   0.452299  0.951941  0.735248  0.286578
    C   C58   0.048059  0.452299  0.735248  0.286585
    C   C59   0.547701  0.048059  0.735248  0.286589
    C   C60   0.951941  0.547701  0.735248  0.286586
    C   C61   0.452298  0.048058  0.264752  0.286218
    C   C62   0.048058  0.547702  0.264752  0.286224
    C   C63   0.547702  0.951942  0.264752  0.286206
    C   C64   0.951942  0.452298  0.264752  0.286209
    C   C65   0.952299  0.451941  0.235248  0.286862
    C   C66   0.548059  0.952299  0.235248  0.286882
    C   C67   0.047701  0.548059  0.235248  0.286880
    C   C68   0.451941  0.047701  0.235248  0.286863
    C   C69   0.952298  0.548058  0.764752  0.286302
    C   C70   0.548058  0.047702  0.764752  0.286308
    C   C71   0.047702  0.451942  0.764752  0.286305
    C   C72   0.451942  0.952298  0.764752  0.286300
    O   O33   0.544316  0.048677  0.675495  -0.456424
    O   O34   0.951323  0.544316  0.675495  -0.456418
    O   O35   0.455684  0.951323  0.675495  -0.456413
    O   O36   0.048677  0.455684  0.675495  -0.456420
    O   O37   0.544317  0.951324  0.324505  -0.456707
    O   O38   0.951324  0.455683  0.324505  -0.456704
    O   O39   0.455683  0.048676  0.324505  -0.456706
    O   O40   0.048676  0.544317  0.324505  -0.456709
    O   O41   0.044316  0.548677  0.175495  -0.456418
    O   O42   0.451323  0.044316  0.175495  -0.456420
    O   O43   0.955684  0.451323  0.175495  -0.456428
    O   O44   0.548677  0.955684  0.175495  -0.456415
    O   O45   0.044317  0.451324  0.824505  -0.456700
    O   O46   0.451324  0.955683  0.824505  -0.456707
    O   O47   0.955683  0.548676  0.824505  -0.456713
    O   O48   0.548676  0.044317  0.824505  -0.456716
    C   C73   0.000000  0.071920  0.000000  0.872116
    C   C74   0.928080  0.000000  0.000000  0.872399
    C   C75   0.000000  0.928080  0.000000  0.872860
    C   C76   0.071920  0.000000  0.000000  0.872699
    C   C77   0.500000  0.571920  0.500000  0.872828
    C   C78   0.428080  0.500000  0.500000  0.872846
    C   C79   0.500000  0.428080  0.500000  0.872839
    C   C80   0.571920  0.500000  0.500000  0.872818
    C   C81   0.493138  0.033098  0.869446  -0.374737
    C   C82   0.966902  0.493138  0.869446  -0.374740
    C   C83   0.506862  0.966902  0.869446  -0.374730
    C   C84   0.033098  0.506862  0.869446  -0.374727
    C   C85   0.493138  0.966902  0.130554  -0.375018
    C   C86   0.966902  0.506862  0.130554  -0.375033
    C   C87   0.506862  0.033098  0.130554  -0.375031
    C   C88   0.033098  0.493138  0.130554  -0.374990
    C   C89   0.993138  0.533098  0.369446  -0.374754
    C   C90   0.466902  0.993138  0.369446  -0.374732
    C   C91   0.006862  0.466902  0.369446  -0.374736
    C   C92   0.533098  0.006862  0.369446  -0.374747
    C   C93   0.993138  0.466902  0.630554  -0.375040
    C   C94   0.466902  0.006862  0.630554  -0.375058
    C   C95   0.006862  0.533098  0.630554  -0.375059
    C   C96   0.533098  0.993138  0.630554  -0.375054
    H   H1    0.487114  0.059090  0.858013  0.203242
    H   H2    0.940910  0.487114  0.858013  0.203240
    H   H3    0.512886  0.940910  0.858013  0.203241
    H   H4    0.059090  0.512886  0.858013  0.203243
    H   H5    0.487115  0.940910  0.141987  0.202814
    H   H6    0.940910  0.512885  0.141987  0.202818
    H   H7    0.512885  0.059090  0.141987  0.202819
    H   H8    0.059090  0.487115  0.141987  0.202816
    H   H9    0.987114  0.559090  0.358013  0.203230
    H   H10   0.440910  0.987114  0.358013  0.203226
    H   H11   0.012886  0.440910  0.358013  0.203226
    H   H12   0.559090  0.012886  0.358013  0.203231
    H   H13   0.987115  0.440910  0.641987  0.202769
    H   H14   0.440910  0.012885  0.641987  0.202772
    H   H15   0.012885  0.559090  0.641987  0.202773
    H   H16   0.559090  0.987115  0.641987  0.202773
    C   C97   0.493467  0.033258  0.899025  0.557766
    C   C98   0.966742  0.493467  0.899025  0.557796
    C   C99   0.506533  0.966742  0.899025  0.557758
    C   C100  0.033258  0.506533  0.899025  0.557783
    C   C101  0.493467  0.966742  0.100975  0.558659
    C   C102  0.966742  0.506533  0.100975  0.558669
    C   C103  0.506533  0.033258  0.100975  0.558676
    C   C104  0.033258  0.493467  0.100975  0.558595
    C   C105  0.993467  0.533258  0.399025  0.557818
    C   C106  0.466742  0.993467  0.399025  0.557792
    C   C107  0.006533  0.466742  0.399025  0.557794
    C   C108  0.533258  0.006533  0.399025  0.557807
    C   C109  0.993467  0.466742  0.600975  0.558714
    C   C110  0.466742  0.006533  0.600975  0.558732
    C   C111  0.006533  0.533258  0.600975  0.558736
    C   C112  0.533258  0.993467  0.600975  0.558724
    C   C113  0.500000  0.000000  0.914038  -0.497472
    C   C114  0.000000  0.500000  0.914038  -0.497519
    C   C115  0.500000  0.000000  0.085962  -0.498827
    C   C116  0.000000  0.500000  0.085962  -0.498751
    C   C117  0.000000  0.500000  0.414038  -0.497562
    C   C118  0.500000  0.000000  0.414038  -0.497547
    C   C119  0.000000  0.500000  0.585962  -0.498945
    C   C120  0.500000  0.000000  0.585962  -0.498945
    C   C121  0.500000  0.000000  0.854505  0.167684
    C   C122  0.000000  0.500000  0.854505  0.167667
    C   C123  0.500000  0.000000  0.145495  0.167989
    C   C124  0.000000  0.500000  0.145495  0.167990
    C   C125  0.000000  0.500000  0.354505  0.167698
    C   C126  0.500000  0.000000  0.354505  0.167694
    C   C127  0.000000  0.500000  0.645495  0.168050
    C   C128  0.500000  0.000000  0.645495  0.168056
    C   C129  0.827090  0.017129  0.022010  0.186763
    C   C130  0.982871  0.827090  0.022010  0.186572
    C   C131  0.172910  0.982871  0.022010  0.186479
    C   C132  0.017129  0.172910  0.022010  0.186761
    C   C133  0.827090  0.982871  0.977990  0.186715
    C   C134  0.982871  0.172910  0.977990  0.186791
    C   C135  0.172910  0.017129  0.977990  0.186699
    C   C136  0.017129  0.827090  0.977990  0.186758
    C   C137  0.327090  0.517129  0.522010  0.186559
    C   C138  0.482871  0.327090  0.522010  0.186556
    C   C139  0.672910  0.482871  0.522010  0.186547
    C   C140  0.517129  0.672910  0.522010  0.186545
    C   C141  0.327090  0.482871  0.477990  0.186756
    C   C142  0.482871  0.672910  0.477990  0.186780
    C   C143  0.672910  0.517129  0.477990  0.186779
    C   C144  0.517129  0.327090  0.477990  0.186758
    C   C145  0.866193  0.017214  0.022141  0.258622
    C   C146  0.982786  0.866193  0.022141  0.259182
    C   C147  0.133807  0.982786  0.022141  0.259301
    C   C148  0.017214  0.133807  0.022141  0.258660
    C   C149  0.866193  0.982786  0.977859  0.259537
    C   C150  0.982786  0.133807  0.977859  0.259341
    C   C151  0.133807  0.017214  0.977859  0.259488
    C   C152  0.017214  0.866193  0.977859  0.259276
    C   C153  0.366193  0.517214  0.522141  0.259211
    C   C154  0.482786  0.366193  0.522141  0.259207
    C   C155  0.633807  0.482786  0.522141  0.259217
    C   C156  0.517214  0.633807  0.522141  0.259225
    C   C157  0.366193  0.482786  0.477859  0.259278
    C   C158  0.482786  0.633807  0.477859  0.259252
    C   C159  0.633807  0.517214  0.477859  0.259254
    C   C160  0.517214  0.366193  0.477859  0.259277
    C   C161  0.886245  0.000000  0.000000  -0.376555
    C   C162  0.000000  0.886245  0.000000  -0.376843
    C   C163  0.113755  0.000000  0.000000  -0.376885
    C   C164  0.000000  0.113755  0.000000  -0.376356
    C   C165  0.386245  0.500000  0.500000  -0.376788
    C   C166  0.500000  0.386245  0.500000  -0.376782
    C   C167  0.613755  0.500000  0.500000  -0.376773
    C   C168  0.500000  0.613755  0.500000  -0.376782
    O   O49   0.989583  0.053935  0.976389  -0.612029
    O   O50   0.946065  0.989583  0.976389  -0.612162
    O   O51   0.010417  0.946065  0.976389  -0.612374
    O   O52   0.053935  0.010417  0.976389  -0.612110
    O   O53   0.989583  0.946065  0.023611  -0.612273
    O   O54   0.946065  0.010417  0.023611  -0.612140
    O   O55   0.010417  0.053935  0.023611  -0.612216
    O   O56   0.053935  0.989583  0.023611  -0.612319
    O   O57   0.489583  0.553935  0.476389  -0.612369
    O   O58   0.446065  0.489583  0.476389  -0.612381
    O   O59   0.510417  0.446065  0.476389  -0.612378
    O   O60   0.553935  0.510417  0.476389  -0.612366
    O   O61   0.489583  0.446065  0.523611  -0.612323
    O   O62   0.446065  0.510417  0.523611  -0.612325
    O   O63   0.510417  0.553935  0.523611  -0.612321
    O   O64   0.553935  0.489583  0.523611  -0.612319
    C   C169  0.807557  0.000000  0.000000  -0.101777
    C   C170  0.000000  0.807557  0.000000  -0.101683
    C   C171  0.192443  0.000000  0.000000  -0.101684
    C   C172  0.000000  0.192443  0.000000  -0.101813
    C   C173  0.307557  0.500000  0.500000  -0.101716
    C   C174  0.500000  0.307557  0.500000  -0.101713
    C   C175  0.692443  0.500000  0.500000  -0.101704
    C   C176  0.500000  0.692443  0.500000  -0.101705
    C   C177  0.766875  0.000000  0.000000  0.061200
    C   C178  0.000000  0.766875  0.000000  0.061188
    C   C179  0.233125  0.000000  0.000000  0.061237
    C   C180  0.000000  0.233125  0.000000  0.061242
    C   C181  0.266875  0.500000  0.500000  0.061229
    C   C182  0.500000  0.266875  0.500000  0.061227
    C   C183  0.733125  0.500000  0.500000  0.061216
    C   C184  0.500000  0.733125  0.500000  0.061218
    C   C185  0.732706  0.000000  0.000000  -0.111435
    C   C186  0.000000  0.732706  0.000000  -0.111445
    C   C187  0.267294  0.000000  0.000000  -0.111481
    C   C188  0.000000  0.267294  0.000000  -0.111493
    C   C189  0.232706  0.500000  0.500000  -0.111487
    C   C190  0.500000  0.232706  0.500000  -0.111485
    C   C191  0.767294  0.500000  0.500000  -0.111490
    C   C192  0.500000  0.767294  0.500000  -0.111492
    C   C193  0.672482  0.031948  0.008397  0.387368
    C   C194  0.968052  0.672482  0.008397  0.387343
    C   C195  0.327518  0.968052  0.008397  0.387337
    C   C196  0.031948  0.327518  0.008397  0.387611
    C   C197  0.672482  0.968052  0.991603  0.387628
    C   C198  0.968052  0.327518  0.991603  0.387790
    C   C199  0.327518  0.031948  0.991603  0.387617
    C   C200  0.031948  0.672482  0.991603  0.387594
    C   C201  0.172482  0.531948  0.508397  0.387348
    C   C202  0.468052  0.172482  0.508397  0.387339
    C   C203  0.827518  0.468052  0.508397  0.387572
    C   C204  0.531948  0.827518  0.508397  0.387577
    C   C205  0.172482  0.468052  0.491603  0.387587
    C   C206  0.468052  0.827518  0.491603  0.387745
    C   C207  0.827518  0.531948  0.491603  0.387751
    C   C208  0.531948  0.172482  0.491603  0.387596
    C   C209  0.633378  0.032021  0.008408  -0.385739
    C   C210  0.967979  0.633378  0.008408  -0.385710
    C   C211  0.366622  0.967979  0.008408  -0.385731
    C   C212  0.032021  0.366622  0.008407  -0.385722
    C   C213  0.633378  0.967979  0.991593  -0.385951
    C   C214  0.967979  0.366622  0.991593  -0.385972
    C   C215  0.366622  0.032021  0.991593  -0.385904
    C   C216  0.032021  0.633378  0.991593  -0.385903
    C   C217  0.133378  0.532021  0.508408  -0.385692
    C   C218  0.467979  0.133378  0.508408  -0.385690
    C   C219  0.866622  0.467979  0.508408  -0.385696
    C   C220  0.532021  0.866622  0.508408  -0.385702
    C   C221  0.133378  0.467979  0.491593  -0.385851
    C   C222  0.467979  0.866622  0.491593  -0.385976
    C   C223  0.866622  0.532021  0.491593  -0.385977
    C   C224  0.532021  0.133378  0.491593  -0.385858
    H   H17   0.618666  0.057407  0.015095  0.218516
    H   H18   0.942593  0.618666  0.015095  0.218500
    H   H19   0.381334  0.942593  0.015095  0.218508
    H   H20   0.057407  0.381334  0.015095  0.218564
    H   H21   0.618666  0.942593  0.984905  0.218488
    H   H22   0.942593  0.381333  0.984905  0.218478
    H   H23   0.381333  0.057407  0.984905  0.218481
    H   H24   0.057407  0.618667  0.984905  0.218482
    H   H25   0.118666  0.557407  0.515095  0.218500
    H   H26   0.442593  0.118666  0.515095  0.218499
    H   H27   0.881334  0.442593  0.515095  0.218586
    H   H28   0.557407  0.881334  0.515095  0.218588
    H   H29   0.118667  0.442593  0.484905  0.218458
    H   H30   0.442593  0.881334  0.484905  0.218481
    H   H31   0.881334  0.557407  0.484905  0.218482
    H   H32   0.557407  0.118667  0.484905  0.218461
    C   C225  0.613587  0.000000  0.000000  0.108170
    C   C226  0.000000  0.613587  0.000000  0.108132
    C   C227  0.386413  0.000000  0.000000  0.108136
    C   C228  0.000000  0.386413  0.000000  0.108063
    C   C229  0.113588  0.500000  0.500000  0.108146
    C   C230  0.500000  0.113588  0.500000  0.108152
    C   C231  0.886413  0.500000  0.500000  0.108026
    C   C232  0.500000  0.886413  0.500000  0.108032
    C   C233  0.692024  0.000000  0.000000  -0.061384
    C   C234  0.000000  0.692024  0.000000  -0.061368
    C   C235  0.307976  0.000000  0.000000  -0.061354
    C   C236  0.000000  0.307976  0.000000  -0.061563
    C   C237  0.192024  0.500000  0.500000  -0.061332
    C   C238  0.500000  0.192024  0.500000  -0.061334
    C   C239  0.807976  0.500000  0.500000  -0.061538
    C   C240  0.500000  0.807976  0.500000  -0.061537
    Cu  Cu9   0.000000  0.000000  0.971999  0.983310
    Cu  Cu10  0.000000  0.000000  0.028001  0.983380
    Cu  Cu11  0.500000  0.500000  0.471999  0.983492
    Cu  Cu12  0.500000  0.500000  0.528001  0.983399
    F   F1    0.428327  0.927856  0.721646  -0.138284
    F   F2    0.072144  0.428327  0.721646  -0.138286
    F   F3    0.571673  0.072144  0.721646  -0.138287
    F   F4    0.927856  0.571673  0.721646  -0.138286
    F   F5    0.428326  0.072142  0.278354  -0.138260
    F   F6    0.072142  0.571674  0.278354  -0.138263
    F   F7    0.571674  0.927858  0.278354  -0.138257
    F   F8    0.927858  0.428326  0.278354  -0.138258
    F   F9    0.928327  0.427857  0.221646  -0.138459
    F   F10   0.572143  0.928327  0.221646  -0.138469
    F   F11   0.071673  0.572143  0.221646  -0.138468
    F   F12   0.427857  0.071673  0.221646  -0.138464
    F   F13   0.928326  0.572142  0.778354  -0.138258
    F   F14   0.572142  0.071674  0.778354  -0.138259
    F   F15   0.071674  0.427858  0.778354  -0.138258
    F   F16   0.427858  0.928326  0.778354  -0.138254
    F   F17   0.485887  0.066085  0.913033  -0.221835
    F   F18   0.933915  0.485887  0.913033  -0.221839
    F   F19   0.514113  0.933915  0.913033  -0.221835
    F   F20   0.066085  0.514113  0.913033  -0.221858
    F   F21   0.485888  0.933915  0.086967  -0.221932
    F   F22   0.933915  0.514112  0.086967  -0.221925
    F   F23   0.514112  0.066085  0.086967  -0.221937
    F   F24   0.066085  0.485888  0.086967  -0.221933
    F   F25   0.985887  0.566085  0.413033  -0.221845
    F   F26   0.433915  0.985887  0.413033  -0.221840
    F   F27   0.014113  0.433915  0.413033  -0.221836
    F   F28   0.566085  0.014113  0.413033  -0.221842
    F   F29   0.985888  0.433915  0.586967  -0.221923
    F   F30   0.433915  0.014112  0.586967  -0.221928
    F   F31   0.014112  0.566085  0.586967  -0.221931
    F   F32   0.566085  0.985888  0.586967  -0.221927
    F   F33   0.807805  0.034119  0.043631  -0.149220
    F   F34   0.965881  0.807805  0.043631  -0.149209
    F   F35   0.192195  0.965881  0.043631  -0.149204
    F   F36   0.034119  0.192195  0.043631  -0.149255
    F   F37   0.807805  0.965881  0.956369  -0.149402
    F   F38   0.965881  0.192195  0.956369  -0.149392
    F   F39   0.192195  0.034119  0.956369  -0.149391
    F   F40   0.034119  0.807805  0.956369  -0.149417
    F   F41   0.307805  0.534119  0.543631  -0.149205
    F   F42   0.465881  0.307805  0.543631  -0.149203
    F   F43   0.692195  0.465881  0.543631  -0.149216
    F   F44   0.534119  0.692195  0.543631  -0.149216
    F   F45   0.307805  0.465881  0.456369  -0.149407
    F   F46   0.465881  0.692195  0.456369  -0.149406
    F   F47   0.692195  0.534119  0.456369  -0.149406
    F   F48   0.534119  0.307805  0.456369  -0.149408
    F   F49   0.884234  0.034988  0.044025  -0.143907
    F   F50   0.965012  0.884234  0.044024  -0.144221
    F   F51   0.115766  0.965012  0.044024  -0.144219
    F   F52   0.034988  0.115766  0.044025  -0.143910
    F   F53   0.884234  0.965013  0.955976  -0.144431
    F   F54   0.965013  0.115766  0.955976  -0.144382
    F   F55   0.115766  0.034987  0.955976  -0.144412
    F   F56   0.034988  0.884234  0.955976  -0.144212
    F   F57   0.384234  0.534988  0.544024  -0.144230
    F   F58   0.465012  0.384234  0.544024  -0.144230
    F   F59   0.615766  0.465012  0.544024  -0.144226
    F   F60   0.534988  0.615766  0.544024  -0.144226
    F   F61   0.384234  0.465012  0.455976  -0.144242
    F   F62   0.465012  0.615766  0.455976  -0.144241
    F   F63   0.615766  0.534988  0.455976  -0.144244
    F   F64   0.534988  0.384234  0.455976  -0.144243
    F   F65   0.691727  0.063367  0.016666  -0.183904
    F   F66   0.936633  0.691727  0.016666  -0.183889
    F   F67   0.308273  0.936633  0.016666  -0.183875
    F   F68   0.063367  0.308274  0.016666  -0.184029
    F   F69   0.691727  0.936633  0.983335  -0.183967
    F   F70   0.936633  0.308273  0.983335  -0.183986
    F   F71   0.308273  0.063367  0.983335  -0.183973
    F   F72   0.063367  0.691727  0.983335  -0.183945
    F   F73   0.191727  0.563367  0.516666  -0.183890
    F   F74   0.436633  0.191727  0.516666  -0.183887
    F   F75   0.808274  0.436633  0.516666  -0.184014
    F   F76   0.563367  0.808274  0.516666  -0.184015
    F   F77   0.191727  0.436633  0.483335  -0.183951
    F   F78   0.436633  0.808273  0.483335  -0.183967
    F   F79   0.808273  0.563367  0.483335  -0.183970
    F   F80   0.563367  0.191727  0.483335  -0.183954
