# generated using pymatgen
data_CuH11C21Br3NO4
_symmetry_space_group_name_H-M   'P 1'
_cell_length_a   19.41075700
_cell_length_b   17.94702700
_cell_length_c   11.10655400
_cell_angle_alpha   90.00000000
_cell_angle_beta   90.00736000
_cell_angle_gamma   90.00000000
_symmetry_Int_Tables_number   1
_chemical_formula_structural   CuH11C21Br3NO4
_chemical_formula_sum   'Cu2 H22 C42 Br6 N2 O8'
_cell_volume   3869.13887244
_cell_formula_units_Z   2
loop_
 _symmetry_equiv_pos_site_id
 _symmetry_equiv_pos_as_xyz
  1  'x, y, z'
loop_
 _atom_site_type_symbol
 _atom_site_label
 _atom_site_symmetry_multiplicity
 _atom_site_fract_x
 _atom_site_fract_y
 _atom_site_fract_z
 _atom_site_occupancy
  Cu  Cu1  1  0.49949300  0.57057700  0.50072600  1
  Cu  Cu2  1  0.49992000  0.42174000  0.50146500  1
  H  H1  1  0.52034700  0.54826800  0.90705300  1
  H  H2  1  0.47939400  0.54818200  0.09528000  1
  H  H3  1  0.84958400  0.38685100  0.48925000  1
  H  H4  1  0.14991300  0.38618100  0.50420400  1
  H  H5  1  0.83729000  0.62370000  0.51226700  1
  H  H6  1  0.16221900  0.62335000  0.52002800  1
  H  H7  1  0.71344800  0.61667100  0.50378400  1
  H  H8  1  0.28606200  0.61609600  0.51489100  1
  H  H9  1  0.93845300  0.60234200  0.39194900  1
  H  H10  1  0.06347600  0.60209700  0.39587400  1
  H  H11  1  0.06035800  0.41657100  0.63753400  1
  H  H12  1  0.93592900  0.41655800  0.63289100  1
  H  H13  1  0.42582900  0.82732800  0.35917900  1
  H  H14  1  0.57883100  0.82640700  0.63318700  1
  H  H15  1  0.61234000  0.92974900  0.51816600  1
  H  H16  1  0.39335000  0.93062900  0.47387400  1
  H  H17  1  0.61260200  0.06463000  0.51878300  1
  H  H18  1  0.39389800  0.06529500  0.47310900  1
  H  H19  1  0.43015300  0.16787500  0.35245200  1
  H  H20  1  0.57717700  0.16743300  0.63915000  1
  H  H21  1  0.42905700  0.30346800  0.35899600  1
  H  H22  1  0.57447700  0.30306400  0.63967600  1
  C  C1  1  0.36680500  0.49565700  0.50485000  1
  C  C2  1  0.63260800  0.49609800  0.49667000  1
  C  C3  1  0.49849800  0.49557500  0.26909700  1
  C  C4  1  0.50053800  0.49588700  0.73300300  1
  C  C5  1  0.49214200  0.43620900  0.93514900  1
  C  C6  1  0.50425300  0.43548600  0.06615100  1
  C  C7  1  0.50401800  0.49656000  0.86582700  1
  C  C8  1  0.49452300  0.49597200  0.13622300  1
  C  C9  1  0.74900400  0.43236500  0.49023000  1
  C  C10  1  0.25038800  0.43166200  0.50578300  1
  C  C11  1  0.81979900  0.43758900  0.49515000  1
  C  C12  1  0.17957900  0.43704400  0.50866200  1
  C  C13  1  0.85244500  0.50562300  0.50383900  1
  C  C14  1  0.14690000  0.50523500  0.51328600  1
  C  C15  1  0.81317200  0.56961800  0.50493800  1
  C  C16  1  0.18628800  0.56916400  0.51448300  1
  C  C17  1  0.74224500  0.56526100  0.50112000  1
  C  C18  1  0.25722300  0.56467700  0.51212600  1
  C  C19  1  0.70887300  0.49697700  0.49558800  1
  C  C20  1  0.29055100  0.49632500  0.50761800  1
  C  C21  1  0.96477800  0.56207400  0.44777200  1
  C  C22  1  0.03592500  0.56196400  0.45011200  1
  C  C23  1  0.07120100  0.50881600  0.51601800  1
  C  C24  1  0.92802500  0.50892500  0.51106100  1
  C  C25  1  0.03427000  0.45723500  0.58212600  1
  C  C26  1  0.96336200  0.45723800  0.57953600  1
  C  C27  1  0.45773200  0.72185000  0.42403900  1
  C  C28  1  0.54311700  0.72125100  0.57267600  1
  C  C29  1  0.45897000  0.79864900  0.42210800  1
  C  C30  1  0.54472500  0.79810000  0.57138900  1
  C  C31  1  0.50233800  0.83787100  0.49623500  1
  C  C32  1  0.56383200  0.95883400  0.50992700  1
  C  C33  1  0.44209300  0.95928700  0.48167600  1
  C  C34  1  0.56402500  0.03570800  0.51015100  1
  C  C35  1  0.44235500  0.03609800  0.48136700  1
  C  C36  1  0.50328900  0.07493800  0.49571800  1
  C  C37  1  0.50283200  0.91992800  0.49578200  1
  C  C38  1  0.46168600  0.19632700  0.41815700  1
  C  C39  1  0.54441200  0.19610500  0.57558100  1
  C  C40  1  0.46137200  0.27312600  0.42118200  1
  C  C41  1  0.54239000  0.27293500  0.57683200  1
  C  C42  1  0.50323400  0.15688000  0.49641000  1
  Br  Br1  1  0.46133400  0.34218500  0.87268500  1
  Br  Br2  1  0.53031000  0.33932600  0.12664400  1
  Br  Br3  1  0.71366800  0.33333333  0.47213800  1
  Br  Br4  1  0.28566400  0.33215100  0.49742700  1
  Br  Br5  1  0.39311700  0.67807200  0.31483000  1
  Br  Br6  1  0.60458000  0.67589800  0.68556600  1
  N  N1  1  0.49911100  0.68241900  0.50031100  1
  N  N2  1  0.50013900  0.31025700  0.50187000  1
  O  O1  1  0.39935500  0.55962200  0.49928000  1
  O  O2  1  0.59962300  0.55995200  0.49410300  1
  O  O3  1  0.39988000  0.43220900  0.50865900  1
  O  O4  1  0.60000900  0.43242600  0.50269200  1
  O  O5  1  0.49610900  0.55966200  0.32572900  1
  O  O6  1  0.49819100  0.55986200  0.67587700  1
  O  O7  1  0.50063700  0.43216600  0.32665700  1
  O  O8  1  0.50391600  0.43234200  0.67607600  1
