# generated using pymatgen
data_V2H20(C7O2)5
_symmetry_space_group_name_H-M   'P 1'
_cell_length_a   19.76708800
_cell_length_b   6.76206600
_cell_length_c   16.74327000
_cell_angle_alpha   90.00000000
_cell_angle_beta   92.03224200
_cell_angle_gamma   90.00000000
_symmetry_Int_Tables_number   1
_chemical_formula_structural   V2H20(C7O2)5
_chemical_formula_sum   'V4 H40 C70 O20'
_cell_volume   2236.60420694
_cell_formula_units_Z   2
loop_
 _symmetry_equiv_pos_site_id
 _symmetry_equiv_pos_as_xyz
  1  'x, y, z'
loop_
 _atom_site_type_symbol
 _atom_site_label
 _atom_site_symmetry_multiplicity
 _atom_site_fract_x
 _atom_site_fract_y
 _atom_site_fract_z
 _atom_site_occupancy
  V  V1  1  0.51172300  0.27392200  0.49569000  1
  V  V2  1  0.48827700  0.77392200  0.50431100  1
  V  V3  1  0.99179200  0.66278500  0.00179700  1
  V  V4  1  0.00820800  0.16278500  0.99820300  1
  H  H1  1  0.17360300  0.18199100  0.14198300  1
  H  H2  1  0.82639700  0.68199100  0.85801700  1
  H  H3  1  0.26496000  0.35686500  0.20929000  1
  H  H4  1  0.73504000  0.85686500  0.79071100  1
  H  H5  1  0.22973100  0.58828300  0.29979700  1
  H  H6  1  0.77026900  0.08828300  0.70020300  1
  H  H7  1  0.36062800  0.36211200  0.30774500  1
  H  H8  1  0.63937200  0.86211200  0.69225500  1
  H  H9  1  0.32296900  0.75767000  0.36272700  1
  H  H10  1  0.67703100  0.25767000  0.63727300  1
  H  H11  1  0.43950200  0.35755400  0.72644200  1
  H  H12  1  0.56049800  0.85755400  0.27355800  1
  H  H13  1  0.25703200  0.35802400  0.89397900  1
  H  H14  1  0.74296800  0.85802400  0.10602100  1
  H  H15  1  0.35757300  0.43114200  0.82939300  1
  H  H16  1  0.64242700  0.93114200  0.17060700  1
  H  H17  1  0.32835900  0.85107100  0.65555200  1
  H  H18  1  0.67164100  0.35107100  0.34444800  1
  H  H19  1  0.06695500  0.59021400  0.78084000  1
  H  H20  1  0.93304500  0.09021400  0.21916100  1
  H  H21  1  0.24525500  0.70718900  0.65922200  1
  H  H22  1  0.75474500  0.20718900  0.34077800  1
  H  H23  1  0.14610200  0.51022700  0.67631100  1
  H  H24  1  0.85389800  0.01022700  0.32369000  1
  H  H25  1  0.15631200  0.15814400  0.90826500  1
  H  H26  1  0.84368800  0.65814400  0.09173500  1
  H  H27  1  0.14215400  0.41903600  0.24360000  1
  H  H28  1  0.10832300  0.48905700  0.14590200  1
  H  H29  1  0.01395900  0.30062900  0.24412500  1
  H  H30  1  0.91052600  0.39268400  0.31333300  1
  H  H31  1  0.89174200  0.73712800  0.35263300  1
  H  H32  1  0.97676300  0.99111400  0.32448300  1
  H  H33  1  0.08072700  0.89930300  0.25717500  1
  H  H34  1  0.85784700  0.91903600  0.75640000  1
  H  H35  1  0.89167700  0.98905700  0.85409900  1
  H  H36  1  0.98604100  0.80062900  0.75587500  1
  H  H37  1  0.08947400  0.89268400  0.68666700  1
  H  H38  1  0.10825800  0.23712800  0.64736800  1
  H  H39  1  0.02323700  0.49111400  0.67551700  1
  H  H40  1  0.91927300  0.39930300  0.74282500  1
  C  C1  1  0.56728500  0.56166400  0.37834300  1
  C  C2  1  0.43271500  0.06166400  0.62165700  1
  C  C3  1  0.59515600  0.55385800  0.60010500  1
  C  C4  1  0.40484400  0.05385800  0.39989600  1
  C  C5  1  0.14748900  0.88132300  0.16559100  1
  C  C6  1  0.85251100  0.38132300  0.83441000  1
  C  C7  1  0.34789300  0.05985900  0.34147200  1
  C  C8  1  0.65210700  0.55985900  0.65852900  1
  C  C9  1  0.27774300  0.22507800  0.24311200  1
  C  C10  1  0.72225700  0.72507800  0.75688800  1
  C  C11  1  0.33142900  0.22836200  0.29853300  1
  C  C12  1  0.66857100  0.72836200  0.70146700  1
  C  C13  1  0.31030700  0.88963000  0.32895800  1
  C  C14  1  0.68969300  0.38963000  0.67104200  1
  C  C15  1  0.25638700  0.88696500  0.27433400  1
  C  C16  1  0.74361300  0.38696500  0.72566600  1
  C  C17  1  0.24010900  0.05440400  0.23113600  1
  C  C18  1  0.75989100  0.55440400  0.76886400  1
  C  C19  1  0.18604900  0.05091000  0.17641700  1
  C  C20  1  0.81395100  0.55091000  0.82358300  1
  C  C21  1  0.16306500  0.71519000  0.21067500  1
  C  C22  1  0.83693500  0.21519000  0.78932500  1
  C  C23  1  0.21800100  0.71773000  0.26404000  1
  C  C24  1  0.78199900  0.21773000  0.73596000  1
  C  C25  1  0.35055800  0.30285500  0.79147700  1
  C  C26  1  0.64944200  0.80285500  0.20852300  1
  C  C27  1  0.38811500  0.09547100  0.68731600  1
  C  C28  1  0.61188500  0.59547100  0.31268400  1
  C  C29  1  0.11056600  0.68330000  0.77232200  1
  C  C30  1  0.88943400  0.18330000  0.22767800  1
  C  C31  1  0.15509100  0.63757600  0.71421500  1
  C  C32  1  0.84490900  0.13757600  0.28578500  1
  C  C33  1  0.21194800  0.75104200  0.70530100  1
  C  C34  1  0.78805200  0.25104200  0.29469900  1
  C  C35  1  0.22483600  0.91227500  0.75494100  1
  C  C36  1  0.77516400  0.41227500  0.24505900  1
  C  C37  1  0.17814800  0.96253900  0.81152200  1
  C  C38  1  0.82185200  0.46253900  0.18847800  1
  C  C39  1  0.28389200  0.02274800  0.74949100  1
  C  C40  1  0.71610800  0.52274800  0.25050900  1
  C  C41  1  0.29419700  0.18520400  0.79863300  1
  C  C42  1  0.70580300  0.68520400  0.20136700  1
  C  C43  1  0.24804700  0.23257800  0.85501300  1
  C  C44  1  0.75195300  0.73257800  0.14498700  1
  C  C45  1  0.19073400  0.12027200  0.86229200  1
  C  C46  1  0.80926600  0.62027200  0.13770800  1
  C  C47  1  0.33280600  0.97519200  0.69538200  1
  C  C48  1  0.66719400  0.47519200  0.30461800  1
  C  C49  1  0.39666700  0.26100200  0.73433400  1
  C  C50  1  0.60333300  0.76100200  0.26566600  1
  C  C51  1  0.12077100  0.84791800  0.81952200  1
  C  C52  1  0.87922900  0.34791800  0.18047900  1
  C  C53  1  0.90918800  0.38388200  0.89353300  1
  C  C54  1  0.09081200  0.88388200  0.10646700  1
  C  C55  1  0.92515200  0.37439800  0.11530100  1
  C  C56  1  0.07484800  0.87439800  0.88469900  1
  C  C57  1  0.11777700  0.53983600  0.20823200  1
  C  C58  1  0.05332400  0.59488800  0.24562600  1
  C  C59  1  0.00549900  0.45268200  0.26102400  1
  C  C60  1  0.94755800  0.50401200  0.29972100  1
  C  C61  1  0.93709400  0.69742200  0.32217200  1
  C  C62  1  0.98472700  0.83966900  0.30640600  1
  C  C63  1  0.04294100  0.78819000  0.26849200  1
  C  C64  1  0.88222300  0.03983600  0.79176800  1
  C  C65  1  0.94667600  0.09488800  0.75437400  1
  C  C66  1  0.99450100  0.95268200  0.73897600  1
  C  C67  1  0.05244200  0.00401200  0.70027900  1
  C  C68  1  0.06290600  0.19742200  0.67782900  1
  C  C69  1  0.01527300  0.33966900  0.69359400  1
  C  C70  1  0.95705900  0.28819000  0.73150800  1
  O  O1  1  0.56416000  0.72507500  0.58168200  1
  O  O2  1  0.43584000  0.22507500  0.41831800  1
  O  O3  1  0.56501200  0.37731000  0.40637400  1
  O  O4  1  0.43498800  0.87731000  0.59362600  1
  O  O5  1  0.58477700  0.37598900  0.56789500  1
  O  O6  1  0.41522300  0.87598900  0.43210500  1
  O  O7  1  0.45761500  0.22620900  0.59083500  1
  O  O8  1  0.54238500  0.72620900  0.40916500  1
  O  O9  1  0.46018300  0.53949300  0.50726900  1
  O  O10  1  0.53981700  0.03949300  0.49273100  1
  O  O11  1  0.94895000  0.21009000  0.08775100  1
  O  O12  1  0.05105000  0.71009000  0.91224900  1
  O  O13  1  0.92312200  0.55585100  0.92504900  1
  O  O14  1  0.07687800  0.05585100  0.07495100  1
  O  O15  1  0.93857400  0.55310100  0.08997100  1
  O  O16  1  0.06142600  0.05310100  0.91002900  1
  O  O17  1  0.06346500  0.71554700  0.08390100  1
  O  O18  1  0.93653500  0.21554700  0.91609900  1
  O  O19  1  0.04153700  0.38999000  0.99707600  1
  O  O20  1  0.95846300  0.88999000  0.00292400  1
