# Generated by REPEAT Assigner based on pymatgen
data_DB0-m3_o160_o115_f0_fsc.sym.51
_audit_creation_date              2022-05-24
_audit_creation_method            REPEAT_Assigner
_cell_length_a                    13.335743
_cell_length_b                    16.582258
_cell_length_c                    16.649474
_cell_angle_alpha                 90.066076
_cell_angle_beta                  98.953785
_cell_angle_gamma                 90.718114
_cell_volume                      3636.640688
_symmetry_space_group_name_H-M    P1
_symmetry_Int_Tables_number       1
loop_
    _symmetry_equiv_pos_site_id
    _symmetry_equiv_pos_as_xyz
    1  x,y,z
loop_
    _atom_site_type_symbol
    _atom_site_label
    _atom_site_fract_x
    _atom_site_fract_y
    _atom_site_fract_z
    _atom_type_partial_charge
    H   H1   0.053953  0.926130  0.711121  0.146345
    C   C1   0.020845  0.257150  0.968404  -0.260992
    C   C2   0.017893  0.255244  0.050506  -0.343175
    C   C3   0.009496  0.175004  0.070859  0.477953
    N   N1   0.007974  0.127906  0.004668  -0.593890
    C   C4   0.014498  0.177867  0.941825  0.461491
    C   C5   0.999635  0.148353  0.145179  -0.266591
    C   C6   0.983901  0.062477  0.164154  0.186696
    C   C7   0.939487  0.036845  0.229393  -0.218963
    C   C8   0.939376  0.953892  0.227819  -0.222668
    C   C9   0.983735  0.931634  0.161690  0.193859
    N   N2   0.012424  0.998073  0.123819  -0.169759
    C   C10  0.998296  0.846834  0.139084  -0.274063
    C   C11  0.005338  0.823125  0.063321  0.464404
    C   C12  0.010249  0.743787  0.038980  -0.316572
    C   C13  0.011327  0.745316  0.956574  -0.291728
    C   C14  0.008311  0.825619  0.934154  0.451389
    N   N3   0.004427  0.872928  0.999396  -0.581770
    C   C15  0.010399  0.852044  0.858331  -0.313348
    C   C16  0.015545  0.938078  0.835237  0.209761
    C   C17  0.038514  0.963143  0.761141  -0.245316
    C   C18  0.039928  0.046050  0.762542  -0.218754
    C   C19  0.018394  0.069211  0.837777  0.210332
    N   N4   0.001308  0.002939  0.881071  -0.161961
    C   C20  0.015993  0.154628  0.864606  -0.290068
    H   H2   0.028300  0.311373  0.933741  0.141419
    H   H3   0.020792  0.307610  0.089580  0.167333
    H   H4   0.909641  0.073659  0.273547  0.145371
    H   H5   0.909278  0.914793  0.270423  0.145252
    H   H6   0.011536  0.689874  0.075556  0.159371
    H   H7   0.014786  0.692728  0.918710  0.146706
    H   H8   0.056049  0.083874  0.713269  0.154932
    H   H9   0.055345  0.999347  0.076759  0.229494
    H   H10  0.975750  0.001866  0.936671  0.208622
    C   C21  0.102847  0.763207  0.776441  -0.254229
    H   H11  0.173727  0.784992  0.810408  0.113763
    C   C22  0.103348  0.706311  0.715917  -0.026035
    C   C23  0.012738  0.677789  0.672779  -0.145827
    C   C24  0.921978  0.707394  0.690290  -0.042114
    H   H12  0.850030  0.686408  0.657538  0.104948
    C   C25  0.921832  0.764431  0.750434  -0.289570
    H   H13  0.850671  0.787153  0.763943  0.127563
    C   C26  0.012021  0.792089  0.793910  0.415231
    C   C27  0.100644  0.235322  0.768413  -0.182774
    H   H14  0.169580  0.201976  0.786507  0.116660
    C   C28  0.097577  0.293971  0.709459  -0.046715
    H   H15  0.164309  0.304187  0.681266  0.100140
    C   C29  0.010272  0.337866  0.685758  -0.153463
    C   C30  0.925888  0.323535  0.724542  -0.021401
    C   C31  0.928546  0.261633  0.780315  -0.148613
    H   H16  0.863730  0.249060  0.810195  0.129757
    C   C32  0.015263  0.217671  0.802547  0.225802
    C   C33  0.086585  0.763137  0.248905  -0.269631
    H   H17  0.157212  0.791460  0.239386  0.123145
    C   C34  0.086594  0.704823  0.307771  -0.037409
    H   H18  0.158013  0.688767  0.343848  0.099538
    C   C35  0.996446  0.668519  0.320600  -0.149695
    C   C36  0.906417  0.690983  0.273481  -0.055763
    H   H19  0.835037  0.663467  0.282198  0.098495
    C   C37  0.906864  0.748884  0.214047  -0.187783
    H   H20  0.836422  0.766057  0.177150  0.102596
    C   C38  0.996937  0.785233  0.201918  0.322368
    C   C39  0.906011  0.240365  0.223244  -0.177613
    H   H21  0.835881  0.221169  0.186231  0.105630
    C   C40  0.904479  0.297786  0.283192  -0.071736
    C   C41  0.994212  0.323633  0.329723  -0.118370
    C   C42  0.084991  0.290480  0.316405  -0.043490
    H   H22  0.156277  0.309232  0.351932  0.090368
    C   C43  0.086087  0.232627  0.257109  -0.256985
    H   H23  0.157349  0.207388  0.246796  0.120186
    C   C44  0.996870  0.207762  0.210083  0.302501
    H   H24  0.175203  0.684013  0.703532  0.094061
    H   H25  0.832693  0.322998  0.292140  0.103366
    O   O1   0.923665  0.586093  0.576120  -0.618990
    O   O2   0.098101  0.590061  0.591571  -0.655805
    C   C45  0.011751  0.615368  0.610175  0.703620
    O   O3   0.096138  0.422872  0.600380  -0.648043
    O   O4   0.921402  0.418584  0.578754  -0.565153
    C   C46  0.009144  0.396128  0.618636  0.669714
    O   O5   0.082750  0.416145  0.425686  -0.641867
    O   O6   0.908137  0.412491  0.409826  -0.635334
    C   C47  0.994656  0.386901  0.391532  0.709324
    O   O7   0.910146  0.579870  0.401552  -0.664224
    O   O8   0.085045  0.583813  0.422733  -0.662894
    C   C48  0.997013  0.607437  0.384333  0.759744
    Zn  Zn1  0.116142  0.501740  0.511965  1.010013
    Zn  Zn2  0.890208  0.500691  0.489641  0.995917
    C   C49  0.703571  0.431758  0.483785  -0.184856
    N   N5   0.757367  0.500439  0.479898  0.002559
    C   C50  0.711855  0.572259  0.480418  -0.052418
    C   C51  0.610656  0.577081  0.487442  -0.085127
    C   C52  0.554098  0.507364  0.494889  -0.319315
    C   C53  0.601836  0.434145  0.490978  0.679953
    C   C54  0.398686  0.578046  0.513807  -0.317363
    C   C55  0.452296  0.507912  0.506121  0.410026
    C   C56  0.401701  0.435155  0.509821  -0.175779
    C   C57  0.452054  0.363763  0.504397  0.322072
    N   N6   0.550585  0.364414  0.495882  -0.647699
    C   C58  0.297354  0.573906  0.521116  0.056559
    N   N7   0.248999  0.502333  0.521751  -0.048002
    C   C59  0.299863  0.433320  0.517193  -0.021253
    H   H26  0.755483  0.627306  0.478028  0.126252
    H   H27  0.259986  0.376136  0.516622  0.141952
    H   H28  0.412601  0.306768  0.507403  0.075343
    H   H29  0.580126  0.636740  0.487953  0.123452
    H   H30  0.431643  0.637502  0.513210  0.169865
    H   H31  0.740749  0.374173  0.484537  0.140371
    H   H32  0.255994  0.629266  0.523225  0.134387
    C   C60  0.835505  0.374976  0.713371  0.461146
    H   H33  0.839970  0.437209  0.694544  -0.013765
    O   O9   0.755477  0.349646  0.730901  -0.482401
