# generated using pymatgen
data_Fe2H18C43O17
_symmetry_space_group_name_H-M   'P 1'
_cell_length_a   15.47940600
_cell_length_b   14.13728800
_cell_length_c   11.24042500
_cell_angle_alpha   84.96777900
_cell_angle_beta   101.84889900
_cell_angle_gamma   97.35136400
_symmetry_Int_Tables_number   1
_chemical_formula_structural   Fe2H18C43O17
_chemical_formula_sum   'Fe2 H18 C43 O17'
_cell_volume   2382.82931486
_cell_formula_units_Z   1
loop_
 _symmetry_equiv_pos_site_id
 _symmetry_equiv_pos_as_xyz
  1  'x, y, z'
loop_
 _atom_site_type_symbol
 _atom_site_label
 _atom_site_symmetry_multiplicity
 _atom_site_fract_x
 _atom_site_fract_y
 _atom_site_fract_z
 _atom_site_occupancy
  Fe  Fe1  1  0.50093600  0.99709500  0.73454200  1
  Fe  Fe2  1  0.52064400  0.00227000  0.27790500  1
  H  H1  1  0.79521300  0.03214100  0.28656100  1
  H  H2  1  0.94500200  0.04576600  0.24906500  1
  H  H3  1  0.84253700  0.98882500  0.87719000  1
  H  H4  1  0.04614400  0.06254000  0.11233200  1
  H  H5  1  0.97469100  0.93510100  0.89966300  1
  H  H6  1  0.07604300  0.95456800  0.76237300  1
  H  H7  1  0.22590700  0.96928900  0.72511100  1
  H  H8  1  0.17785400  0.00681700  0.13571200  1
  H  H9  1  0.71951000  0.58936300  0.45666900  1
  H  H10  1  0.68187400  0.46182400  0.37115000  1
  H  H11  1  0.65339500  0.30063700  0.32659000  1
  H  H12  1  0.30319300  0.55125600  0.54987800  1
  H  H13  1  0.32835400  0.71261100  0.60604900  1
  H  H14  1  0.72097600  0.75712600  0.44054600  1
  H  H15  1  0.32754500  0.23997800  0.64226200  1
  H  H16  1  0.44451000  0.40438800  0.78878600  1
  H  H17  1  0.34689700  0.33921900  0.83500800  1
  H  H18  1  0.36541000  0.46798500  0.83698900  1
  C  C1  1  0.80472400  0.02282600  0.19588000  1
  C  C2  1  0.88954500  0.02983000  0.17514500  1
  C  C3  1  0.90418900  0.01341800  0.06264300  1
  C  C4  1  0.83190200  0.99486600  0.96797000  1
  C  C5  1  0.74537300  0.98954900  0.98728300  1
  C  C6  1  0.73257200  0.00045700  0.10436000  1
  C  C7  1  0.99739200  0.02093300  0.04835500  1
  C  C8  1  0.02335500  0.97662200  0.96382800  1
  C  C9  1  0.13141300  0.96967100  0.83669500  1
  C  C10  1  0.21631300  0.97731900  0.81610200  1
  C  C11  1  0.28839100  0.99866700  0.90818400  1
  C  C12  1  0.27533000  0.00781900  0.02564600  1
  C  C13  1  0.18871700  0.00201100  0.04476100  1
  C  C14  1  0.11657900  0.98449500  0.94961400  1
  C  C15  1  0.44010500  0.14479400  0.58225700  1
  C  C16  1  0.37550800  0.01206000  0.87400700  1
  C  C17  1  0.67021200  0.98053800  0.88186200  1
  C  C18  1  0.48100400  0.81825900  0.64886000  1
  C  C19  1  0.51742200  0.18100300  0.34781700  1
  C  C20  1  0.35022000  0.01608300  0.13147800  1
  C  C21  1  0.64558000  0.98734700  0.13871200  1
  C  C22  1  0.58445300  0.85444400  0.43067300  1
  C  C23  1  0.66382200  0.71423200  0.46589300  1
  C  C24  1  0.59225700  0.75618500  0.48254700  1
  C  C25  1  0.52196300  0.69913100  0.52102700  1
  C  C26  1  0.45921000  0.73748800  0.56957500  1
  C  C27  1  0.38048100  0.68254200  0.57614800  1
  C  C28  1  0.66040400  0.61668300  0.46905200  1
  C  C29  1  0.58289700  0.55874800  0.48243400  1
  C  C30  1  0.51516500  0.60016300  0.51411500  1
  C  C31  1  0.44028700  0.54296200  0.53821700  1
  C  C32  1  0.62885200  0.42080000  0.40793300  1
  C  C33  1  0.57147500  0.46099600  0.46359400  1
  C  C34  1  0.50022700  0.40248000  0.49776600  1
  C  C35  1  0.61285700  0.32692100  0.38132700  1
  C  C36  1  0.54428600  0.26743200  0.41709100  1
  C  C37  1  0.36881000  0.58799600  0.55240700  1
  C  C38  1  0.43733000  0.44305400  0.54326300  1
  C  C39  1  0.37544300  0.38217600  0.59688400  1
  C  C40  1  0.49235700  0.30348800  0.48705000  1
  C  C41  1  0.43064200  0.24485700  0.54233000  1
  C  C42  1  0.37191600  0.28518600  0.59303200  1
  C  C43  1  0.37291700  0.40574500  0.78789800  1
  O  O1  1  0.51767400  0.12141300  0.64186800  1
  O  O2  1  0.43028200  0.08944700  0.90112900  1
  O  O3  1  0.36855300  0.08504600  0.58721200  1
  O  O4  1  0.39090900  0.95453600  0.79731500  1
  O  O5  1  0.59179500  0.00285700  0.89012500  1
  O  O6  1  0.68358600  0.95907500  0.77634500  1
  O  O7  1  0.50692500  0.90569400  0.61036900  1
  O  O8  1  0.46327100  0.80343500  0.75855100  1
  O  O9  1  0.51409000  0.09449700  0.40090600  1
  O  O10  1  0.51788400  0.19030800  0.23076400  1
  O  O11  1  0.42867400  0.99371300  0.12344600  1
  O  O12  1  0.33666300  0.03770100  0.23682500  1
  O  O13  1  0.65648800  0.91231400  0.42180300  1
  O  O14  1  0.62940600  0.04649500  0.21285700  1
  O  O15  1  0.50657600  0.87851000  0.37288700  1
  O  O16  1  0.59181200  0.90873900  0.11481000  1
  O  O17  1  0.32489800  0.41423600  0.66837100  1
