# Generated by REPEAT Assigner based on pymatgen
data_DB0-m29_o97_o52_f0_pts.sym.54
_audit_creation_date              2022-05-24
_audit_creation_method            REPEAT_Assigner
_cell_length_a                    17.764648
_cell_length_b                    9.421287
_cell_length_c                    19.188645
_cell_angle_alpha                 85.753527
_cell_angle_beta                  77.802395
_cell_angle_gamma                 106.425835
_cell_volume                      2980.091641
_symmetry_space_group_name_H-M    P1
_symmetry_Int_Tables_number       1
loop_
    _symmetry_equiv_pos_site_id
    _symmetry_equiv_pos_as_xyz
    1  x,y,z
loop_
    _atom_site_type_symbol
    _atom_site_label
    _atom_site_fract_x
    _atom_site_fract_y
    _atom_site_fract_z
    _atom_type_partial_charge
    C   C1   0.228181  0.056266  0.114435  -0.283353
    C   C2   0.100025  0.095475  0.142656  -0.184790
    C   C3   0.287450  0.017857  0.068491  0.058640
    C   C4   0.274287  0.971412  0.003751  -0.056640
    C   C5   0.156440  0.050947  0.096843  0.240767
    C   C6   0.140818  0.000216  0.034417  0.004934
    C   C7   0.198366  0.953711  0.989626  0.058726
    C   C8   0.178182  0.886410  0.931944  -0.099527
    C   C9   0.028997  0.095318  0.125406  -0.179825
    C   C10  0.013014  0.051486  0.060854  0.059728
    C   C11  0.068495  0.998449  0.016445  0.008147
    C   C12  0.052291  0.943961  0.954198  0.050609
    C   C13  0.106393  0.880624  0.914771  -0.142120
    C   C14  0.887899  0.118763  0.080478  -0.146055
    C   C15  0.942047  0.055538  0.041037  0.055982
    C   C16  0.925835  0.001001  0.978805  -0.001685
    C   C17  0.981358  0.948126  0.934355  0.063589
    C   C18  0.965425  0.904464  0.869764  -0.177987
    C   C19  0.816022  0.112610  0.063394  -0.099186
    C   C20  0.795782  0.045023  0.005796  0.035912
    C   C21  0.853446  0.998962  0.960900  0.023875
    C   C22  0.837869  0.948346  0.898444  0.221946
    C   C23  0.719717  0.026574  0.991827  -0.021483
    C   C24  0.706641  0.980471  0.926987  0.023554
    C   C25  0.894370  0.904182  0.852543  -0.176823
    C   C26  0.766078  0.942755  0.880909  -0.257466
    H   H1   0.239739  0.096692  0.163614  0.154312
    H   H2   0.111163  0.131588  0.192724  0.145016
    H   H3   0.216017  0.830864  0.900487  0.122983
    H   H4   0.987447  0.127624  0.165562  0.146789
    H   H5   0.095143  0.821381  0.870480  0.123510
    H   H6   0.899157  0.178125  0.124731  0.122486
    H   H7   0.007040  0.872415  0.829555  0.148041
    H   H8   0.778177  0.168161  0.094828  0.120218
    H   H9   0.883261  0.868183  0.802448  0.145065
    H   H10  0.754569  0.902437  0.831696  0.153733
    O   O1   0.586626  0.054976  0.036121  -0.531886
    C   C27  0.650852  0.028267  0.050168  0.567392
    O   O2   0.508774  0.733650  0.117210  -0.503048
    O   O3   0.648863  0.983376  0.117106  -0.524252
    O   O4   0.490407  0.868576  0.208419  -0.624914
    C   C28  0.499025  0.744036  0.186173  0.628293
    Fe  Fe1  0.501180  0.018746  0.126093  1.497570
    O   O5   0.394795  0.937089  0.100620  -0.620824
    O   O6   0.403229  0.182793  0.096335  -0.511191
    C   C29  0.365870  0.047119  0.086522  0.654736
    O   O7   0.529325  0.220037  0.159252  -0.652908
    O   O8   0.445748  0.092344  0.266002  -0.578905
    C   C30  0.491268  0.218781  0.226012  0.633457
    O   O9   0.465128  0.774633  0.836584  -0.631790
    O   O10  0.558772  0.904819  0.735213  -0.533925
    C   C31  0.509694  0.777735  0.772218  0.577209
    O   O11  0.598500  0.059506  0.895258  -0.607594
    O   O12  0.591234  0.814313  0.899242  -0.511106
    C   C32  0.628146  0.950262  0.909013  0.669397
    O   O13  0.345602  0.015999  0.878669  -0.521259
    O   O14  0.502706  0.125450  0.787037  -0.507857
    C   C33  0.497487  0.250301  0.810791  0.496602
    O   O15  0.406548  0.939178  0.959503  -0.534886
    C   C34  0.343033  0.969043  0.945490  0.591032
    O   O16  0.489768  0.258623  0.879787  -0.494739
    Fe  Fe2  0.492294  0.976166  0.869601  1.458147
    H   H11  0.495311  0.518293  0.845416  0.203963
    C   C35  0.500560  0.380271  0.761681  0.112675
    C   C36  0.504356  0.373929  0.689030  -0.033612
    H   H12  0.502683  0.270434  0.667666  0.094518
    C   C37  0.511383  0.501207  0.643642  -0.346237
    C   C38  0.515935  0.634148  0.670945  -0.087013
    H   H13  0.521135  0.734464  0.636695  0.096900
    C   C39  0.507789  0.638248  0.743462  0.144637
    C   C40  0.499480  0.511679  0.788835  -0.205599
    N   N1   0.537606  0.626974  0.521949  -0.404098
    N   N2   0.532930  0.627507  0.454184  -0.167536
    C   C41  0.500353  0.499716  0.430087  0.746335
    N   N3   0.475733  0.369813  0.475211  -0.256771
    N   N4   0.480910  0.368725  0.543063  -0.336339
    C   C42  0.511368  0.497891  0.567353  0.882953
    C   C43  0.492152  0.366665  0.326164  -0.018367
    H   H14  0.490467  0.267883  0.359593  0.068326
    C   C44  0.495567  0.360001  0.254358  0.029190
    C   C45  0.500828  0.485145  0.209501  -0.048285
    H   H15  0.502296  0.476657  0.153442  0.187913
    C   C46  0.498890  0.616653  0.236468  -0.211216
    C   C47  0.496527  0.624891  0.309280  0.283431
    C   C48  0.495877  0.499109  0.354069  -0.451267
    N   N5   0.492081  0.759280  0.336007  0.365837
    C   C49  0.422466  0.747114  0.393671  -0.456408
    C   C50  0.568772  0.862442  0.338350  -0.121209
    H   H16  0.382696  0.629707  0.407468  0.104366
    H   H17  0.387196  0.815993  0.375158  0.159523
    H   H18  0.439877  0.787517  0.442478  0.163640
    H   H19  0.616352  0.806336  0.328171  0.009802
    H   H20  0.566211  0.904947  0.390829  0.061169
    H   H21  0.585368  0.959518  0.295667  0.084402
