# Generated by REPEAT Assigner based on pymatgen
data_DB0-m2_o18_o29_f0_pcu.sym.63_sqe
_audit_creation_date              2022-05-24
_audit_creation_method            REPEAT_Assigner
_cell_length_a                    14.497295
_cell_length_b                    15.130688
_cell_length_c                    27.529351
_cell_angle_alpha                 76.492104
_cell_angle_beta                  103.821851
_cell_angle_gamma                 114.954777
_cell_volume                      5255.556974
_symmetry_space_group_name_H-M    P1
_symmetry_Int_Tables_number       1
loop_
    _symmetry_equiv_pos_site_id
    _symmetry_equiv_pos_as_xyz
    1  x,y,z
loop_
    _atom_site_type_symbol
    _atom_site_label
    _atom_site_fract_x
    _atom_site_fract_y
    _atom_site_fract_z
    _atom_type_partial_charge
    O   O1   0.977933  0.341060  0.514100  -0.586616
    O   O2   0.017951  0.660336  0.485380  -0.586957
    O   O3   0.836938  0.382773  0.495964  -0.577847
    O   O4   0.159029  0.618557  0.504374  -0.580772
    C   C1   0.878110  0.316941  0.506672  0.679725
    C   C2   0.117756  0.684360  0.493252  0.685078
    O   O5   0.070074  0.479573  0.581773  -0.601667
    O   O6   0.925346  0.520818  0.418188  -0.600264
    O   O7   0.925198  0.515743  0.559988  -0.594360
    O   O8   0.071299  0.486513  0.439910  -0.587510
    C   C3   0.997585  0.496699  0.593808  0.687039
    C   C4   0.998427  0.504609  0.406118  0.681607
    Cu  Cu1  0.080162  0.476418  0.512834  0.888826
    Cu  Cu2  0.915703  0.524842  0.487118  0.910276
    C   C5   0.952374  0.407036  0.829063  0.348251
    C   C6   0.065287  0.588475  0.174278  0.356513
    O   O9   0.906484  0.325446  0.807042  -0.462399
    O   O10  0.124891  0.665810  0.198569  -0.457947
    N   N1   0.998376  0.492638  0.799924  -0.119932
    N   N2   0.999641  0.509160  0.200068  -0.128330
    C   C7   0.044543  0.577978  0.818539  0.432966
    C   C8   0.935636  0.429712  0.178244  0.440491
    C   C9   0.064520  0.462541  0.734934  -0.191331
    C   C10  0.081811  0.503149  0.288004  -0.176828
    C   C11  0.065211  0.464311  0.684730  -0.064544
    C   C12  0.081511  0.501702  0.338251  -0.074643
    C   C13  0.930202  0.524712  0.660676  -0.066662
    C   C14  0.916789  0.513108  0.316266  -0.049760
    C   C15  0.930591  0.523929  0.710895  -0.182815
    C   C16  0.916858  0.513481  0.266116  -0.187626
    C   C17  0.997589  0.492729  0.748104  0.261764
    C   C18  0.999458  0.508803  0.251868  0.247009
    C   C19  0.998937  0.493390  0.899744  0.010383
    C   C20  0.002719  0.507357  0.100771  0.024800
    C   C21  0.951105  0.404884  0.880201  -0.037385
    C   C22  0.068717  0.589929  0.123495  -0.049413
    C   C23  0.905692  0.318088  0.912816  0.001458
    C   C24  0.136440  0.669462  0.094733  0.007204
    C   C25  0.045907  0.579482  0.868521  -0.085521
    C   C26  0.936712  0.427507  0.128652  -0.097401
    C   C27  0.997687  0.495045  0.647300  -0.076143
    C   C28  0.998881  0.506660  0.352656  -0.078943
    H   H1   0.877322  0.549948  0.632182  0.107189
    H   H2   0.851577  0.517313  0.326586  0.104547
    H   H3   0.877950  0.547695  0.720994  0.129817
    H   H4   0.852437  0.518329  0.237813  0.133797
    C   C29  0.940575  0.418229  0.029634  0.031868
    C   C30  0.054047  0.584762  0.969645  0.035376
    C   C31  0.062240  0.585444  0.021284  0.037371
    C   C32  0.947547  0.412568  0.980662  0.044271
    C   C33  0.001898  0.503704  0.050543  0.057210
    C   C34  0.000334  0.496827  0.950079  0.061023
    C   C35  0.872435  0.340529  0.058063  -0.151735
    C   C36  0.097309  0.670609  0.936837  -0.153076
    C   C37  0.870687  0.345451  0.106827  -0.060523
    C   C38  0.093142  0.667674  0.887018  -0.065174
    O   O11  0.872107  0.351504  0.205463  -0.519566
    O   O12  0.090284  0.661699  0.788143  -0.521931
    C   C39  0.904092  0.323699  0.961921  -0.219644
    C   C40  0.131457  0.665835  0.044508  -0.210819
    H   H5   0.146985  0.497542  0.365935  0.104732
    H   H6   0.119035  0.441026  0.675446  0.110285
    H   H7   0.146424  0.499144  0.276822  0.126502
    H   H8   0.117448  0.438328  0.763893  0.129907
    H   H9   0.816306  0.283276  0.127423  0.125504
    H   H10  0.127758  0.736280  0.862935  0.128115
    H   H11  0.815493  0.275516  0.043244  0.118772
    H   H12  0.131428  0.742978  0.947698  0.119943
    H   H13  0.870924  0.255043  0.985793  0.149192
    H   H14  0.187141  0.726807  0.024532  0.143614
    C   C41  0.809753  0.211964  0.510169  -0.097936
    C   C42  0.185979  0.789260  0.489429  -0.102186
    C   C43  0.787069  0.043668  0.523499  -0.280068
    C   C44  0.208507  0.957623  0.474683  -0.277072
    C   C45  0.851271  0.141506  0.520769  -0.039267
    C   C46  0.144415  0.859781  0.478027  -0.038668
    C   C47  0.703669  0.183519  0.502497  -0.124766
    C   C48  0.292074  0.817700  0.497196  -0.120443
    C   C49  0.637181  0.084040  0.505071  0.007009
    C   C50  0.358472  0.917288  0.493573  0.004054
    C   C51  0.681514  0.015305  0.515648  0.284129
    C   C52  0.314095  0.986076  0.482370  0.281787
    C   C53  0.528589  0.051264  0.497422  0.050172
    C   C54  0.467013  0.950121  0.500853  0.054816
    C   C55  0.515746  0.884217  0.511366  -0.150910
    C   C56  0.479829  0.117252  0.486346  -0.152936
    C   C57  0.620907  0.916810  0.518505  -0.278798
    C   C58  0.374655  0.084659  0.478799  -0.273124
    H   H15  0.655914  0.863495  0.526481  0.135907
    H   H16  0.339672  0.138104  0.470093  0.132497
    H   H17  0.319548  0.759373  0.506224  0.096916
    H   H18  0.676198  0.241739  0.494586  0.099266
    H   H19  0.062041  0.839990  0.471769  0.101003
    H   H20  0.933737  0.161575  0.526924  0.099832
    H   H21  0.819939  0.988487  0.531882  0.140090
    H   H22  0.175254  0.012486  0.466000  0.137761
    H   H23  0.475841  0.805666  0.514390  0.133344
    H   H24  0.519542  0.195895  0.482934  0.136330
    N   N3   0.793034  0.561748  0.467948  -0.155315
    N   N4   0.202965  0.439824  0.531945  -0.134422
    C   C59  0.707513  0.660518  0.416301  -0.346383
    C   C60  0.285807  0.337286  0.581656  -0.343411
    C   C61  0.790988  0.634339  0.429390  0.117152
    C   C62  0.203012  0.364417  0.569054  0.100267
    C   C63  0.712648  0.511483  0.493385  0.031376
    C   C64  0.281909  0.488103  0.505518  -0.006656
    C   C65  0.625260  0.534668  0.481079  -0.098267
    C   C66  0.368911  0.464312  0.517509  -0.065576
    C   C67  0.625022  0.610856  0.442060  0.349642
    C   C68  0.368851  0.387655  0.556326  0.341397
    C   C69  0.538991  0.484916  0.506369  0.075890
    C   C70  0.455102  0.513867  0.492165  0.027735
    C   C71  0.459461  0.591798  0.452916  -0.079881
    C   C72  0.534481  0.406700  0.545479  -0.109360
    C   C73  0.542898  0.638621  0.428220  -0.299201
    C   C74  0.450894  0.359637  0.570017  -0.288929
    H   H25  0.543315  0.698233  0.397568  0.149683
    H   H26  0.450159  0.299553  0.600360  0.150591
    H   H27  0.273764  0.545031  0.475444  0.135378
    H   H28  0.720848  0.454829  0.523560  0.114832
    H   H29  0.138376  0.325546  0.589341  0.104009
    H   H30  0.855490  0.673477  0.408980  0.090871
    H   H31  0.706799  0.720102  0.385763  0.154397
    H   H32  0.285575  0.276593  0.611596  0.154877
    H   H33  0.399597  0.619660  0.439590  0.119311
    H   H34  0.593963  0.378235  0.558545  0.123807
    C   C75  0.857819  0.216135  0.898582  0.018064
    C   C76  0.753301  0.198235  0.867949  0.017798
    C   C77  0.696574  0.111625  0.852184  -0.472443
    H   H35  0.848188  0.159897  0.932980  0.014454
    H   H36  0.908606  0.203702  0.878876  0.083900
    H   H37  0.723350  0.255823  0.858700  0.085660
    H   H38  0.726013  0.053675  0.861427  0.180964
    H   H39  0.620642  0.098879  0.830066  0.159848
    C   C78  0.217051  0.760989  0.114546  0.003734
    C   C79  0.168660  0.828106  0.118651  0.019346
    C   C80  0.226934  0.913777  0.135120  -0.476202
    H   H40  0.273581  0.802220  0.088228  0.018966
    H   H41  0.262742  0.742669  0.150938  0.087199
    H   H42  0.086078  0.807331  0.107985  0.087047
    H   H43  0.309525  0.934811  0.145778  0.185059
    H   H44  0.191866  0.962672  0.137953  0.157709
