# Generated by REPEAT Assigner based on pymatgen
data_DB0-m2_o7_o24_f0_nbo.sym.102_sqe
_audit_creation_date              2022-05-24
_audit_creation_method            REPEAT_Assigner
_cell_length_a                    40.695442
_cell_length_b                    35.213372
_cell_length_c                    21.195062
_cell_angle_alpha                 90.000000
_cell_angle_beta                  59.971870
_cell_angle_gamma                 90.000000
_cell_volume                      26296.354279
_symmetry_space_group_name_H-M    P1
_symmetry_Int_Tables_number       1
loop_
    _symmetry_equiv_pos_site_id
    _symmetry_equiv_pos_as_xyz
    1  x,y,z
loop_
    _atom_site_type_symbol
    _atom_site_label
    _atom_site_fract_x
    _atom_site_fract_y
    _atom_site_fract_z
    _atom_type_partial_charge
    O   O1    0.946162  0.473571  0.071542  -0.589924
    O   O2    0.053836  0.473571  0.928461  -0.589895
    O   O3    0.446162  0.973571  0.071542  -0.589923
    O   O4    0.553836  0.973571  0.928461  -0.589899
    O   O5    0.945620  0.536132  0.037000  -0.620965
    O   O6    0.054379  0.536132  0.963002  -0.620925
    O   O7    0.445620  0.036132  0.037000  -0.620931
    O   O8    0.554379  0.036132  0.963002  -0.620905
    C   C1    0.928019  0.504859  0.072279  0.726351
    C   C2    0.071980  0.504859  0.927724  0.726344
    C   C3    0.428019  0.004859  0.072279  0.726404
    C   C4    0.571980  0.004859  0.927724  0.726301
    O   O9    0.011909  0.473515  0.078035  -0.639651
    O   O10   0.988089  0.473515  0.921968  -0.639689
    O   O11   0.511909  0.973515  0.078035  -0.639660
    O   O12   0.488089  0.973515  0.921968  -0.639677
    O   O13   0.990809  0.536182  0.099205  -0.619846
    O   O14   0.009190  0.536182  0.900798  -0.619842
    O   O15   0.490809  0.036182  0.099205  -0.619829
    O   O16   0.509190  0.036182  0.900798  -0.619821
    C   C5    0.001701  0.504805  0.117599  0.642698
    C   C6    0.998298  0.504805  0.882404  0.642756
    C   C7    0.501701  0.004805  0.117599  0.642671
    C   C8    0.498298  0.004805  0.882404  0.642703
    Cu  Cu1   0.999999  0.467769  0.000002  0.982626
    Cu  Cu2   0.499999  0.967769  0.000002  0.982572
    Cu  Cu3   0.999999  0.541933  0.000001  0.980938
    Cu  Cu4   0.499999  0.041933  0.000001  0.980983
    C   C9    0.967367  0.513045  0.260446  -0.205430
    C   C10   0.032632  0.513045  0.739557  -0.205455
    C   C11   0.467367  0.013045  0.260446  -0.205442
    C   C12   0.532632  0.013045  0.739557  -0.205495
    C   C13   0.992101  0.538110  0.278594  -0.044437
    C   C14   0.007898  0.538110  0.721408  -0.044418
    C   C15   0.492101  0.038110  0.278594  -0.044434
    C   C16   0.507898  0.038110  0.721408  -0.044350
    H   H1    0.984338  0.566432  0.304929  0.059954
    H   H2    0.015661  0.566431  0.695074  0.059966
    H   H3    0.484338  0.066432  0.304929  0.059957
    H   H4    0.515661  0.066431  0.695074  0.059955
    H   H5    0.938576  0.519638  0.270042  0.100191
    H   H6    0.061423  0.519638  0.729961  0.100199
    H   H7    0.438576  0.019638  0.270042  0.100195
    H   H8    0.561423  0.019638  0.729961  0.100199
    C   C17   0.001791  0.503809  0.309029  -0.012991
    C   C18   0.998208  0.503809  0.690974  -0.013136
    C   C19   0.501791  0.003809  0.309029  -0.013043
    C   C20   0.498208  0.003809  0.690974  -0.013206
    C   C21   0.977906  0.479351  0.290397  0.583207
    C   C22   0.022092  0.479351  0.709606  0.583257
    C   C23   0.477906  0.979351  0.290397  0.583196
    C   C24   0.522092  0.979351  0.709606  0.583285
    C   C25   0.011582  0.469921  0.217177  -0.200351
    C   C26   0.988417  0.469921  0.782826  -0.200325
    C   C27   0.511582  0.969921  0.217177  -0.200345
    C   C28   0.488417  0.969921  0.782826  -0.200398
    C   C29   0.036163  0.495125  0.235671  -0.027154
    C   C30   0.963835  0.495125  0.764332  -0.027234
    C   C31   0.536163  0.995125  0.235671  -0.027156
    C   C32   0.463835  0.995125  0.764332  -0.027122
    C   C33   0.026456  0.529478  0.204340  -0.094245
    C   C34   0.973543  0.529478  0.795663  -0.094111
    C   C35   0.526456  0.029478  0.204340  -0.094234
    C   C36   0.473543  0.029478  0.795663  -0.094283
    C   C37   0.001806  0.504387  0.187375  0.173132
    C   C38   0.998193  0.504387  0.812627  0.173094
    C   C39   0.501806  0.004387  0.187375  0.173166
    C   C40   0.498193  0.004387  0.812627  0.173220
    H   H9    0.018997  0.441366  0.191751  0.096816
    H   H10   0.981001  0.441366  0.808252  0.096823
    H   H11   0.518997  0.941366  0.191751  0.096809
    H   H12   0.481001  0.941366  0.808252  0.096829
    H   H13   0.064837  0.487998  0.226136  0.054742
    H   H14   0.935162  0.487998  0.773867  0.054767
    H   H15   0.564837  0.987998  0.226136  0.054742
    H   H16   0.435162  0.987998  0.773867  0.054743
    H   H17   0.046987  0.550627  0.166247  0.059258
    H   H18   0.953012  0.550627  0.833755  0.059198
    H   H19   0.546987  0.050627  0.166247  0.059257
    H   H20   0.453012  0.050627  0.833755  0.059266
    C   C41   0.671843  0.515275  0.275256  -0.224348
    C   C42   0.328156  0.515274  0.724747  -0.224367
    C   C43   0.171843  0.015275  0.275256  -0.224327
    C   C44   0.828156  0.015274  0.724747  -0.224347
    H   H21   0.686584  0.524126  0.218857  0.145530
    H   H22   0.313415  0.524125  0.781146  0.145530
    H   H23   0.186584  0.024126  0.218857  0.145522
    H   H24   0.813415  0.024125  0.781146  0.145528
    C   C45   0.632702  0.515002  0.314155  -0.065955
    C   C46   0.367297  0.515002  0.685848  -0.065964
    C   C47   0.132702  0.015002  0.314155  -0.065977
    C   C48   0.867297  0.015002  0.685848  -0.066004
    H   H25   0.617371  0.523760  0.287209  0.109494
    H   H26   0.382627  0.523760  0.712794  0.109520
    H   H27   0.117371  0.023760  0.287209  0.109501
    H   H28   0.882627  0.023760  0.712794  0.109536
    C   C49   0.613646  0.503724  0.386409  -0.061143
    C   C50   0.386352  0.503723  0.613594  -0.061164
    C   C51   0.113646  0.003724  0.386409  -0.061139
    C   C52   0.886352  0.003723  0.613594  -0.061102
    C   C53   0.634255  0.492715  0.419106  -0.084003
    C   C54   0.365744  0.492715  0.580897  -0.084080
    C   C55   0.134255  0.992715  0.419106  -0.084015
    C   C56   0.865744  0.992715  0.580897  -0.084127
    H   H29   0.620157  0.483763  0.475402  0.132870
    H   H30   0.379842  0.483762  0.524601  0.132920
    H   H31   0.120157  0.983763  0.475402  0.132876
    H   H32   0.879842  0.983762  0.524601  0.132934
    C   C57   0.673393  0.493019  0.379962  -0.236738
    C   C58   0.326606  0.493019  0.620041  -0.236675
    C   C59   0.173393  0.993019  0.379962  -0.236719
    C   C60   0.826606  0.993019  0.620041  -0.236649
    H   H33   0.689357  0.484386  0.405744  0.151640
    H   H34   0.310642  0.484385  0.594259  0.151606
    H   H35   0.189357  0.984386  0.405744  0.151635
    H   H36   0.810642  0.984385  0.594259  0.151600
    C   C61   0.692203  0.504310  0.308094  0.365315
    C   C62   0.307795  0.504310  0.691909  0.365325
    C   C63   0.192203  0.004310  0.308094  0.365304
    C   C64   0.807795  0.004310  0.691909  0.365317
    C   C65   0.732944  0.504604  0.267496  -0.267577
    C   C66   0.267054  0.504603  0.732507  -0.267608
    C   C67   0.232944  0.004604  0.267496  -0.267570
    C   C68   0.767054  0.004603  0.732507  -0.267621
    C   C69   0.767151  0.504774  0.233481  -0.011035
    C   C70   0.232847  0.504773  0.766522  -0.010992
    C   C71   0.267151  0.004774  0.233481  -0.011046
    C   C72   0.732847  0.004773  0.766522  -0.010984
    C   C73   0.827154  0.536394  0.153449  -0.162225
    C   C74   0.172844  0.536393  0.846553  -0.162013
    C   C75   0.327154  0.036394  0.153449  -0.162112
    C   C76   0.672844  0.036393  0.846553  -0.162017
    H   H37   0.811539  0.561071  0.152771  0.143754
    H   H38   0.188460  0.561071  0.847229  0.143701
    H   H39   0.311539  0.061071  0.152771  0.143724
    H   H40   0.688460  0.061071  0.847229  0.143705
    C   C77   0.866257  0.536619  0.114676  -0.130912
    C   C78   0.133742  0.536619  0.885326  -0.131066
    C   C79   0.366257  0.036619  0.114676  -0.130985
    C   C80   0.633742  0.036619  0.885326  -0.131064
    H   H41   0.880714  0.561707  0.083956  0.136271
    H   H42   0.119284  0.561707  0.916045  0.136304
    H   H43   0.380714  0.061707  0.083956  0.136294
    H   H44   0.619284  0.061707  0.916045  0.136302
    C   C81   0.886361  0.504936  0.114587  -0.017090
    C   C82   0.113637  0.504935  0.885415  -0.017128
    C   C83   0.386361  0.004936  0.114587  -0.017233
    C   C84   0.613637  0.004935  0.885415  -0.017109
    C   C85   0.866898  0.473255  0.154530  -0.287296
    C   C86   0.133100  0.473254  0.845474  -0.287248
    C   C87   0.366898  0.973255  0.154530  -0.287144
    C   C88   0.633100  0.973254  0.845474  -0.287244
    H   H45   0.882449  0.448043  0.152666  0.163027
    H   H46   0.117547  0.448043  0.847341  0.162978
    H   H47   0.382449  0.948043  0.152666  0.162985
    H   H48   0.617547  0.948043  0.847341  0.162982
    C   C89   0.827572  0.473429  0.195036  0.426378
    C   C90   0.172426  0.473428  0.804968  0.426458
    C   C91   0.327572  0.973429  0.195036  0.426318
    C   C92   0.672426  0.973428  0.804968  0.426429
    C   C93   0.807896  0.504831  0.193080  0.024108
    C   C94   0.192102  0.504831  0.806923  0.023960
    C   C95   0.307896  0.004831  0.193080  0.024099
    C   C96   0.692102  0.004831  0.806923  0.023968
    O   O17   0.031444  0.557587  0.453238  -0.607428
    O   O18   0.968554  0.557587  0.546765  -0.607467
    O   O19   0.531444  0.057587  0.453238  -0.607480
    O   O20   0.468554  0.057587  0.546765  -0.607479
    C   C97   0.999999  0.575445  0.500001  0.691272
    C   C98   0.499999  0.075445  0.500001  0.691320
    O   O21   0.032141  0.493006  0.379848  -0.607273
    O   O22   0.967857  0.493006  0.620154  -0.607218
    O   O23   0.532141  0.993006  0.379848  -0.607287
    O   O24   0.467857  0.993006  0.620154  -0.607232
    O   O25   0.969436  0.513802  0.438639  -0.650733
    O   O26   0.030562  0.513802  0.561364  -0.650704
    O   O27   0.469436  0.013802  0.438639  -0.650764
    O   O28   0.530562  0.013802  0.561364  -0.650734
    C   C99   0.001054  0.503432  0.379665  0.702114
    C   C100  0.998945  0.503431  0.620338  0.702132
    C   C101  0.501054  0.003432  0.379665  0.702185
    C   C102  0.498945  0.003431  0.620338  0.702164
    Cu  Cu5   0.037093  0.503406  0.465223  0.964633
    Cu  Cu6   0.962905  0.503406  0.534780  0.964655
    Cu  Cu7   0.537093  0.003406  0.465223  0.964685
    Cu  Cu8   0.462905  0.003406  0.534780  0.964692
    O   O29   0.031187  0.449222  0.488011  -0.627281
    O   O30   0.968812  0.449222  0.511992  -0.627327
    O   O31   0.531187  0.949222  0.488011  -0.627311
    O   O32   0.468812  0.949222  0.511992  -0.627362
    C   C103  0.999999  0.431406  0.500001  0.843747
    C   C104  0.499999  0.931406  0.500001  0.843742
    O   O33   0.511254  0.557672  0.540730  -0.594753
    O   O34   0.488744  0.557672  0.459273  -0.594571
    O   O35   0.011254  0.057672  0.540730  -0.594644
    O   O36   0.988744  0.057672  0.459273  -0.594543
    C   C105  0.499999  0.575530  0.500001  0.672848
    C   C106  0.999999  0.075530  0.500001  0.672729
    O   O37   0.554869  0.493009  0.497102  -0.613312
    O   O38   0.445130  0.493009  0.502901  -0.613374
    O   O39   0.054869  0.993009  0.497102  -0.613252
    O   O40   0.945130  0.993009  0.502901  -0.613320
    O   O41   0.553375  0.514012  0.394619  -0.586340
    O   O42   0.446623  0.514012  0.605384  -0.586488
    O   O43   0.053375  0.014012  0.394619  -0.586285
    O   O44   0.946623  0.014012  0.605384  -0.586409
    C   C107  0.571992  0.503537  0.427994  0.696077
    C   C108  0.428006  0.503537  0.572009  0.696266
    C   C109  0.071992  0.003537  0.427994  0.696042
    C   C110  0.928006  0.003537  0.572009  0.696161
    Cu  Cu9   0.500883  0.503512  0.560714  0.958018
    Cu  Cu10  0.499116  0.503512  0.439289  0.957881
    Cu  Cu11  0.000883  0.003512  0.560714  0.957926
    Cu  Cu12  0.999116  0.003512  0.439289  0.957736
    O   O45   0.490240  0.449350  0.561760  -0.595554
    O   O46   0.509759  0.449350  0.438243  -0.595437
    O   O47   0.990240  0.949350  0.561760  -0.595447
    O   O48   0.009759  0.949350  0.438243  -0.595412
    C   C111  0.499999  0.431489  0.500001  0.680577
    C   C112  0.999999  0.931489  0.500001  0.680516
    C   C113  0.489776  0.330872  0.563446  -0.239314
    C   C114  0.510223  0.330872  0.436557  -0.239440
    C   C115  0.989776  0.830872  0.563446  -0.239346
    C   C116  0.010223  0.830872  0.436557  -0.239475
    H   H49   0.481752  0.315497  0.613229  0.147487
    H   H50   0.518247  0.315497  0.386773  0.147524
    H   H51   0.981752  0.815497  0.613229  0.147499
    H   H52   0.018247  0.815497  0.386773  0.147529
    C   C117  0.489756  0.370023  0.563589  -0.067161
    C   C118  0.510243  0.370024  0.436414  -0.067081
    C   C119  0.989756  0.870023  0.563589  -0.067169
    C   C120  0.010243  0.870024  0.436414  -0.067083
    H   H53   0.481622  0.384749  0.614026  0.120519
    H   H54   0.518377  0.384749  0.385977  0.120508
    H   H55   0.981622  0.884749  0.614026  0.120526
    H   H56   0.018377  0.884749  0.385977  0.120517
    C   C121  0.499999  0.389843  0.500001  -0.051919
    C   C122  0.999999  0.889843  0.500001  -0.051916
    C   C123  0.499999  0.311302  0.500001  0.331220
    C   C124  0.999999  0.811302  0.500001  0.331358
    C   C125  0.499999  0.270569  0.500001  -0.180246
    C   C126  0.999999  0.770569  0.500001  -0.180477
    C   C127  0.999999  0.736361  0.500001  -0.152573
    C   C128  0.499999  0.236361  0.500001  -0.152821
    C   C129  0.967862  0.676059  0.548491  -0.214869
    C   C130  0.032137  0.676059  0.451512  -0.214703
    C   C131  0.467862  0.176059  0.548491  -0.214666
    C   C132  0.532137  0.176059  0.451512  -0.214704
    H   H57   0.942647  0.691433  0.586545  0.137159
    H   H58   0.057352  0.691433  0.413458  0.137119
    H   H59   0.442647  0.191433  0.586545  0.137119
    H   H60   0.557352  0.191433  0.413458  0.137138
    C   C133  0.967788  0.636907  0.548595  -0.076172
    C   C134  0.032211  0.636907  0.451407  -0.076299
    C   C135  0.467788  0.136907  0.548595  -0.076372
    C   C136  0.532211  0.136907  0.451407  -0.076360
    H   H61   0.942246  0.622181  0.587161  0.121933
    H   H62   0.057753  0.622180  0.412842  0.121951
    H   H63   0.442246  0.122181  0.587161  0.121969
    H   H64   0.557753  0.122180  0.412842  0.121967
    C   C137  0.999999  0.617089  0.500001  -0.037167
    C   C138  0.499999  0.117089  0.500001  -0.037088
    C   C139  0.999999  0.695628  0.500001  0.295278
    C   C140  0.499999  0.195628  0.500001  0.295313
    C   C141  0.488291  0.676135  0.458473  -0.229515
    C   C142  0.511707  0.676135  0.541530  -0.229599
    C   C143  0.988291  0.176135  0.458473  -0.229488
    C   C144  0.011707  0.176135  0.541530  -0.229573
    H   H65   0.479102  0.691511  0.425893  0.147697
    H   H66   0.520896  0.691511  0.574111  0.147712
    H   H67   0.979102  0.191511  0.425893  0.147691
    H   H68   0.020896  0.191511  0.574111  0.147706
    C   C145  0.488266  0.636986  0.458376  -0.077369
    C   C146  0.511732  0.636986  0.541627  -0.077274
    C   C147  0.988266  0.136986  0.458376  -0.077418
    C   C148  0.011732  0.136986  0.541627  -0.077314
    H   H69   0.478953  0.622259  0.425375  0.122745
    H   H70   0.521046  0.622259  0.574628  0.122739
    H   H71   0.978953  0.122259  0.425375  0.122760
    H   H72   0.021046  0.122259  0.574628  0.122753
    C   C149  0.499999  0.617170  0.500002  -0.045403
    C   C150  0.999999  0.117170  0.500002  -0.045330
    C   C151  0.499999  0.695700  0.500002  0.333390
    C   C152  0.999999  0.195700  0.500002  0.333384
    C   C153  0.499999  0.736427  0.500001  -0.209100
    C   C154  0.999999  0.236427  0.500001  -0.209122
    C   C155  0.999999  0.270631  0.500001  -0.115634
    C   C156  0.499999  0.770631  0.500001  -0.115665
    C   C157  0.966273  0.330921  0.527736  -0.193771
    C   C158  0.033726  0.330921  0.472267  -0.193712
    C   C159  0.466273  0.830921  0.527736  -0.193654
    C   C160  0.533726  0.830921  0.472267  -0.193672
    H   H73   0.939804  0.315559  0.549545  0.120501
    H   H74   0.060194  0.315559  0.450458  0.120505
    H   H75   0.439804  0.815559  0.549545  0.120474
    H   H76   0.560194  0.815559  0.450458  0.120499
    C   C161  0.966215  0.370063  0.527801  -0.010127
    C   C162  0.033783  0.370063  0.472202  -0.010324
    C   C163  0.466215  0.870063  0.527801  -0.010405
    C   C164  0.533783  0.870063  0.472202  -0.010407
    H   H77   0.939440  0.384885  0.550236  0.104427
    H   H78   0.060559  0.384885  0.449767  0.104517
    H   H79   0.439440  0.884885  0.550236  0.104553
    H   H80   0.560559  0.884885  0.449767  0.104532
    C   C165  0.999999  0.389829  0.500001  -0.138054
    C   C166  0.499999  0.889829  0.500001  -0.137878
    C   C167  0.999999  0.311357  0.500001  0.246621
    C   C168  0.499999  0.811357  0.500001  0.246604
    O   O49   0.807716  0.442934  0.234086  -0.452659
    C   C169  0.819150  0.419363  0.269675  0.891352
    O   O50   0.843395  0.429207  0.284054  -0.572804
    C   C170  0.799457  0.382352  0.297451  -0.585916
    H   H81   0.777534  0.378861  0.281423  0.133819
    H   H82   0.785783  0.381737  0.357703  0.184887
    H   H83   0.820387  0.358924  0.273881  0.173496
    O   O51   0.192282  0.442933  0.765920  -0.452682
    C   C171  0.180848  0.419361  0.730333  0.891462
    O   O52   0.156603  0.429204  0.715953  -0.572813
    C   C172  0.200541  0.382350  0.702558  -0.586109
    H   H84   0.222464  0.378859  0.718587  0.133863
    H   H85   0.214216  0.381734  0.642307  0.184928
    H   H86   0.179612  0.358922  0.726130  0.173535
    O   O53   0.307716  0.942934  0.234086  -0.452639
    C   C173  0.319150  0.919363  0.269675  0.891328
    O   O54   0.343395  0.929207  0.284054  -0.572796
    C   C174  0.299457  0.882352  0.297451  -0.585887
    H   H87   0.277534  0.878861  0.281423  0.133814
    H   H88   0.285783  0.881737  0.357703  0.184879
    H   H89   0.320387  0.858924  0.273881  0.173485
    O   O55   0.692282  0.942933  0.765920  -0.452668
    C   C175  0.680848  0.919361  0.730333  0.891439
    O   O56   0.656603  0.929204  0.715953  -0.572804
    C   C176  0.700541  0.882350  0.702558  -0.586080
    H   H90   0.722464  0.878859  0.718587  0.133859
    H   H91   0.714216  0.881734  0.642307  0.184920
    H   H92   0.679612  0.858922  0.726130  0.173525
    O   O57   0.951717  0.453337  0.336325  -0.576287
    C   C177  0.961901  0.421775  0.358373  0.888499
    O   O58   0.995113  0.415722  0.339099  -0.613233
    C   C178  0.932379  0.393702  0.405279  -0.469681
    H   H93   0.916725  0.384264  0.377728  0.123093
    H   H94   0.912332  0.407058  0.458221  0.135726
    H   H95   0.946123  0.368822  0.414505  0.131757
    O   O59   0.048281  0.453337  0.663678  -0.576289
    C   C179  0.038097  0.421774  0.641630  0.888423
    O   O60   0.004885  0.415722  0.660903  -0.613193
    C   C180  0.067620  0.393702  0.594724  -0.469647
    H   H96   0.083273  0.384263  0.622275  0.123109
    H   H97   0.087666  0.407057  0.541782  0.135718
    H   H98   0.053875  0.368822  0.585498  0.131736
    O   O61   0.451717  0.953337  0.336325  -0.576277
    C   C181  0.461901  0.921775  0.358373  0.888491
    O   O62   0.495113  0.915722  0.339099  -0.613220
    C   C182  0.432379  0.893702  0.405279  -0.469676
    H   H99   0.416725  0.884264  0.377728  0.123095
    H   H100  0.412332  0.907058  0.458221  0.135711
    H   H101  0.446123  0.868822  0.414505  0.131757
    O   O63   0.548281  0.953337  0.663678  -0.576284
    C   C183  0.538097  0.921774  0.641630  0.888411
    O   O64   0.504885  0.915722  0.660903  -0.613177
    C   C184  0.567620  0.893702  0.594724  -0.469673
    H   H102  0.583273  0.884263  0.622275  0.123120
    H   H103  0.587666  0.907057  0.541782  0.135727
    H   H104  0.553875  0.868822  0.585498  0.131738
