data_DB0-m3_o18_o24_f0_pcu.sym.26_repeat
_audit_creation_date              2024-02-23
_audit_creation_method            'Materials Studio'
_symmetry_space_group_name_H-M    'P1'
_symmetry_Int_Tables_number       1
_symmetry_cell_setting            triclinic
loop_
_symmetry_equiv_pos_as_xyz
  x,y,z
_cell_length_a                    10.7674
_cell_length_b                    14.8441
_cell_length_c                    16.0153
_cell_angle_alpha                 86.0413
_cell_angle_beta                  90.0116
_cell_angle_gamma                 103.4251
loop_
_atom_site_label
_atom_site_type_symbol
_atom_site_fract_x
_atom_site_fract_y
_atom_site_fract_z
_atom_site_U_iso_or_equiv
_atom_site_adp_type
_atom_site_occupancy
O1     O     0.46264   0.38208   0.60477   0.00000  Uiso   1.00
O2     O     0.53736   0.61792   0.39523   0.00000  Uiso   1.00
O3     O     0.51122   0.53492   0.63788   0.00000  Uiso   1.00
O4     O     0.48878   0.46508   0.36212   0.00000  Uiso   1.00
C1     C     0.48284   0.44550   0.65964   0.00000  Uiso   1.00
C2     C     0.51716   0.55450   0.34036   0.00000  Uiso   1.00
O5     O     0.66080   0.42363   0.48335   0.00000  Uiso   1.00
O6     O     0.33920   0.57637   0.51665   0.00000  Uiso   1.00
O7     O     0.70941   0.57673   0.51646   0.00000  Uiso   1.00
O8     O     0.29059   0.42328   0.48354   0.00000  Uiso   1.00
C3     C     0.74282   0.50027   0.49990   0.00000  Uiso   1.00
C4     C     0.25718   0.49973   0.50010   0.00000  Uiso   1.00
Zn1    Zn    0.46795   0.39917   0.47810   0.00000  Uiso   1.00
Zn2    Zn    0.53205   0.60083   0.52190   0.00000  Uiso   1.00
C5     C     0.93894   0.43676   0.55703   0.00000  Uiso   1.00
C6     C     0.06106   0.56324   0.44298   0.00000  Uiso   1.00
C7     C     0.04680   0.51924   0.57460   0.00000  Uiso   1.00
C8     C     0.95320   0.48076   0.42540   0.00000  Uiso   1.00
H1     H     0.08870   0.53515   0.63666   0.00000  Uiso   1.00
H2     H     0.91131   0.46485   0.36334   0.00000  Uiso   1.00
H3     H     0.88517   0.38424   0.60450   0.00000  Uiso   1.00
H4     H     0.11483   0.61576   0.39550   0.00000  Uiso   1.00
C9     C     0.11906   0.49961   0.50001   0.00000  Uiso   1.00
C10    C     0.88094   0.50039   0.49999   0.00000  Uiso   1.00
C11    C     0.01346   0.41711   0.48243   0.00000  Uiso   1.00
C12    C     0.98654   0.58289   0.51757   0.00000  Uiso   1.00
H5     H     0.02669   0.34796   0.46779   0.00000  Uiso   1.00
H6     H     0.97331   0.65204   0.53221   0.00000  Uiso   1.00
C13    C     0.47342   0.41487   0.74925   0.00000  Uiso   1.00
C14    C     0.52658   0.58513   0.25075   0.00000  Uiso   1.00
C15    C     0.43457   0.29260   0.85740   0.00000  Uiso   1.00
C16    C     0.56543   0.70740   0.14261   0.00000  Uiso   1.00
C17    C     0.44457   0.32159   0.77363   0.00000  Uiso   1.00
C18    C     0.55543   0.67841   0.22637   0.00000  Uiso   1.00
C19    C     0.49356   0.47929   0.80920   0.00000  Uiso   1.00
C20    C     0.50644   0.52071   0.19080   0.00000  Uiso   1.00
C21    C     0.48555   0.45180   0.89474   0.00000  Uiso   1.00
C22    C     0.51445   0.54820   0.10526   0.00000  Uiso   1.00
C23    C     0.45371   0.35733   0.91761   0.00000  Uiso   1.00
C24    C     0.54629   0.64267   0.08239   0.00000  Uiso   1.00
C25    C     0.50710   0.51583   0.95768   0.00000  Uiso   1.00
C26    C     0.49290   0.48417   0.04232   0.00000  Uiso   1.00
C27    C     0.45632   0.38885   0.06196   0.00000  Uiso   1.00
C28    C     0.54368   0.61115   0.93804   0.00000  Uiso   1.00
C29    C     0.43855   0.32719   0.00095   0.00000  Uiso   1.00
C30    C     0.56145   0.67281   0.99905   0.00000  Uiso   1.00
H7     H     0.41049   0.25430   0.02099   0.00000  Uiso   1.00
H8     H     0.58951   0.74570   0.97901   0.00000  Uiso   1.00
H9     H     0.48645   0.44935   0.21386   0.00000  Uiso   1.00
H10    H     0.51355   0.55065   0.78614   0.00000  Uiso   1.00
H11    H     0.57030   0.72908   0.27285   0.00000  Uiso   1.00
H12    H     0.42970   0.27092   0.72715   0.00000  Uiso   1.00
H13    H     0.43882   0.35732   0.12442   0.00000  Uiso   1.00
H14    H     0.56118   0.64268   0.87558   0.00000  Uiso   1.00
N1     N     0.57437   0.73333   0.55089   0.00000  Uiso   1.00
N2     N     0.42563   0.26667   0.44911   0.00000  Uiso   1.00
C31    C     0.69154   0.85011   0.63102   0.00000  Uiso   1.00
C32    C     0.30846   0.14989   0.36898   0.00000  Uiso   1.00
C33    C     0.66069   0.75935   0.61013   0.00000  Uiso   1.00
C34    C     0.33931   0.24065   0.38987   0.00000  Uiso   1.00
C35    C     0.51564   0.79418   0.51095   0.00000  Uiso   1.00
C36    C     0.48436   0.20582   0.48905   0.00000  Uiso   1.00
C37    C     0.54272   0.88732   0.52978   0.00000  Uiso   1.00
C38    C     0.45729   0.11268   0.47022   0.00000  Uiso   1.00
C39    C     0.63314   0.91443   0.59029   0.00000  Uiso   1.00
C40    C     0.36686   0.08558   0.40971   0.00000  Uiso   1.00
C41    C     0.48308   0.95366   0.48983   0.00000  Uiso   1.00
C42    C     0.51692   0.04634   0.51017   0.00000  Uiso   1.00
C43    C     0.61041   0.07058   0.56987   0.00000  Uiso   1.00
C44    C     0.38959   0.92942   0.43013   0.00000  Uiso   1.00
C45    C     0.66650   0.00579   0.60921   0.00000  Uiso   1.00
C46    C     0.33350   0.99420   0.39079   0.00000  Uiso   1.00
H15    H     0.73842   0.02944   0.65482   0.00000  Uiso   1.00
H16    H     0.26158   0.97056   0.34518   0.00000  Uiso   1.00
H17    H     0.55106   0.23329   0.53583   0.00000  Uiso   1.00
H18    H     0.44894   0.76671   0.46417   0.00000  Uiso   1.00
H19    H     0.29490   0.29181   0.35886   0.00000  Uiso   1.00
H20    H     0.70510   0.70819   0.64114   0.00000  Uiso   1.00
H21    H     0.64497   0.13980   0.58867   0.00000  Uiso   1.00
H22    H     0.35503   0.86020   0.41133   0.00000  Uiso   1.00
N3     N     0.78327   0.87699   0.69443   0.00000  Uiso   1.00
H23    H     0.82363   0.82121   0.71198   0.00000  Uiso   1.00
H24    H     0.73456   0.89068   0.74673   0.00000  Uiso   1.00
N4     N     0.21673   0.12301   0.30557   0.00000  Uiso   1.00
H25    H     0.17637   0.17879   0.28802   0.00000  Uiso   1.00
H26    H     0.26544   0.10932   0.25327   0.00000  Uiso   1.00
N5     N     0.40455   0.19548   0.88161   0.00000  Uiso   1.00
H27    H     0.38206   0.15841   0.82848   0.00000  Uiso   1.00
H28    H     0.48665   0.17907   0.90691   0.00000  Uiso   1.00
N6     N     0.59545   0.80452   0.11839   0.00000  Uiso   1.00
H29    H     0.61794   0.84159   0.17152   0.00000  Uiso   1.00
H30    H     0.51335   0.82093   0.09309   0.00000  Uiso   1.00
