# generated using pymatgen
data_ZnH9C18NClO4
_symmetry_space_group_name_H-M   'P 1'
_cell_length_a   9.28684700
_cell_length_b   8.55727300
_cell_length_c   15.08044400
_cell_angle_alpha   90.00000000
_cell_angle_beta   91.01856500
_cell_angle_gamma   90.00000000
_symmetry_Int_Tables_number   1
_chemical_formula_structural   ZnH9C18NClO4
_chemical_formula_sum   'Zn2 H18 C36 N2 Cl2 O8'
_cell_volume   1198.25479897
_cell_formula_units_Z   2
loop_
 _symmetry_equiv_pos_site_id
 _symmetry_equiv_pos_as_xyz
  1  'x, y, z'
loop_
 _atom_site_type_symbol
 _atom_site_label
 _atom_site_symmetry_multiplicity
 _atom_site_fract_x
 _atom_site_fract_y
 _atom_site_fract_z
 _atom_site_occupancy
  Zn  Zn1  1  0.83689200  0.47518800  0.50658000  1
  Zn  Zn2  1  0.15855600  0.47184500  0.50272500  1
  H  H1  1  0.05255900  0.96933400  0.56863400  1
  H  H2  1  0.96822600  0.22113400  0.80415600  1
  H  H3  1  0.98903800  0.72178900  0.80739600  1
  H  H4  1  0.79594800  0.10805800  0.92081000  1
  H  H5  1  0.17210500  0.82091700  0.08637200  1
  H  H6  1  0.16785500  0.81972800  0.92369800  1
  H  H7  1  0.98826600  0.22240700  0.20044600  1
  H  H8  1  0.01098100  0.72299500  0.20589500  1
  H  H9  1  0.95717800  0.97894400  0.44317700  1
  H  H10  1  0.62855000  0.46123400  0.64333300  1
  H  H11  1  0.75577500  0.48351900  0.33475800  1
  H  H12  1  0.63025400  0.52964100  0.20516900  1
  H  H13  1  0.36701700  0.52984500  0.20168500  1
  H  H14  1  0.24040900  0.47785900  0.32896900  1
  H  H15  1  0.36481900  0.45695700  0.63923500  1
  H  H16  1  0.50067100  0.38624300  0.08708600  1
  H  H17  1  0.49975800  0.95879200  0.23146300  1
  H  H18  1  0.73008500  0.88786900  0.16762900  1
  C  C1  1  0.00350600  0.11059600  0.67916900  1
  C  C2  1  0.01003000  0.83080300  0.68098800  1
  C  C3  1  0.98074400  0.11154900  0.76948000  1
  C  C4  1  0.99441600  0.83093800  0.77152200  1
  C  C5  1  0.98583000  0.97178100  0.81617800  1
  C  C6  1  0.02671100  0.97036700  0.63740300  1
  C  C7  1  0.88263900  0.05342100  0.95804300  1
  C  C8  1  0.88073400  0.04880900  0.04964900  1
  C  C9  1  0.98780300  0.96891200  0.09594100  1
  C  C10  1  0.08954200  0.88514000  0.05046500  1
  C  C11  1  0.08737800  0.88487900  0.95909200  1
  C  C12  1  0.98594600  0.97179000  0.91291200  1
  C  C13  1  0.98833000  0.11391100  0.23716200  1
  C  C14  1  0.00306100  0.83349700  0.24019100  1
  C  C15  1  0.98457700  0.11528700  0.32857500  1
  C  C16  1  0.99131300  0.83679600  0.33124300  1
  C  C17  1  0.97462500  0.97696800  0.37337700  1
  C  C18  1  0.99323300  0.97205700  0.19283300  1
  C  C19  1  0.00513800  0.68764500  0.62799900  1
  C  C20  1  0.00112100  0.25286700  0.62465600  1
  C  C21  1  0.99426000  0.69632600  0.38609800  1
  C  C22  1  0.99016700  0.25779900  0.38178200  1
  C  C23  1  0.64374100  0.49293800  0.34423700  1
  C  C24  1  0.57114200  0.51552500  0.26570800  1
  C  C25  1  0.42530200  0.51505600  0.26379100  1
  C  C26  1  0.35244600  0.49005600  0.34041800  1
  C  C27  1  0.42284000  0.48127800  0.42322400  1
  C  C28  1  0.57301400  0.48389200  0.42551800  1
  C  C29  1  0.57195400  0.46707500  0.58016500  1
  C  C30  1  0.42245100  0.46389700  0.57772100  1
  C  C31  1  0.75174600  0.10199000  0.09512300  1
  C  C32  1  0.68605600  0.24183800  0.07252400  1
  C  C33  1  0.55314600  0.27847200  0.10637300  1
  C  C34  1  0.48643600  0.17712000  0.16367700  1
  C  C35  1  0.55296600  0.03942400  0.18764300  1
  C  C36  1  0.68459800  0.00133800  0.15300500  1
  N  N1  1  0.64701800  0.47665800  0.50472400  1
  N  N2  1  0.34826600  0.47028700  0.50001300  1
  Cl  Cl1  1  0.77120300  0.37582700  0.00288500  1
  Cl  Cl2  1  0.31558200  0.22031800  0.20437500  1
  O  O1  1  0.12765600  0.63762000  0.59540300  1
  O  O2  1  0.12470600  0.30161500  0.59246600  1
  O  O3  1  0.87694500  0.63500400  0.60227900  1
  O  O4  1  0.87422600  0.30930200  0.59931900  1
  O  O5  1  0.87347800  0.64772800  0.41885100  1
  O  O6  1  0.87058800  0.30771300  0.41535800  1
  O  O7  1  0.11855400  0.63962500  0.41170500  1
  O  O8  1  0.11578900  0.31007300  0.40863200  1
