# generated using pymatgen
data_Cu6H45C71(O8F3)3
_symmetry_space_group_name_H-M   'P 1'
_cell_length_a   21.70349900
_cell_length_b   21.70920500
_cell_length_c   22.06174000
_cell_angle_alpha   119.46481500
_cell_angle_beta   119.45006500
_cell_angle_gamma   90.00721000
_symmetry_Int_Tables_number   1
_chemical_formula_structural   Cu6H45C71(O8F3)3
_chemical_formula_sum   'Cu6 H45 C71 O24 F9'
_cell_volume   7468.67367699
_cell_formula_units_Z   1
loop_
 _symmetry_equiv_pos_site_id
 _symmetry_equiv_pos_as_xyz
  1  'x, y, z'
loop_
 _atom_site_type_symbol
 _atom_site_label
 _atom_site_symmetry_multiplicity
 _atom_site_fract_x
 _atom_site_fract_y
 _atom_site_fract_z
 _atom_site_occupancy
  Cu  Cu1  1  0.43561800  0.99896100  0.49391200  1
  Cu  Cu2  1  0.56176900  0.00422300  0.50082400  1
  Cu  Cu3  1  0.99956100  0.56385200  0.50242500  1
  Cu  Cu4  1  0.99597000  0.43697900  0.49392800  1
  Cu  Cu5  1  0.53959100  0.54590000  0.58041800  1
  Cu  Cu6  1  0.45424200  0.45700500  0.41244400  1
  H  H1  1  0.67009900  0.31126500  0.93376100  1
  H  H2  1  0.80688800  0.21401100  0.92927000  1
  H  H3  1  0.77106200  0.28495200  0.91755800  1
  H  H4  1  0.83149200  0.36677600  0.05749400  1
  H  H5  1  0.87984100  0.30447100  0.07117900  1
  H  H6  1  0.65606700  0.14044700  0.93523400  1
  H  H7  1  0.73047500  0.11977600  0.92208500  1
  H  H8  1  0.73720500  0.20554700  0.07432400  1
  H  H9  1  0.60708500  0.24210100  0.91809000  1
  H  H10  1  0.67390900  0.28214500  0.05405300  1
  H  H11  1  0.58209300  0.38020200  0.63805800  1
  H  H12  1  0.34403800  0.22148300  0.32778800  1
  H  H13  1  0.41994700  0.21130900  0.30811500  1
  H  H14  1  0.34497700  0.11038900  0.32979300  1
  H  H15  1  0.42108600  0.10052200  0.31043700  1
  H  H16  1  0.15689300  0.63177200  0.92933900  1
  H  H17  1  0.23924800  0.70078400  0.07084200  1
  H  H18  1  0.38565000  0.77761500  0.06200700  1
  H  H19  1  0.35569700  0.70974600  0.07484100  1
  H  H20  1  0.27364300  0.62894800  0.93392900  1
  H  H21  1  0.31253600  0.69175700  0.92111900  1
  H  H22  1  0.23942700  0.86719000  0.06140700  1
  H  H23  1  0.32480900  0.87544000  0.06621200  1
  H  H24  1  0.17614300  0.79719700  0.91942900  1
  H  H25  1  0.19552800  0.77239000  0.07587600  1
  H  H26  1  0.12172600  0.70830800  0.93384700  1
  H  H27  1  0.26184400  0.79547100  0.92478800  1
  H  H28  1  0.61761200  0.84736600  0.57785400  1
  H  H29  1  0.61592300  0.73410700  0.57754000  1
  H  H30  1  0.33429900  0.60905100  0.31887300  1
  H  H31  1  0.32599500  0.65237900  0.41145900  1
  H  H32  1  0.33553700  0.72377600  0.32407300  1
  H  H33  1  0.32623700  0.76652600  0.41591300  1
  H  H34  1  0.75726600  0.38032000  0.40349400  1
  H  H35  1  0.64205500  0.38070700  0.39970200  1
  H  H36  1  0.73459600  0.67243000  0.58577200  1
  H  H37  1  0.77822500  0.65487100  0.67139900  1
  H  H38  1  0.84659900  0.67350700  0.58551400  1
  H  H39  1  0.88991500  0.65518400  0.67053200  1
  H  H40  1  0.14728500  0.38241900  0.40878500  1
  H  H41  1  0.25951600  0.38388500  0.40693700  1
  H  H42  1  0.38762700  0.66302600  0.66913900  1
  H  H43  1  0.34431300  0.67505400  0.57925000  1
  H  H44  1  0.27397200  0.66197400  0.66610000  1
  H  H45  1  0.23103700  0.67490900  0.57690600  1
  C  C1  1  0.49937200  0.12228300  0.50246800  1
  C  C2  1  0.57530100  0.07952900  0.65909800  1
  C  C3  1  0.49861700  0.88145100  0.49344800  1
  C  C4  1  0.42213500  0.92266000  0.33573800  1
  C  C5  1  0.66657700  0.27044700  0.94920400  1
  C  C6  1  0.77792800  0.25441900  0.94744400  1
  C  C7  1  0.82332500  0.30962000  0.04235100  1
  C  C8  1  0.86999500  0.38271500  0.24608300  1
  C  C9  1  0.70219100  0.21342300  0.91769800  1
  C  C10  1  0.70751400  0.30939000  0.04376000  1
  C  C11  1  0.78357700  0.29582300  0.07769700  1
  C  C12  1  0.76583900  0.21335200  0.04741200  1
  C  C13  1  0.71107300  0.16559600  0.95186900  1
  C  C14  1  0.83088200  0.34445900  0.17004500  1
  C  C15  1  0.65553500  0.16552400  0.82548900  1
  C  C16  1  0.61820000  0.12602300  0.74952500  1
  C  C17  1  0.45469100  0.18995600  0.43554500  1
  C  C18  1  0.50045900  0.19163900  0.50683400  1
  C  C19  1  0.54716500  0.26165500  0.58174000  1
  C  C20  1  0.54600600  0.32580000  0.58070500  1
  C  C21  1  0.49938900  0.32053800  0.50586600  1
  C  C22  1  0.45445300  0.25044700  0.43460200  1
  C  C23  1  0.39715900  0.20884600  0.34245600  1
  C  C24  1  0.39774500  0.13762700  0.34376400  1
  C  C25  1  0.22431700  0.73811800  0.04884700  1
  C  C26  1  0.33648700  0.74114100  0.04539900  1
  C  C27  1  0.28520100  0.68673400  0.95045200  1
  C  C28  1  0.12574100  0.61808900  0.75024900  1
  C  C29  1  0.29454500  0.78848700  0.07724600  1
  C  C30  1  0.17280300  0.69164100  0.95353300  1
  C  C31  1  0.21262100  0.70430100  0.91835700  1
  C  C32  1  0.22916600  0.78510300  0.94665600  1
  C  C33  1  0.27360400  0.83556100  0.04192700  1
  C  C34  1  0.16499900  0.65609900  0.82621000  1
  C  C35  1  0.34157600  0.83722400  0.16938000  1
  C  C36  1  0.37913000  0.87680200  0.24532500  1
  C  C37  1  0.43445500  0.75574100  0.44352300  1
  C  C38  1  0.49893100  0.81323100  0.49139500  1
  C  C39  1  0.56506300  0.80374100  0.53844500  1
  C  C40  1  0.56410000  0.73955500  0.53849400  1
  C  C41  1  0.49753000  0.68238100  0.48798800  1
  C  C42  1  0.43404300  0.69299100  0.44014300  1
  C  C43  1  0.35179700  0.65872500  0.38134100  1
  C  C44  1  0.35228700  0.73223700  0.38458600  1
  C  C45  1  0.87995100  0.49964800  0.49903400  1
  C  C46  1  0.91624400  0.42540800  0.33650200  1
  C  C47  1  0.11597600  0.50144800  0.49814900  1
  C  C48  1  0.07933100  0.57543400  0.65986100  1
  C  C49  1  0.61459200  0.49975000  0.49540000  1
  C  C50  1  0.49844600  0.38635400  0.50275400  1
  C  C51  1  0.37908200  0.50373200  0.49720400  1
  C  C52  1  0.49584200  0.61644100  0.49025000  1
  C  C53  1  0.80198600  0.56168500  0.54589200  1
  C  C54  1  0.81156200  0.49813300  0.49663300  1
  C  C55  1  0.75304700  0.43213000  0.44426800  1
  C  C56  1  0.68748300  0.43239800  0.44170400  1
  C  C57  1  0.68142400  0.49799300  0.49473200  1
  C  C58  1  0.74134900  0.56121700  0.54671500  1
  C  C59  1  0.76804500  0.64249700  0.61152800  1
  C  C60  1  0.83975800  0.64295700  0.61106200  1
  C  C61  1  0.23999300  0.56526600  0.54433400  1
  C  C62  1  0.18253400  0.50093800  0.49683400  1
  C  C63  1  0.19096500  0.43486900  0.44794600  1
  C  C64  1  0.25452800  0.43573200  0.44659400  1
  C  C65  1  0.31209800  0.50211400  0.49755600  1
  C  C66  1  0.30214100  0.56555300  0.54645800  1
  C  C67  1  0.33775700  0.64750000  0.60771900  1
  C  C68  1  0.26488400  0.64711300  0.60585800  1
  C  C69  1  0.70848700  0.39077000  0.08590500  1
  C  C70  1  0.83241500  0.18410300  0.07385600  1
  C  C71  1  0.59708000  0.26843300  0.66318400  1
  O  O1  1  0.44294300  0.08910500  0.49478300  1
  O  O2  1  0.55458800  0.09603600  0.50572600  1
  O  O3  1  0.50222900  0.06009300  0.61695500  1
  O  O4  1  0.61132900  0.06617100  0.62297400  1
  O  O5  1  0.44208600  0.90621600  0.48698800  1
  O  O6  1  0.55530500  0.91523900  0.50217400  1
  O  O7  1  0.38605300  0.94319700  0.37195200  1
  O  O8  1  0.49515400  0.94622200  0.37787900  1
  O  O9  1  0.90858300  0.55320500  0.49947700  1
  O  O10  1  0.90514100  0.44320900  0.49155600  1
  O  O11  1  0.94005600  0.49856700  0.37930100  1
  O  O12  1  0.93211500  0.38869400  0.37205600  1
  O  O13  1  0.08708200  0.55450800  0.49817400  1
  O  O14  1  0.08387700  0.44477800  0.49082300  1
  O  O15  1  0.06360200  0.61198500  0.62425200  1
  O  O16  1  0.05526800  0.50239400  0.61702800  1
  O  O17  1  0.62310600  0.53527000  0.56859100  1
  O  O18  1  0.54923500  0.45992700  0.42320000  1
  O  O19  1  0.53662000  0.45281100  0.57394200  1
  O  O20  1  0.45946400  0.37590900  0.42852900  1
  O  O21  1  0.44454700  0.54022300  0.56968900  1
  O  O22  1  0.37080700  0.46133700  0.42455300  1
  O  O23  1  0.53622900  0.62674100  0.56412700  1
  O  O24  1  0.45550000  0.55024100  0.41920600  1
  F  F1  1  0.63790500  0.39283200  0.03865100  1
  F  F2  1  0.75865800  0.43554100  0.09126900  1
  F  F3  1  0.72565300  0.41909800  0.16579800  1
  F  F4  1  0.80604100  0.11356400  0.05215400  1
  F  F5  1  0.88490400  0.22880100  0.15999700  1
  F  F6  1  0.86652000  0.17865800  0.03332100  1
  F  F7  1  0.55468700  0.23688300  0.67744100  1
  F  F8  1  0.63492400  0.34247300  0.72999300  1
  F  F9  1  0.64881800  0.23232000  0.65945600  1
