# Generated by REPEAT Assigner based on pymatgen
data_DB0-m2_o6_o23_f0_nbo.sym.69
_audit_creation_date              2022-05-24
_audit_creation_method            REPEAT_Assigner
_cell_length_a                    27.677798
_cell_length_b                    27.686049
_cell_length_c                    27.725637
_cell_angle_alpha                 109.401277
_cell_angle_beta                  109.672319
_cell_angle_gamma                 109.265236
_cell_volume                      16369.986578
_symmetry_space_group_name_H-M    P1
_symmetry_Int_Tables_number       1
loop_
    _symmetry_equiv_pos_site_id
    _symmetry_equiv_pos_as_xyz
    1  x,y,z
loop_
    _atom_site_type_symbol
    _atom_site_label
    _atom_site_fract_x
    _atom_site_fract_y
    _atom_site_fract_z
    _atom_type_partial_charge
    O   O1    0.434222  0.409243  0.446937  -0.591283
    O   O2    0.436077  0.478884  0.523018  -0.611193
    C   C1    0.415706  0.424076  0.484320  0.795186
    O   O3    0.555773  0.469664  0.511559  -0.600086
    O   O4    0.557621  0.542839  0.584386  -0.542660
    C   C2    0.576047  0.505842  0.567229  0.694322
    Cu  Cu1   0.496974  0.466714  0.445513  1.011789
    Cu  Cu2   0.495056  0.547188  0.529492  0.994060
    O   O5    0.555963  0.535048  0.452000  -0.607623
    O   O6    0.557798  0.604656  0.528074  -0.594208
    O   O7    0.434389  0.471021  0.390604  -0.587705
    O   O8    0.436232  0.544194  0.463416  -0.604575
    C   C3    0.576327  0.589886  0.490722  0.796852
    C   C4    0.415818  0.507867  0.407723  0.781977
    C   C5    0.697310  0.444120  0.674757  -0.207950
    C   C6    0.694716  0.520239  0.750006  -0.013231
    C   C7    0.745711  0.528250  0.801643  -0.276537
    H   H1    0.713404  0.420290  0.741152  0.025135
    H   H2    0.651707  0.410755  0.659049  0.045741
    H   H3    0.654825  0.480909  0.737662  0.000080
    H   H4    0.727554  0.500849  0.819316  0.055876
    H   H5    0.774044  0.574495  0.838274  0.036318
    C   C8    0.865561  0.509296  0.863926  -0.086815
    C   C9    0.703271  0.504913  0.696189  0.710345
    C   C10   0.740496  0.444703  0.726718  -0.102452
    C   C11   0.782062  0.507856  0.778881  0.722310
    C   C12   0.811153  0.550892  0.761534  -0.087633
    C   C13   0.764083  0.547477  0.710602  -0.110403
    C   C14   0.827769  0.508884  0.825814  -0.395574
    C   C15   0.657910  0.504456  0.649424  -0.412703
    C   C16   0.620574  0.504858  0.611638  -0.066212
    H   H6    0.769346  0.531205  0.671437  0.007924
    H   H7    0.769432  0.591724  0.721145  0.010654
    H   H8    0.842820  0.541868  0.749716  0.005718
    H   H9    0.705221  0.432359  0.637031  0.018177
    H   H10   0.836577  0.596334  0.799716  0.002715
    H   H11   0.250530  0.349872  0.506307  0.150022
    C   C17   0.204685  0.265133  0.496286  -0.194341
    H   H12   0.173682  0.274371  0.507440  0.149664
    C   C18   0.201364  0.211143  0.482999  0.282864
    C   C19   0.240917  0.199299  0.468831  -0.189438
    H   H13   0.238284  0.156949  0.458461  0.150052
    C   C20   0.284005  0.241628  0.468202  -0.186464
    H   H14   0.315218  0.232520  0.457369  0.149370
    C   C21   0.287428  0.295706  0.481705  0.268953
    C   C22   0.247727  0.307421  0.495640  -0.180805
    C   C23   0.156989  0.167533  0.484444  -0.135434
    C   C24   0.332666  0.340200  0.481975  -0.104606
    C   C25   0.370618  0.378160  0.482743  -0.198539
    C   C26   0.119709  0.131177  0.485915  -0.136494
    H   H15   0.321843  0.601264  0.330293  0.147634
    C   C27   0.245409  0.560836  0.246043  -0.202054
    H   H16   0.245126  0.601555  0.253237  0.153404
    C   C28   0.202668  0.509181  0.193648  0.239627
    C   C29   0.202753  0.456886  0.184499  -0.044124
    C   C30   0.245226  0.456798  0.228498  -0.212885
    H   H17   0.245708  0.416244  0.221805  0.139259
    C   C31   0.288131  0.508623  0.280637  0.254482
    C   C32   0.288273  0.560651  0.289368  -0.192953
    C   C33   0.157103  0.510052  0.150093  -0.113282
    C   C34   0.333011  0.508487  0.325606  -0.081091
    C   C35   0.370800  0.508320  0.363208  -0.207154
    C   C36   0.118870  0.510229  0.112985  -0.162877
    H   H18   0.767743  0.753247  0.583108  0.149773
    C   C37   0.801106  0.802281  0.545336  -0.166605
    H   H19   0.844491  0.831285  0.584324  0.139812
    C   C38   0.788862  0.808723  0.496098  0.256274
    C   C39   0.733587  0.771715  0.446321  -0.182479
    H   H20   0.724088  0.776741  0.407708  0.146764
    C   C40   0.690626  0.727963  0.445602  -0.184399
    H   H21   0.647387  0.698691  0.406448  0.149724
    C   C41   0.702953  0.721245  0.494676  0.263706
    C   C42   0.758108  0.758545  0.544643  -0.196486
    C   C43   0.833890  0.853167  0.496099  -0.069948
    C   C44   0.658479  0.675050  0.493461  -0.093146
    C   C45   0.621028  0.636134  0.492221  -0.195890
    C   C46   0.871530  0.889993  0.495424  -0.243178
    O   O9    0.952641  0.412046  0.926734  -0.580137
    O   O10   0.027467  0.482417  0.928005  -0.620631
    C   C47   0.989519  0.427413  0.907853  0.796582
    O   O11   0.894645  0.472423  0.927354  -0.597516
    O   O12   0.966129  0.546255  0.928649  -0.624840
    C   C48   0.910748  0.509462  0.908778  0.759988
    Cu  Cu3   0.950868  0.468973  0.989685  1.005806
    Cu  Cu4   0.033320  0.550238  0.987109  1.033984
    O   O13   0.956695  0.536775  0.048793  -0.606718
    O   O14   0.031530  0.607146  0.050041  -0.601221
    O   O15   0.018097  0.473022  0.048186  -0.613612
    O   O16   0.089567  0.546856  0.049471  -0.610521
    C   C49   0.994625  0.591772  0.068877  0.785728
    C   C50   0.073492  0.510094  0.068324  0.792417
    O   O17   0.030964  0.072826  0.587205  -0.587039
    O   O18   0.958365  0.070659  0.513185  -0.607584
    C   C51   0.996684  0.093579  0.568948  0.779937
    O   O19   0.092293  0.072297  0.527250  -0.611192
    O   O20   0.019665  0.066479  0.449906  -0.604012
    C   C52   0.075271  0.088064  0.487761  0.747602
    Cu  Cu5   0.037698  0.011970  0.533613  1.014962
    Cu  Cu6   0.953663  0.009432  0.448055  1.010881
    O   O21   0.030008  0.947813  0.468621  -0.622283
    O   O22   0.957242  0.945502  0.394564  -0.592654
    O   O23   0.971762  0.954843  0.531787  -0.595034
    O   O24   0.898983  0.949166  0.454406  -0.592810
    C   C53   0.995550  0.928679  0.412742  0.794550
    C   C54   0.916085  0.933383  0.493929  0.825961
    H   H22   0.053153  0.364461  0.775885  0.146340
    C   C55   0.027433  0.276711  0.716170  -0.176229
    H   H23   0.056995  0.290762  0.700137  0.146770
    C   C56   0.992151  0.217519  0.694372  0.179502
    C   C57   0.954052  0.199163  0.714444  -0.070912
    C   C58   0.951280  0.240689  0.756622  -0.116102
    C   C59   0.987300  0.300136  0.778723  0.228685
    C   C60   0.025065  0.317953  0.758374  -0.205125
    C   C61   0.994185  0.174880  0.649649  -0.077842
    C   C62   0.987498  0.344202  0.824399  -0.072871
    C   C63   0.988173  0.381873  0.862582  -0.216643
    C   C64   0.995485  0.138171  0.612532  -0.193769
    H   H24   0.001488  0.772965  0.159843  0.141887
    C   C65   0.002824  0.812039  0.241308  -0.045600
    C   C66   0.001824  0.805439  0.288346  0.218282
    C   C67   0.001817  0.757072  0.292144  -0.232041
    H   H25   0.001623  0.752731  0.329417  0.142856
    C   C68   0.003137  0.715047  0.249360  -0.054025
    C   C69   0.002122  0.720656  0.201307  0.223624
    C   C70   0.001777  0.768849  0.197350  -0.234752
    C   C71   0.998761  0.847595  0.332526  -0.071130
    C   C72   0.999035  0.675542  0.153961  -0.075525
    C   C73   0.996764  0.637393  0.114763  -0.188852
    C   C74   0.996807  0.884002  0.369283  -0.193989
    C   C75   0.772710  0.413167  0.711107  0.096422
    C   C76   0.801997  0.424379  0.680836  -0.144653
    C   C77   0.832151  0.395398  0.668941  -0.319782
    C   C78   0.833482  0.354898  0.687075  0.376040
    C   C79   0.866566  0.323950  0.675160  -0.406938
    C   C80   0.803977  0.343043  0.716573  -0.328557
    C   C81   0.773494  0.371655  0.728193  -0.106489
    H   H26   0.801647  0.455528  0.665719  0.139490
    H   H27   0.854858  0.404939  0.645475  0.145872
    H   H28   0.886794  0.337747  0.650293  0.104918
    H   H29   0.835882  0.275589  0.648927  0.089522
    H   H30   0.901956  0.335066  0.717688  0.113690
    H   H31   0.804798  0.311333  0.730882  0.171979
    H   H32   0.751281  0.361973  0.752006  0.099481
    C   C82   0.157789  0.401403  0.129262  0.133885
    C   C83   0.150438  0.396057  0.075547  -0.115090
    C   C84   0.107777  0.343809  0.023794  -0.226530
    C   C85   0.072663  0.296339  0.025518  0.254687
    C   C86   0.026183  0.239818  0.969956  -0.340695
    C   C87   0.080776  0.301177  0.079122  -0.222711
    C   C88   0.123434  0.353445  0.130884  -0.160900
    H   H33   0.178246  0.432750  0.073808  0.108791
    H   H34   0.102220  0.340467  0.982101  0.120471
    H   H35   0.026034  0.243372  0.931276  0.114652
    H   H36   0.982356  0.229581  0.966131  0.109120
    H   H37   0.035093  0.203834  0.970922  0.081451
    H   H38   0.053494  0.263979  0.080604  0.131178
    H   H39   0.129060  0.356993  0.172659  0.121759
    C   C89   0.915473  0.135880  0.688989  0.189151
    C   C90   0.855252  0.110210  0.653207  -0.170005
    C   C91   0.819214  0.050301  0.627705  -0.272959
    C   C92   0.843178  0.015783  0.637790  0.337404
    C   C93   0.803925  0.950999  0.609238  -0.341841
    C   C94   0.903338  0.041479  0.674028  -0.355940
    C   C95   0.939333  0.101388  0.699617  -0.007917
    H   H40   0.836342  0.136921  0.644479  0.114420
    H   H41   0.772121  0.030307  0.599359  0.145435
    H   H42   0.770383  0.942673  0.623307  0.075989
    H   H43   0.830126  0.930096  0.622120  0.099634
    H   H44   0.781326  0.931435  0.560533  0.098638
    H   H45   0.922695  0.014972  0.682378  0.151818
    H   H46   0.986444  0.121322  0.727835  0.075024
    C   C96   0.912065  0.222214  0.779295  0.200795
    C   C97   0.865441  0.233118  0.768963  -0.120748
    C   C98   0.828404  0.215695  0.790182  -0.327426
    C   C99   0.837713  0.186931  0.821622  0.349142
    C   C100  0.798121  0.167848  0.844843  -0.370113
    C   C101  0.884025  0.175644  0.831605  -0.256674
    C   C102  0.921183  0.193317  0.810592  -0.159919
    H   H47   0.857679  0.255031  0.743840  0.118213
    H   H48   0.792129  0.224624  0.781822  0.152423
    H   H49   0.763409  0.180253  0.833061  0.100163
    H   H50   0.824583  0.189459  0.893622  0.099508
    H   H51   0.776879  0.119261  0.825566  0.090196
    H   H52   0.891326  0.153000  0.856075  0.134521
    H   H53   0.957629  0.184661  0.818873  0.088650
    C   C103  0.682703  0.570899  0.765397  0.087720
    C   C104  0.625490  0.558704  0.751291  -0.105745
    C   C105  0.612142  0.603519  0.763609  -0.313544
    C   C106  0.655968  0.661241  0.790716  0.357036
    C   C107  0.642150  0.710055  0.804206  -0.376348
    C   C108  0.713140  0.673901  0.805639  -0.279918
    C   C109  0.726595  0.629168  0.793220  -0.180853
    H   H54   0.590225  0.513770  0.729526  0.099164
    H   H55   0.567064  0.592892  0.751689  0.155012
    H   H56   0.594413  0.692339  0.789443  0.094065
    H   H57   0.653829  0.733785  0.781020  0.102867
    H   H58   0.668337  0.741174  0.852525  0.091927
    H   H59   0.747711  0.719151  0.827266  0.137096
    H   H60   0.771985  0.640872  0.806218  0.140856
    C   C110  0.003701  0.863529  0.236767  0.145620
    C   C111  0.960823  0.855658  0.186638  -0.129903
    C   C112  0.961456  0.903829  0.181837  -0.315839
    C   C113  0.005410  0.960188  0.226970  0.341526
    C   C114  0.006523  0.012592  0.222484  -0.358269
    C   C115  0.048913  0.968127  0.276575  -0.243153
    C   C116  0.048318  0.919987  0.281340  -0.144229
    H   H61   0.925978  0.811699  0.151301  0.120859
    H   H62   0.927237  0.896985  0.142581  0.155009
    H   H63   0.968710  0.998581  0.180081  0.094397
    H   H64   0.048444  0.038405  0.224914  0.082663
    H   H65   0.003732  0.040605  0.259613  0.099956
    H   H66   0.083699  0.012179  0.311770  0.135005
    H   H67   0.083192  0.926716  0.320024  0.111631
    C   C117  0.004352  0.664600  0.254949  0.149500
    C   C118  0.961805  0.629973  0.262526  -0.126615
    C   C119  0.962817  0.582652  0.268219  -0.325167
    C   C120  0.006822  0.570083  0.266977  0.348453
    C   C121  0.008362  0.519045  0.272889  -0.355412
    C   C122  0.049984  0.605253  0.260527  -0.246486
    C   C123  0.049005  0.652574  0.254894  -0.147752
    H   H68   0.926923  0.639217  0.263085  0.120595
    H   H69   0.928860  0.555584  0.273523  0.157931
    H   H70   0.970788  0.495554  0.277742  0.092380
    H   H71   0.050477  0.535131  0.312368  0.083545
    H   H72   0.005457  0.488136  0.232955  0.098398
    H   H73   0.084815  0.595863  0.260075  0.134727
    H   H74   0.083642  0.680425  0.250848  0.116468
