# Generated by REPEAT Assigner based on pymatgen
data_DB0-m1_o14_smb_sqe
_audit_creation_date              2022-05-24
_audit_creation_method            REPEAT_Assigner
_cell_length_a                    18.199351
_cell_length_b                    18.129101
_cell_length_c                    18.161857
_cell_angle_alpha                 97.418181
_cell_angle_beta                  78.351260
_cell_angle_gamma                 73.255255
_cell_volume                      5506.823824
_symmetry_space_group_name_H-M    P1
_symmetry_Int_Tables_number       1
loop_
    _symmetry_equiv_pos_site_id
    _symmetry_equiv_pos_as_xyz
    1  x,y,z
loop_
    _atom_site_type_symbol
    _atom_site_label
    _atom_site_fract_x
    _atom_site_fract_y
    _atom_site_fract_z
    _atom_type_partial_charge
    Zn  Zn1   0.541007  0.552597  0.460860  1.334074
    Zn  Zn2   0.615953  0.383572  0.464436  1.415685
    Zn  Zn3   0.521216  0.506443  0.617104  1.395426
    Zn  Zn4   0.431344  0.459017  0.502746  1.369404
    O   O1    0.527787  0.473208  0.512387  -1.692594
    O   O2    0.643709  0.537290  0.404100  -0.665388
    O   O3    0.676184  0.348295  0.536566  -0.639490
    O   O4    0.502249  0.620506  0.641558  -0.703116
    O   O5    0.688233  0.402571  0.378643  -0.726104
    O   O6    0.496739  0.651821  0.524598  -0.660935
    O   O7    0.611643  0.439298  0.648898  -0.686891
    O   O8    0.423565  0.506914  0.683983  -0.624800
    O   O9    0.391356  0.508265  0.424211  -0.600384
    O   O10   0.348032  0.499645  0.598036  -0.653517
    O   O11   0.486766  0.563340  0.383874  -0.569008
    O   O12   0.583543  0.296395  0.426503  -0.685910
    O   O13   0.447300  0.350061  0.468068  -0.661679
    C   C1    0.353849  0.515032  0.669297  0.610948
    C   C2    0.512043  0.289911  0.435426  0.681604
    C   C3    0.423597  0.546062  0.376932  0.526241
    C   C4    0.694462  0.470378  0.364044  0.717786
    C   C5    0.481397  0.673326  0.598971  0.656251
    C   C6    0.670290  0.374819  0.609491  0.564485
    Zn  Zn5   0.171695  0.503898  0.135718  1.364896
    Zn  Zn6   0.137642  0.664008  0.091574  1.340499
    Zn  Zn7   0.043939  0.554077  0.053400  1.373105
    Zn  Zn8   0.021817  0.637487  0.220283  1.391133
    O   O14   0.092670  0.590805  0.124876  -1.684791
    O   O15   0.258946  0.531351  0.152741  -0.641217
    O   O16   0.149425  0.654538  0.984208  -0.608453
    O   O17   0.099098  0.447561  0.005193  -0.588650
    O   O18   0.238544  0.649942  0.115388  -0.682508
    O   O19   0.209182  0.416586  0.051965  -0.666801
    O   O20   0.055112  0.598612  0.962119  -0.690050
    O   O21   0.939578  0.553404  0.101484  -0.681173
    O   O22   0.049599  0.583716  0.300084  -0.699527
    O   O23   0.921815  0.624861  0.221896  -0.641502
    O   O24   0.137998  0.468170  0.225561  -0.680054
    O   O25   0.080321  0.770621  0.144935  -0.660849
    O   O26   0.010214  0.746124  0.253187  -0.634235
    C   C7    0.897772  0.582919  0.173129  0.569400
    C   C8    0.034373  0.795530  0.215221  0.558828
    C   C9    0.093712  0.510321  0.292440  0.748470
    C   C10   0.279307  0.593839  0.144576  0.715293
    C   C11   0.168976  0.399850  0.003716  0.627349
    C   C12   0.110268  0.630159  0.937709  0.619922
    Zn  Zn9   0.181186  0.122923  0.458283  1.368330
    Zn  Zn10  0.254705  0.091954  0.591765  1.300161
    Zn  Zn11  0.101015  0.223722  0.620779  1.318361
    Zn  Zn12  0.099149  0.052822  0.586919  1.394005
    O   O27   0.158279  0.121660  0.564043  -1.641196
    O   O28   0.292720  0.097161  0.410084  -0.697922
    O   O29   0.257492  0.155492  0.682346  -0.604763
    O   O30   0.100642  0.303250  0.561547  -0.655464
    O   O31   0.343507  0.089416  0.514820  -0.598150
    O   O32   0.140163  0.226209  0.441211  -0.617548
    O   O33   0.136405  0.250873  0.709129  -0.634002
    O   O34   0.992238  0.238267  0.656279  -0.562344
    O   O35   0.082572  0.001571  0.494018  -0.603145
    O   O36   0.987031  0.112539  0.644087  -0.703888
    O   O37   0.136453  0.058738  0.400715  -0.636218
    O   O38   0.277390  0.992953  0.616455  -0.613499
    O   O39   0.158835  0.967313  0.633271  -0.711428
    C   C13   0.951219  0.189926  0.664852  0.596744
    C   C14   0.233879  0.949779  0.638433  0.634344
    C   C15   0.095752  0.012598  0.422719  0.514455
    C   C16   0.353250  0.088546  0.441157  0.620180
    C   C17   0.114734  0.295639  0.486751  0.608198
    C   C18   0.203621  0.218750  0.726192  0.542267
    H   H1    0.484831  0.482769  0.231922  0.113395
    C   C19   0.283064  0.675649  0.402277  -0.160651
    H   H2    0.305518  0.662298  0.451248  0.153387
    C   C20   0.212672  0.735587  0.415766  -0.123552
    H   H3    0.182065  0.767387  0.473576  0.091104
    C   C21   0.180701  0.754210  0.355811  0.007678
    H   H4    0.124859  0.800628  0.366696  0.114226
    C   C22   0.219651  0.714067  0.282089  -0.371835
    H   H5    0.193134  0.732768  0.237135  0.210581
    C   C23   0.291324  0.653802  0.267221  0.247656
    C   C24   0.321968  0.633743  0.328267  0.071007
    C   C25   0.389985  0.570223  0.314965  -0.031415
    C   C26   0.431125  0.531838  0.241509  -0.078736
    H   H6    0.427665  0.513328  0.124879  0.128598
    C   C27   0.400473  0.550790  0.180980  -0.123708
    C   C28   0.329072  0.609234  0.193368  -0.170054
    H   H7    0.236321  0.456974  0.712762  0.121278
    C   C29   0.318068  0.668827  0.767076  -0.175358
    H   H8    0.374481  0.644833  0.726993  0.138624
    C   C30   0.301120  0.742210  0.811211  -0.068013
    H   H9    0.344684  0.772037  0.805979  0.079861
    C   C31   0.228378  0.778441  0.861227  -0.038754
    H   H10   0.213943  0.837287  0.893681  0.079938
    C   C32   0.175149  0.738252  0.871855  -0.190437
    H   H11   0.118276  0.767536  0.912316  0.125890
    C   C33   0.195025  0.661181  0.833327  0.065228
    C   C34   0.264936  0.627298  0.776575  0.098434
    C   C35   0.280927  0.552549  0.732339  -0.033528
    C   C36   0.225368  0.514421  0.746626  -0.017591
    H   H12   0.125761  0.507885  0.827021  0.169096
    C   C37   0.160988  0.544549  0.809868  -0.233758
    C   C38   0.147532  0.616775  0.855494  -0.004313
    H   H13   0.844324  0.448462  0.358110  0.115395
    C   C39   0.656047  0.510144  0.225488  -0.164814
    H   H14   0.617959  0.483849  0.258599  0.116805
    C   C40   0.631556  0.544302  0.167298  -0.099222
    H   H15   0.575247  0.545195  0.156311  0.098644
    C   C41   0.678594  0.577425  0.122824  -0.088897
    H   H16   0.658849  0.604579  0.077585  0.105870
    C   C42   0.750726  0.576124  0.135927  -0.220304
    H   H17   0.786024  0.603147  0.100369  0.163120
    C   C43   0.776522  0.540690  0.193345  0.116997
    C   C44   0.728919  0.507823  0.238940  0.104443
    C   C45   0.753239  0.475145  0.299021  -0.062847
    C   C46   0.826479  0.470875  0.309885  -0.094535
    H   H18   0.928749  0.503738  0.277298  0.170668
    C   C47   0.872924  0.504020  0.265379  -0.235805
    C   C48   0.847432  0.541338  0.209143  0.072205
    H   H19   0.424539  0.273091  0.342094  0.133897
    C   C49   0.588090  0.137803  0.473351  -0.272419
    H   H20   0.619344  0.179574  0.478937  0.158290
    C   C50   0.611691  0.071416  0.503356  -0.125220
    H   H21   0.659796  0.063044  0.531246  0.117225
    C   C51   0.574274  0.015792  0.497887  -0.004286
    H   H22   0.593006  0.963636  0.521328  0.085884
    C   C52   0.512314  0.027023  0.463370  -0.226901
    H   H23   0.483754  0.982498  0.459634  0.130730
    C   C53   0.488415  0.093286  0.432442  0.110942
    C   C54   0.527613  0.148365  0.435814  0.216642
    C   C55   0.500815  0.215854  0.406962  -0.076051
    C   C56   0.445370  0.220749  0.364686  -0.147095
    H   H24   0.356106  0.178191  0.337299  0.160552
    C   C57   0.407238  0.165839  0.360970  -0.114431
    C   C58   0.422253  0.107378  0.402653  -0.070658
    H   H25   0.232307  0.805300  0.589782  0.187675
    C   C59   0.338053  0.944250  0.740183  -0.153275
    H   H26   0.285814  0.995801  0.756463  0.114278
    C   C60   0.401315  0.946235  0.770190  -0.079521
    H   H27   0.398281  0.998968  0.807749  0.089849
    C   C61   0.468387  0.881458  0.752343  -0.055290
    H   H28   0.518069  0.883385  0.775709  0.100801
    C   C62   0.471883  0.813810  0.705598  -0.298402
    H   H29   0.524832  0.763479  0.693562  0.164817
    C   C63   0.407955  0.810688  0.676409  0.243129
    C   C64   0.340935  0.876952  0.691993  0.093338
    C   C65   0.278325  0.876552  0.658095  -0.061400
    C   C66   0.278659  0.806666  0.618352  -0.203905
    H   H30   0.345064  0.687243  0.569966  0.085490
    C   C67   0.343988  0.740583  0.605084  -0.080671
    C   C68   0.410298  0.742644  0.630563  -0.050049
    H   H31   0.737235  0.221660  0.568726  0.160825
    C   C69   0.733537  0.432952  0.739302  -0.193709
    H   H32   0.686172  0.476045  0.726354  0.156507
    C   C70   0.765530  0.459318  0.795750  -0.125689
    H   H33   0.741903  0.520246  0.824865  0.115773
    C   C71   0.826898  0.408556  0.815556  -0.023611
    H   H34   0.851216  0.429277  0.860581  0.096535
    C   C72   0.858171  0.331590  0.777324  -0.241914
    H   H35   0.906086  0.292975  0.794737  0.139845
    C   C73   0.827642  0.303964  0.719420  0.140237
    C   C74   0.762078  0.354523  0.701828  0.097971
    C   C75   0.730108  0.326093  0.644476  0.068322
    C   C76   0.761342  0.246410  0.611818  -0.217721
    H   H36   0.854611  0.138709  0.594576  0.166920
    C   C77   0.827288  0.197683  0.628045  -0.146859
    C   C78   0.864329  0.226870  0.678112  -0.037001
    H   H37   0.105213  0.292048  0.981402  0.143439
    C   C79   0.310895  0.375726  0.884673  -0.140460
    H   H38   0.308241  0.410609  0.938425  0.112369
    C   C80   0.366563  0.376452  0.821249  -0.121559
    H   H39   0.404924  0.411507  0.826671  0.110689
    C   C81   0.372956  0.333358  0.750946  -0.015160
    H   H40   0.416205  0.334625  0.701070  0.072441
    C   C82   0.323218  0.289868  0.743687  -0.235380
    H   H41   0.329140  0.258232  0.687115  0.142358
    C   C83   0.267610  0.287775  0.807450  0.104949
    C   C84   0.261687  0.330396  0.878669  0.097066
    C   C85   0.202135  0.332181  0.941292  -0.042676
    C   C86   0.153583  0.287661  0.933587  -0.180101
    H   H42   0.116226  0.216844  0.856613  0.129304
    C   C87   0.158879  0.246525  0.863256  -0.119823
    C   C88   0.213375  0.248829  0.800071  0.038098
    H   H43   0.041479  0.393192  0.289051  0.092786
    C   C89   0.134650  0.549701  0.434846  -0.246694
    H   H44   0.131056  0.592212  0.398138  0.168100
    C   C90   0.163534  0.562491  0.497949  -0.066668
    H   H45   0.181089  0.613950  0.509816  0.096890
    C   C91   0.171117  0.509265  0.545444  -0.064454
    H   H46   0.194670  0.519007  0.594447  0.079195
    C   C92   0.149621  0.443164  0.530461  -0.195649
    H   H47   0.159170  0.402633  0.568562  0.133513
    C   C93   0.117345  0.430755  0.468664  0.109075
    C   C94   0.110532  0.484470  0.420282  0.166657
    C   C95   0.084394  0.469379  0.355038  -0.164494
    C   C96   0.060662  0.405098  0.340586  -0.006963
    H   H48   0.048606  0.301726  0.374393  0.139670
    C   C97   0.065584  0.353191  0.388487  -0.193927
    C   C98   0.096262  0.363557  0.450786  -0.017506
    H   H49   0.171351  0.954802  0.277610  0.153597
    C   C99   0.937358  0.995772  0.450171  -0.291570
    H   H50   0.945954  0.038767  0.491324  0.169758
    C   C100  0.865589  0.982525  0.465792  -0.044817
    H   H51   0.821623  0.013076  0.518752  0.093997
    C   C101  0.848991  0.932073  0.413425  -0.088147
    H   H52   0.791971  0.922934  0.425157  0.103097
    C   C102  0.904054  0.894923  0.345087  -0.172558
    H   H53   0.887191  0.859060  0.303659  0.132941
    C   C103  0.977044  0.907073  0.328794  0.085191
    C   C104  0.994267  0.957681  0.382075  0.168142
    C   C105  0.067272  0.970731  0.365462  0.031311
    C   C106  0.115690  0.943297  0.292232  -0.166364
    H   H54   0.142290  0.866700  0.185739  0.156086
    C   C107  0.098413  0.893742  0.239478  -0.141507
    C   C108  0.032460  0.870357  0.259278  -0.005291
