# Generated by REPEAT Assigner based on pymatgen
data_DB0-m2_o21_uoe
_audit_creation_date              2022-05-24
_audit_creation_method            REPEAT_Assigner
_cell_length_a                    23.115464
_cell_length_b                    52.346914
_cell_length_c                    52.458157
_cell_angle_alpha                 89.778255
_cell_angle_beta                  79.971603
_cell_angle_gamma                 80.227183
_cell_volume                      61577.145644
_symmetry_space_group_name_H-M    P1
_symmetry_Int_Tables_number       1
loop_
    _symmetry_equiv_pos_site_id
    _symmetry_equiv_pos_as_xyz
    1  x,y,z
loop_
    _atom_site_type_symbol
    _atom_site_label
    _atom_site_fract_x
    _atom_site_fract_y
    _atom_site_fract_z
    _atom_type_partial_charge
    C   C1    0.520598  0.450402  0.520329  0.834675
    C   C2    0.584929  0.924958  0.679578  0.720932
    C   C3    0.961604  0.571067  0.145971  -0.287231
    C   C4    0.527658  0.953911  0.867457  -0.313284
    C   C5    0.480860  0.956652  0.825063  -0.063280
    C   C6    0.508290  0.955665  0.800375  -0.058288
    C   C7    0.474488  0.957633  0.779415  0.030818
    C   C8    0.514653  0.954713  0.846025  0.041466
    C   C9    0.461292  0.958726  0.758017  -0.282460
    C   C10   0.203652  0.751035  0.140849  -0.213684
    C   C11   0.295824  0.765865  0.155507  -0.049488
    C   C12   0.296565  0.783962  0.173193  -0.061272
    C   C13   0.462653  0.951993  0.731186  0.942093
    C   C14   0.352452  0.789285  0.178760  -0.013249
    C   C15   0.239936  0.760523  0.149960  -0.021373
    C   C16   0.388715  0.798383  0.188270  -0.215251
    C   C17   0.712680  0.839776  0.177141  -0.257809
    C   C18   0.798552  0.809602  0.146840  -0.112118
    C   C19   0.794596  0.791927  0.129370  -0.124154
    C   C20   0.847865  0.776986  0.114602  0.130206
    C   C21   0.745283  0.824508  0.161642  0.113378
    C   C22   0.880435  0.761340  0.099476  -0.263904
    C   C23   0.545731  0.842202  0.111102  -0.335886
    C   C24   0.356674  0.952855  0.683540  0.847421
    C   C25   0.557699  0.875256  0.073589  -0.077743
    C   C26   0.535423  0.876427  0.051722  -0.072803
    C   C27   0.546962  0.896261  0.033186  0.068020
    C   C28   0.546160  0.855423  0.092125  0.071915
    C   C29   0.547377  0.909481  0.014209  -0.329067
    C   C30   0.130472  0.180901  0.979354  -0.259836
    C   C31   0.102068  0.135093  0.972960  -0.020164
    C   C32   0.092919  0.116857  0.990372  -0.066986
    C   C33   0.077598  0.092539  0.982993  0.012587
    C   C34   0.117406  0.159411  0.980329  -0.022199
    C   C35   0.546913  0.833792  0.137252  0.904278
    C   C36   0.064688  0.071024  0.983701  -0.288903
    C   C37   0.047150  0.827887  0.096884  -0.299244
    C   C38   0.054604  0.863129  0.061313  -0.039491
    C   C39   0.037878  0.888781  0.063998  -0.034963
    C   C40   0.045817  0.905195  0.041882  0.009688
    C   C41   0.046664  0.846715  0.083430  0.014406
    C   C42   0.045316  0.924027  0.028433  -0.293204
    C   C43   0.212096  0.990550  0.025751  -0.261623
    C   C44   0.297979  0.959905  0.995948  -0.119290
    C   C45   0.294082  0.942200  0.978497  -0.116644
    C   C46   0.654932  0.832380  0.179960  0.744178
    C   C47   0.347388  0.927267  0.963750  0.118311
    C   C48   0.244675  0.974872  0.010661  0.122766
    C   C49   0.380081  0.911957  0.948321  -0.258071
    C   C50   0.888766  0.000865  0.984486  -0.217811
    C   C51   0.825429  0.977466  0.958194  -0.017556
    C   C52   0.767434  0.976310  0.963678  -0.085397
    C   C53   0.740205  0.962505  0.946513  0.003363
    C   C54   0.852650  0.991294  0.975342  -0.036093
    C   C55   0.704096  0.953355  0.936949  -0.224279
    C   C56   0.163674  0.451851  0.367715  -0.333414
    C   C57   0.558316  0.805151  0.231825  0.940074
    C   C58   0.249207  0.450605  0.327027  -0.117704
    C   C59   0.245596  0.450527  0.301834  -0.155240
    C   C60   0.298264  0.449864  0.281974  0.111289
    C   C61   0.196530  0.451292  0.346886  0.117597
    C   C62   0.331007  0.449498  0.261136  -0.322213
    C   C63   0.037756  0.341574  0.610545  -0.259648
    C   C64   0.040238  0.377884  0.575850  -0.045118
    C   C65   0.051017  0.375320  0.550067  -0.044296
    C   C66   0.050579  0.397875  0.534004  -0.007446
    C   C67   0.040677  0.355329  0.591914  -0.002709
    C   C68   0.446391  0.805621  0.187504  0.828018
    C   C69   0.053507  0.411623  0.515368  -0.257689
    C   C70   0.426944  0.250642  0.641981  -0.245649
    C   C71   0.323514  0.277293  0.663937  -0.096100
    C   C72   0.269274  0.271093  0.665743  -0.085434
    C   C73   0.216966  0.288395  0.678814  0.043049
    C   C74   0.375822  0.259975  0.650889  0.056295
    C   C75   0.165831  0.297446  0.687994  -0.254435
    C   C76   0.820262  0.342126  0.675357  -0.271582
    C   C77   0.780756  0.312025  0.645169  -0.093707
    C   C78   0.811951  0.294428  0.627568  -0.108248
    C   C79   0.106633  0.304958  0.013736  0.872975
    C   C80   0.781699  0.279580  0.612746  0.122826
    C   C81   0.811009  0.326844  0.660018  0.114951
    C   C82   0.772543  0.264238  0.597442  -0.274210
    C   C83   0.832014  0.074462  0.636619  -0.324483
    C   C84   0.746766  0.115111  0.637558  -0.151684
    C   C85   0.750521  0.140355  0.637356  -0.124527
    C   C86   0.697913  0.160176  0.638044  0.119345
    C   C87   0.799364  0.095290  0.636895  0.110272
    C   C88   0.665148  0.180996  0.638512  -0.331435
    C   C89   0.099963  0.825927  0.530759  -0.278054
    C   C90   0.234980  0.255612  0.985415  0.855496
    C   C91   0.071614  0.870512  0.556576  -0.084218
    C   C92   0.018613  0.881841  0.569568  -0.085133
    C   C93   0.011681  0.906744  0.582696  0.036110
    C   C94   0.078547  0.845609  0.543447  0.037295
    C   C95   0.990267  0.926428  0.595381  -0.279768
    C   C96   0.796355  0.791422  0.442873  -0.189679
    C   C97   0.900125  0.776100  0.456862  -0.046222
    C   C98   0.914370  0.758491  0.474198  -0.110550
    C   C99   0.974724  0.752520  0.479210  0.032351
    C   C100  0.839784  0.782050  0.451830  -0.029757
    C   C101  0.129005  0.207771  0.986149  0.932570
    C   C102  0.018284  0.742777  0.487885  -0.210914
    C   C103  0.442092  0.834683  0.448288  -0.250179
    C   C104  0.377318  0.807691  0.479792  -0.060968
    C   C105  0.392592  0.792531  0.498799  -0.127287
    C   C106  0.349482  0.779174  0.514038  0.108850
    C   C107  0.420434  0.821031  0.464535  0.095751
    C   C108  0.325447  0.765868  0.529951  -0.271635
    C   C109  0.148879  0.490681  0.104272  -0.252251
    C   C110  0.213122  0.459294  0.131339  -0.057618
    C   C111  0.197563  0.440263  0.146494  -0.131645
    C   C112  0.601257  0.501405  0.491804  0.852262
    C   C113  0.006581  0.259282  0.013229  0.721061
    C   C114  0.240373  0.425092  0.159897  0.110812
    C   C115  0.170306  0.474483  0.117953  0.098473
    C   C116  0.264094  0.409207  0.173234  -0.274262
    C   C117  0.794288  0.495833  0.147313  -0.201464
    C   C118  0.710781  0.473166  0.173728  -0.040769
    C   C119  0.655394  0.473197  0.169644  -0.116656
    C   C120  0.615381  0.459542  0.186611  0.058128
    C   C121  0.750783  0.486845  0.156782  -0.025615
    C   C122  0.571749  0.450864  0.196499  -0.237152
    C   C123  0.601524  0.344223  0.012632  -0.278839
    C   C124  0.034319  0.707018  0.134187  0.939129
    C   C125  0.570350  0.375216  0.053817  -0.101385
    C   C126  0.521654  0.377293  0.072111  -0.094946
    C   C127  0.512192  0.395704  0.093586  0.052998
    C   C128  0.579813  0.356804  0.032341  0.048068
    C   C129  0.490478  0.408282  0.113297  -0.287972
    C   C130  0.927817  0.301052  0.758117  -0.330142
    C   C131  0.842391  0.302215  0.798832  -0.120618
    C   C132  0.846091  0.302212  0.824017  -0.151897
    C   C133  0.793474  0.302837  0.843895  0.110824
    C   C134  0.895019  0.301564  0.778955  0.118205
    C   C135  0.146108  0.751668  0.133613  0.840013
    C   C136  0.760791  0.303149  0.864742  -0.324439
    C   C137  0.648250  0.917218  0.677398  -0.251812
    C   C138  0.713056  0.944403  0.646126  -0.060694
    C   C139  0.697772  0.959669  0.627194  -0.126373
    C   C140  0.740852  0.973118  0.612063  0.105108
    C   C141  0.669971  0.930971  0.661274  0.098289
    C   C142  0.764807  0.986519  0.596226  -0.270533
    C   C143  0.072154  0.009560  0.638140  -0.242574
    C   C144  0.157110  0.981729  0.658725  -0.133826
    C   C145  0.209069  0.987809  0.662118  -0.024795
    C   C146  0.045938  0.801709  0.105352  0.898659
    C   C147  0.250550  0.969867  0.674053  -0.032290
    C   C148  0.115617  0.999687  0.646813  0.072590
    C   C149  0.293893  0.960399  0.683022  -0.208799
    C   C150  0.494724  0.916258  0.607313  -0.284413
    C   C151  0.552480  0.879608  0.573847  -0.105120
    C   C152  0.537544  0.872201  0.551937  -0.104111
    C   C153  0.575337  0.851422  0.535834  0.078023
    C   C154  0.514688  0.900388  0.589950  0.077245
    C   C155  0.595328  0.835557  0.518468  -0.287936
    C   C156  0.629302  0.793170  0.367710  -0.275552
    C   C157  0.938048  0.758670  0.106870  0.742824
    C   C158  0.620927  0.795490  0.318370  -0.039796
    C   C159  0.572905  0.795867  0.307320  -0.047433
    C   C160  0.577319  0.797094  0.279452  0.014220
    C   C161  0.616527  0.794236  0.346236  -0.002482
    C   C162  0.564730  0.797884  0.257945  -0.302478
    C   C163  0.297812  0.256186  0.977893  -0.222299
    C   C164  0.391878  0.278606  0.965431  -0.037242
    C   C165  0.426037  0.279467  0.942267  -0.119627
    C   C166  0.476660  0.292787  0.939129  0.069965
    C   C167  0.341266  0.265278  0.968563  -0.014004
    C   C168  0.534219  0.946622  0.893556  0.941997
    C   C169  0.520245  0.301597  0.929424  -0.248803
    C   C170  0.827769  0.343443  0.952618  -0.265834
    C   C171  0.894566  0.312157  0.979081  -0.125942
    C   C172  0.879023  0.293056  0.994139  -0.056341
    C   C173  0.921915  0.277725  0.007384  0.086740
    C   C174  0.851678  0.327470  0.965818  0.102430
    C   C175  0.943223  0.261378  0.020954  -0.241060
    C   C176  0.646405  0.946116  0.937763  0.838807
    C   C177  0.546077  0.917913  0.988072  0.896165
    C   C178  0.437833  0.919353  0.945466  0.738828
    C   C179  0.046536  0.950199  0.019948  0.892015
    C   C180  0.450764  0.545429  0.493873  0.951585
    C   C181  0.154465  0.993223  0.018372  0.747424
    C   C182  0.058201  0.044870  0.991047  0.929046
    C   C183  0.946334  0.000234  0.991699  0.830615
    C   C184  0.138760  0.445680  0.393871  0.956410
    C   C185  0.210422  0.418882  0.447060  0.745312
    C   C186  0.069164  0.419589  0.489038  0.840090
    C   C187  0.988337  0.447869  0.438277  0.854929
    C   C188  0.640248  0.207118  0.632266  0.955738
    C   C189  0.711950  0.260555  0.605403  0.747495
    C   C190  0.570584  0.302203  0.605920  0.836124
    C   C191  0.379189  0.492032  0.520914  0.744442
    C   C192  0.489816  0.251175  0.634256  0.848410
    C   C193  0.126027  0.799484  0.522791  0.882094
    C   C194  0.271687  0.760634  0.522447  0.791914
    C   C195  0.226702  0.704078  0.496010  0.947557
    C   C196  0.074596  0.745050  0.495163  0.799880
    C   C197  0.464158  0.416214  0.139710  0.881606
    C   C198  0.515354  0.443659  0.194161  0.819965
    C   C199  0.362847  0.442937  0.235016  0.935563
    C   C200  0.317945  0.416638  0.178478  0.799944
    C   C201  0.022120  0.333563  0.636860  0.838691
    C   C202  0.963091  0.544207  0.139135  0.946875
    C   C203  0.102989  0.305211  0.687595  0.844157
    C   C204  0.952661  0.307280  0.731972  0.951775
    C   C205  0.880860  0.334144  0.678857  0.750066
    C   C206  0.863726  0.048313  0.630078  0.939689
    C   C207  0.015805  0.007300  0.630894  0.824553
    C   C208  0.964236  0.952878  0.603336  0.877647
    C   C209  0.818591  0.991750  0.603708  0.795928
    C   C210  0.627832  0.799890  0.394554  0.938131
    C   C211  0.733600  0.798980  0.442304  0.838384
    C   C212  0.605145  0.827282  0.491665  0.873568
    C   C213  0.085526  0.492748  0.111991  0.718742
    C   C214  0.505403  0.826923  0.446129  0.722661
    C   C215  0.728993  0.309682  0.890872  0.934284
    C   C216  0.773930  0.335982  0.947395  0.789850
    C   C217  0.627808  0.336312  0.986210  0.876369
    C   C218  0.576600  0.308846  0.931760  0.838697
    C   C219  0.270988  0.410882  0.450596  -0.266217
    C   C220  0.310253  0.440818  0.481012  -0.091747
    C   C221  0.279042  0.458373  0.498653  -0.108147
    C   C222  0.309277  0.473117  0.513584  0.117223
    C   C223  0.280021  0.426102  0.466052  0.109060
    C   C224  0.985491  0.447062  0.111401  0.870850
    C   C225  0.318609  0.488359  0.528944  -0.270489
    C   C226  0.925486  0.455641  0.437897  -0.243043
    C   C227  0.813354  0.478113  0.449740  -0.133846
    C   C228  0.776214  0.479194  0.472408  -0.101734
    C   C229  0.715280  0.492693  0.475085  0.048306
    C   C230  0.874299  0.464627  0.447059  0.062209
    C   C231  0.664111  0.501943  0.484004  -0.257835
    C   C232  0.554810  0.328515  0.597896  -0.260690
    C   C233  0.560946  0.371471  0.572251  -0.020312
    C   C234  0.530266  0.381156  0.554045  -0.019111
    C   C235  0.857127  0.496390  0.139788  0.839607
    C   C236  0.539825  0.405395  0.542042  -0.008648
    C   C237  0.551388  0.347231  0.584253  -0.003025
    C   C238  0.536403  0.424106  0.528391  -0.253857
    C   C239  0.258472  0.677940  0.489464  -0.332674
    C   C240  0.343919  0.637356  0.488426  -0.153762
    C   C241  0.340216  0.612107  0.488865  -0.122288
    C   C242  0.392939  0.592327  0.488068  0.119622
    C   C243  0.291206  0.657136  0.489197  0.116175
    C   C244  0.425797  0.571533  0.487602  -0.329268
    C   C245  0.995179  0.420250  0.103047  -0.286599
    C   C246  0.484998  0.924547  0.634110  0.868919
    C   C247  0.054010  0.386726  0.066659  -0.099981
    C   C248  0.038111  0.365307  0.058433  -0.103561
    C   C249  0.076735  0.349069  0.037976  0.076018
    C   C250  0.015386  0.402964  0.087116  0.077010
    C   C251  0.096952  0.331781  0.022049  -0.284332
    C   C252  0.027854  0.680858  0.141515  -0.310715
    C   C253  0.981114  0.638284  0.144046  -0.063109
    C   C254  0.008547  0.613606  0.143107  -0.055682
    C   C255  0.974782  0.592536  0.144942  0.031178
    C   C256  0.014869  0.659356  0.142240  0.038195
    Cu  Cu1   0.487589  0.489531  0.483026  1.034031
    Cu  Cu2   0.112896  0.263313  0.975929  1.052989
    Cu  Cu3   0.067680  0.745708  0.096839  1.109520
    Cu  Cu4   0.016416  0.763114  0.143634  1.086330
    Cu  Cu5   0.516722  0.956173  0.949546  1.079407
    Cu  Cu6   0.567449  0.909284  0.932160  1.114258
    Cu  Cu7   0.076030  0.988771  0.981638  1.087971
    Cu  Cu8   0.024838  0.006206  0.028436  1.101593
    Cu  Cu9   0.102278  0.456784  0.449679  1.030639
    Cu  Cu10  0.098561  0.409946  0.433278  1.088183
    Cu  Cu11  0.600439  0.246358  0.596442  1.089348
    Cu  Cu12  0.490789  0.506261  0.529719  1.089430
    Cu  Cu13  0.603400  0.263002  0.643193  1.030138
    Cu  Cu14  0.155544  0.744338  0.532290  1.087138
    Cu  Cu15  0.192791  0.759148  0.485340  1.021581
    Cu  Cu16  0.397464  0.453680  0.180040  1.014636
    Cu  Cu17  0.433793  0.406603  0.194757  1.089818
    Cu  Cu18  0.992714  0.343103  0.692631  1.084784
    Cu  Cu19  0.989095  0.296284  0.676148  1.030333
    Cu  Cu20  0.897575  0.993245  0.640774  1.018350
    Cu  Cu21  0.934767  0.008021  0.593803  1.091835
    Cu  Cu22  0.627847  0.836396  0.436382  1.086804
    Cu  Cu23  0.979223  0.488649  0.149270  1.047836
    Cu  Cu24  0.611297  0.789520  0.450001  1.049929
    Cu  Cu25  0.658016  0.345962  0.931166  1.090985
    Cu  Cu26  0.694530  0.298892  0.945844  1.016714
    Cu  Cu27  0.963313  0.502453  0.102489  1.090801
    Cu  Cu28  0.478967  0.962337  0.675735  1.048161
    Cu  Cu29  0.462512  0.915456  0.689401  1.093375
    Cu  Cu30  0.525297  0.842462  0.193161  1.108875
    Cu  Cu31  0.576074  0.795561  0.175836  1.081392
    Cu  Cu32  0.128789  0.249583  0.022728  1.093632
    H   H1    0.230727  0.461600  0.501780  0.207382
    H   H2    0.096264  0.392007  0.057931  0.191556
    H   H3    0.056723  0.609274  0.140954  0.181665
    H   H4    0.932937  0.642614  0.146200  0.185763
    H   H5    0.556502  0.953371  0.795949  0.182891
    H   H6    0.432648  0.958948  0.829487  0.184947
    H   H7    0.254904  0.794761  0.183487  0.188238
    H   H8    0.337485  0.755064  0.145215  0.185817
    H   H9    0.751181  0.788752  0.126264  0.209426
    H   H10   0.841967  0.812770  0.149952  0.209572
    H   H11   0.508407  0.862377  0.047805  0.191692
    H   H12   0.358568  0.437598  0.477878  0.201553
    H   H13   0.584715  0.889307  0.077506  0.191957
    H   H14   0.097013  0.120287  0.010293  0.197839
    H   H15   0.097973  0.131659  0.953040  0.190142
    H   H16   0.018145  0.897408  0.082939  0.186868
    H   H17   0.074337  0.854501  0.042372  0.190299
    H   H18   0.250689  0.939028  0.975359  0.208054
    H   H19   0.341372  0.963084  0.999080  0.210141
    H   H20   0.740479  0.985813  0.981148  0.193188
    H   H21   0.852379  0.967963  0.940723  0.177712
    H   H22   0.202578  0.450976  0.296121  0.205772
    H   H23   0.791856  0.469858  0.489016  0.192365
    H   H24   0.292225  0.450157  0.332741  0.192978
    H   H25   0.060208  0.356124  0.541046  0.195552
    H   H26   0.031047  0.397079  0.584872  0.195085
    H   H27   0.264317  0.252877  0.657331  0.176941
    H   H28   0.328477  0.295507  0.672349  0.181728
    H   H29   0.860267  0.291244  0.624389  0.204900
    H   H30   0.732440  0.315201  0.648355  0.201033
    H   H31   0.793610  0.146141  0.636676  0.196578
    H   H32   0.703677  0.109326  0.638239  0.205228
    H   H33   0.980290  0.872283  0.570301  0.196130
    H   H34   0.797705  0.487450  0.433135  0.202737
    H   H35   0.109937  0.880070  0.555842  0.192863
    H   H36   0.880373  0.748544  0.484628  0.197045
    H   H37   0.934123  0.786046  0.446431  0.180919
    H   H38   0.437608  0.790222  0.502814  0.203735
    H   H39   0.332312  0.809995  0.475770  0.187658
    H   H40   0.152541  0.436177  0.148765  0.205278
    H   H41   0.258134  0.463387  0.129074  0.186716
    H   H42   0.640202  0.483571  0.153454  0.196524
    H   H43   0.725964  0.462793  0.189919  0.173966
    H   H44   0.488787  0.365049  0.070878  0.196737
    H   H45   0.497807  0.370750  0.548174  0.168118
    H   H46   0.603218  0.387460  0.055050  0.199203
    H   H47   0.889144  0.301724  0.829708  0.204732
    H   H48   0.799340  0.302702  0.793140  0.194343
    H   H49   0.652771  0.961996  0.623159  0.204968
    H   H50   0.758048  0.942082  0.650168  0.186153
    H   H51   0.220320  0.006393  0.655878  0.168364
    H   H52   0.145847  0.963146  0.664965  0.199941
    H   H53   0.496705  0.881845  0.546151  0.192964
    H   H54   0.593319  0.869963  0.579633  0.193982
    H   H55   0.530034  0.795235  0.319359  0.185168
    H   H56   0.593404  0.381877  0.578122  0.167646
    H   H57   0.663799  0.796120  0.306331  0.183066
    H   H58   0.415755  0.270087  0.925624  0.194331
    H   H59   0.402156  0.287985  0.982076  0.158946
    H   H60   0.833965  0.289014  0.996430  0.186600
    H   H61   0.939634  0.316193  0.976784  0.203499
    H   H62   0.297085  0.606284  0.489823  0.194668
    H   H63   0.387051  0.643177  0.487466  0.205229
    H   H64   0.995857  0.360026  0.067161  0.191692
    O   O1    0.511833  0.454910  0.496476  -0.631547
    O   O2    0.957697  0.537976  0.115542  -0.698417
    O   O3    0.073034  0.288433  0.679860  -0.617725
    O   O4    0.964558  0.330674  0.727185  -0.686856
    O   O5    0.961359  0.289875  0.713019  -0.694728
    O   O6    0.909596  0.350936  0.687529  -0.588663
    O   O7    0.906953  0.310118  0.673100  -0.563621
    O   O8    0.861132  0.030090  0.647412  -0.672178
    O   O9    0.893655  0.042767  0.606527  -0.678419
    O   O10   0.974318  0.999455  0.647962  -0.630577
    O   O11   0.007004  0.012342  0.607152  -0.606458
    O   O12   0.936359  0.958313  0.627278  -0.655521
    O   O13   0.063719  0.487516  0.135844  -0.531340
    O   O14   0.968318  0.971336  0.586436  -0.667363
    O   O15   0.826951  0.987550  0.627561  -0.563785
    O   O16   0.858842  0.000493  0.586650  -0.629433
    O   O17   0.633497  0.823478  0.400861  -0.691444
    O   O18   0.619232  0.782664  0.412541  -0.697459
    O   O19   0.712540  0.822783  0.436389  -0.613744
    O   O20   0.697775  0.782083  0.448270  -0.630488
    O   O21   0.616266  0.844023  0.473547  -0.676080
    O   O22   0.601940  0.803275  0.485565  -0.665140
    O   O23   0.540924  0.843834  0.439352  -0.603042
    O   O24   0.050257  0.499564  0.095106  -0.600828
    O   O25   0.526913  0.803006  0.451247  -0.530621
    O   O26   0.699304  0.333269  0.896446  -0.674887
    O   O27   0.731236  0.292298  0.909044  -0.666577
    O   O28   0.733946  0.353093  0.938699  -0.630097
    O   O29   0.765259  0.312094  0.951547  -0.562408
    O   O30   0.624125  0.353276  0.967810  -0.670471
    O   O31   0.655493  0.312344  0.980744  -0.649406
    O   O32   0.585695  0.332630  0.926789  -0.606733
    O   O33   0.617800  0.291732  0.939585  -0.633839
    O   O34   0.988477  0.453087  0.135400  -0.665226
    O   O35   0.974700  0.465260  0.094741  -0.677368
    O   O36   0.892698  0.490348  0.156659  -0.627657
    O   O37   0.878499  0.502391  0.116045  -0.611544
    O   O38   0.488190  0.948562  0.640186  -0.664120
    O   O39   0.473975  0.907810  0.652244  -0.676489
    O   O40   0.563370  0.948867  0.674455  -0.532911
    O   O41   0.514263  0.469655  0.537105  -0.677557
    O   O42   0.549446  0.908037  0.686383  -0.602810
    O   O43   0.471154  0.969213  0.713185  -0.702893
    O   O44   0.456997  0.928397  0.724902  -0.697884
    O   O45   0.392465  0.969759  0.677534  -0.629285
    O   O46   0.377790  0.929058  0.689451  -0.614343
    O   O47   0.525644  0.850430  0.156656  -0.692528
    O   O48   0.569695  0.809698  0.141469  -0.675474
    O   O49   0.606987  0.849441  0.188684  -0.620265
    O   O50   0.650842  0.808628  0.173612  -0.545245
    O   O51   0.533944  0.828943  0.227467  -0.677594
    O   O52   0.571482  0.493494  0.475102  -0.624151
    O   O53   0.578015  0.788151  0.212545  -0.708746
    O   O54   0.450251  0.829285  0.194458  -0.599072
    O   O55   0.494645  0.788569  0.179377  -0.638461
    O   O56   0.117409  0.286785  0.030423  -0.678499
    O   O57   0.103656  0.298895  0.989745  -0.668422
    O   O58   0.213601  0.249640  0.009166  -0.617833
    O   O59   0.199419  0.261619  0.968534  -0.630439
    O   O60   0.134400  0.214038  0.009732  -0.696367
    O   O61   0.120702  0.225819  0.968990  -0.703837
    O   O62   0.041842  0.252484  0.030121  -0.605009
    O   O63   0.574657  0.508085  0.515674  -0.616282
    O   O64   0.028395  0.264474  0.989365  -0.528960
    O   O65   0.058937  0.711353  0.110413  -0.677836
    O   O66   0.014426  0.726352  0.151115  -0.710411
    O   O67   0.142522  0.744614  0.109995  -0.602328
    O   O68   0.097701  0.759768  0.150622  -0.646125
    O   O69   0.067400  0.782258  0.088782  -0.700880
    O   O70   0.022917  0.797516  0.129426  -0.676662
    O   O71   0.986147  0.749982  0.089850  -0.616745
    O   O72   0.941864  0.765119  0.130577  -0.553462
    O   O73   0.514605  0.963605  0.912856  -0.712029
    O   O74   0.459685  0.526383  0.476549  -0.691873
    O   O75   0.558634  0.922827  0.897878  -0.680080
    O   O76   0.598168  0.963160  0.945943  -0.635646
    O   O77   0.642516  0.922459  0.930799  -0.604343
    O   O78   0.523260  0.942012  0.983890  -0.675007
    O   O79   0.567271  0.901289  0.968650  -0.693196
    O   O80   0.441952  0.943098  0.951828  -0.545289
    O   O81   0.485758  0.902300  0.936694  -0.618137
    O   O82   0.069532  0.954378  0.995866  -0.682709
    O   O83   0.025107  0.969660  0.036508  -0.691811
    O   O84   0.150612  0.986757  0.994675  -0.547861
    O   O85   0.462540  0.540762  0.517228  -0.690672
    O   O86   0.106392  0.001930  0.035399  -0.620911
    O   O87   0.078045  0.025527  0.974127  -0.713011
    O   O88   0.033616  0.040547  0.014829  -0.672823
    O   O89   0.994716  0.992119  0.974680  -0.638839
    O   O90   0.949967  0.007302  0.015306  -0.599034
    O   O91   0.130086  0.463115  0.412795  -0.693952
    O   O92   0.126782  0.422305  0.398699  -0.688563
    O   O93   0.184383  0.442923  0.452767  -0.561901
    O   O94   0.181654  0.402089  0.438410  -0.588206
    O   O95   0.078109  0.443463  0.484371  -0.631365
    O   O96   0.405456  0.486250  0.496922  -0.563703
    O   O97   0.075217  0.402704  0.469912  -0.682825
    O   O98   0.018336  0.464651  0.445972  -0.622366
    O   O99   0.014717  0.423949  0.431663  -0.619309
    O   O100  0.628600  0.211831  0.608898  -0.692425
    O   O101  0.631250  0.226134  0.649628  -0.692930
    O   O102  0.683503  0.251730  0.588633  -0.582367
    O   O103  0.685574  0.266296  0.629389  -0.567488
    O   O104  0.577002  0.282979  0.589103  -0.679030
    O   O105  0.579235  0.297649  0.629781  -0.630887
    O   O106  0.516531  0.244530  0.610394  -0.614858
    O   O107  0.407731  0.500890  0.537627  -0.583021
    O   O108  0.519493  0.259047  0.651019  -0.622929
    O   O109  0.121930  0.781014  0.539678  -0.669217
    O   O110  0.153951  0.794068  0.498853  -0.654030
    O   O111  0.231427  0.751874  0.539487  -0.626213
    O   O112  0.263359  0.764848  0.498593  -0.566096
    O   O113  0.196721  0.709605  0.519555  -0.679532
    O   O114  0.229298  0.722313  0.478689  -0.669950
    O   O115  0.083350  0.740002  0.518910  -0.596389
    O   O116  0.116098  0.752914  0.478118  -0.634317
    O   O117  0.436529  0.440193  0.145156  -0.652156
    O   O118  0.971404  0.526133  0.156267  -0.702962
    O   O119  0.467750  0.399259  0.158122  -0.669121
    O   O120  0.474221  0.460794  0.186317  -0.631191
    O   O121  0.506160  0.419890  0.199142  -0.603499
    O   O122  0.360703  0.460311  0.216831  -0.668126
    O   O123  0.392471  0.419336  0.229461  -0.675237
    O   O124  0.326706  0.440513  0.174318  -0.567809
    O   O125  0.357855  0.399511  0.187199  -0.630707
    O   O126  0.016035  0.350420  0.656014  -0.680075
    O   O127  0.013229  0.309675  0.641484  -0.631440
    O   O128  0.076569  0.329118  0.694241  -0.612645
