# generated using pymatgen
data_ZnH18C32(N2O3)2
_symmetry_space_group_name_H-M   'P 1'
_cell_length_a   14.80357200
_cell_length_b   15.98286400
_cell_length_c   23.43905200
_cell_angle_alpha   89.98880200
_cell_angle_beta   103.51622700
_cell_angle_gamma   86.04216300
_symmetry_Int_Tables_number   1
_chemical_formula_structural   ZnH18C32(N2O3)2
_chemical_formula_sum   'Zn2 H36 C64 N8 O12'
_cell_volume   5378.54268714
_cell_formula_units_Z   2
loop_
 _symmetry_equiv_pos_site_id
 _symmetry_equiv_pos_as_xyz
  1  'x, y, z'
loop_
 _atom_site_type_symbol
 _atom_site_label
 _atom_site_symmetry_multiplicity
 _atom_site_fract_x
 _atom_site_fract_y
 _atom_site_fract_z
 _atom_site_occupancy
  Zn  Zn1  1  0.39978200  0.47624400  0.48562200  1
  Zn  Zn2  1  0.60021400  0.52376700  0.51411500  1
  H  H1  1  0.33034800  0.65349700  0.02582300  1
  H  H2  1  0.66964900  0.34651300  0.97391500  1
  H  H3  1  0.33200700  0.65420900  0.92306700  1
  H  H4  1  0.66799000  0.34580100  0.07667100  1
  H  H5  1  0.36179100  0.46678700  0.76527800  1
  H  H6  1  0.63820400  0.53322800  0.23445900  1
  H  H7  1  0.36093800  0.46675100  0.66145100  1
  H  H8  1  0.63905700  0.53326500  0.33828700  1
  H  H9  1  0.64384500  0.53379800  0.70293600  1
  H  H10  1  0.35615300  0.46620900  0.29680200  1
  H  H11  1  0.64306100  0.53445700  0.80667200  1
  H  H12  1  0.35693700  0.46554900  0.19306600  1
  H  H13  1  0.25295600  0.02115300  0.46714400  1
  H  H14  1  0.74707100  0.97883100  0.53513100  1
  H  H15  1  0.45257900  0.21470800  0.49363200  1
  H  H16  1  0.54735400  0.78533400  0.50497200  1
  H  H17  1  0.21757600  0.88144100  0.46273300  1
  H  H18  1  0.78246100  0.11853200  0.53904700  1
  H  H19  1  0.35774300  0.12638100  0.48099100  1
  H  H20  1  0.64224800  0.87361100  0.52129200  1
  H  H21  1  0.02432500  0.67257000  0.59595900  1
  H  H22  1  0.97569500  0.32738400  0.40382700  1
  H  H23  1  0.23324800  0.53747300  0.52084900  1
  H  H24  1  0.76676100  0.46250900  0.47891000  1
  H  H25  1  0.29328500  0.34775000  0.41168700  1
  H  H26  1  0.70670200  0.65228300  0.58803000  1
  H  H27  1  0.13577300  0.60307600  0.55495400  1
  H  H28  1  0.86425800  0.39684800  0.44485900  1
  H  H29  1  0.83053500  0.76210600  0.60079700  1
  H  H30  1  0.85825300  0.69486400  0.65898800  1
  H  H31  1  0.16947300  0.23790700  0.39892700  1
  H  H32  1  0.14172000  0.30516500  0.34074600  1
  H  H33  1  0.79733900  0.26863700  0.57649200  1
  H  H34  1  0.79470900  0.26853800  0.50393500  1
  H  H35  1  0.20204400  0.73159600  0.42491900  1
  H  H36  1  0.20603500  0.73117200  0.49765200  1
  C  C1  1  0.44194600  0.65960100  0.49165400  1
  C  C2  1  0.55805100  0.34040900  0.50810200  1
  C  C3  1  0.50208900  0.50007000  0.61193600  1
  C  C4  1  0.49790700  0.49994200  0.38780200  1
  C  C5  1  0.55755200  0.44510200  0.12655800  1
  C  C6  1  0.44244500  0.55490800  0.87318100  1
  C  C7  1  0.43877700  0.55339400  0.10868200  1
  C  C8  1  0.56121900  0.44661600  0.89105600  1
  C  C9  1  0.43871400  0.55438400  0.04966100  1
  C  C10  1  0.56128200  0.44562600  0.95007700  1
  C  C11  1  0.49951000  0.49979000  0.02923200  1
  C  C12  1  0.50048700  0.50022000  0.97050600  1
  C  C13  1  0.55934700  0.44478300  0.06782300  1
  C  C14  1  0.44065000  0.55522700  0.93191500  1
  C  C15  1  0.37873400  0.60987800  0.01100500  1
  C  C16  1  0.62126200  0.39013200  0.98873300  1
  C  C17  1  0.37969500  0.61029400  0.95235700  1
  C  C18  1  0.62030200  0.38971600  0.04738200  1
  C  C19  1  0.42363000  0.48201000  0.75157300  1
  C  C20  1  0.57636600  0.51800300  0.24816500  1
  C  C21  1  0.42354100  0.48172000  0.69276000  1
  C  C22  1  0.57645500  0.51829400  0.30697700  1
  C  C23  1  0.50242600  0.50021000  0.67456500  1
  C  C24  1  0.49757000  0.49980100  0.32517300  1
  C  C25  1  0.58133900  0.51893300  0.71593200  1
  C  C26  1  0.41865800  0.48107600  0.28380600  1
  C  C27  1  0.58124000  0.51907800  0.77475900  1
  C  C28  1  0.41875800  0.48093100  0.22497900  1
  C  C29  1  0.50239400  0.50068500  0.79280800  1
  C  C30  1  0.49760300  0.49932500  0.20693000  1
  C  C31  1  0.41011100  0.74968500  0.48758600  1
  C  C32  1  0.58988700  0.25031900  0.51249700  1
  C  C33  1  0.29075500  0.86095000  0.47227900  1
  C  C34  1  0.70926700  0.13903400  0.52899000  1
  C  C35  1  0.31641100  0.77659800  0.47558000  1
  C  C36  1  0.68361300  0.22339100  0.52526800  1
  C  C37  1  0.47605100  0.80903300  0.49630100  1
  C  C38  1  0.52392500  0.19098200  0.50349000  1
  C  C39  1  0.45054500  0.89512900  0.49350800  1
  C  C40  1  0.54944500  0.10487500  0.50713100  1
  C  C41  1  0.35658300  0.91939100  0.48102600  1
  C  C42  1  0.64342400  0.08060100  0.52014200  1
  C  C43  1  0.51556200  0.95739400  0.50261700  1
  C  C44  1  0.48442700  0.04261100  0.49827700  1
  C  C45  1  0.38882600  0.06338700  0.48525600  1
  C  C46  1  0.61117200  0.93660900  0.51625500  1
  C  C47  1  0.32662100  0.00257800  0.47702800  1
  C  C48  1  0.67339200  0.99741100  0.52467700  1
  C  C49  1  0.84773500  0.64106900  0.58067900  1
  C  C50  1  0.15226400  0.35893300  0.41906500  1
  C  C51  1  0.75757800  0.61851700  0.56865300  1
  C  C52  1  0.24241600  0.38150000  0.43107800  1
  C  C53  1  0.79391200  0.51175100  0.50754700  1
  C  C54  1  0.20609300  0.48823800  0.49220800  1
  C  C55  1  0.88689700  0.53163200  0.51858700  1
  C  C56  1  0.11311400  0.46834200  0.48118100  1
  C  C57  1  0.91259700  0.59776500  0.55563400  1
  C  C58  1  0.08741200  0.40221500  0.44413000  1
  C  C59  1  0.95417500  0.48798100  0.49368300  1
  C  C60  1  0.04584100  0.51198000  0.50609600  1
  C  C61  1  0.06799900  0.57934900  0.54314400  1
  C  C62  1  0.93202300  0.42059900  0.45664800  1
  C  C63  1  0.00264500  0.62096200  0.56747200  1
  C  C64  1  0.99737200  0.37899700  0.43230900  1
  N  N1  1  0.49779100  0.49912000  0.14606900  1
  N  N2  1  0.50220600  0.50089000  0.85366900  1
  N  N3  1  0.73235600  0.55488800  0.53251000  1
  N  N4  1  0.26764100  0.44512100  0.46722700  1
  N  N5  1  0.87304400  0.70926200  0.61883200  1
  N  N6  1  0.12695100  0.29074900  0.38090400  1
  N  N7  1  0.75480100  0.28088600  0.53467600  1
  N  N8  1  0.24525100  0.71909000  0.46650300  1
  O  O1  1  0.38018500  0.60302600  0.48273000  1
  O  O2  1  0.61981100  0.39698500  0.51701300  1
  O  O3  1  0.53192300  0.63906600  0.50448200  1
  O  O4  1  0.46807500  0.36094700  0.49526900  1
  O  O5  1  0.42578300  0.48204100  0.57425000  1
  O  O6  1  0.57421000  0.51797600  0.42548800  1
  O  O7  1  0.57783200  0.51811300  0.59602200  1
  O  O8  1  0.42216800  0.48189400  0.40371700  1
  O  O9  1  0.61426800  0.39026000  0.16427600  1
  O  O10  1  0.38572900  0.60975100  0.83546300  1
  O  O11  1  0.38135200  0.60801600  0.12923100  1
  O  O12  1  0.61864400  0.39199300  0.87050800  1
