# generated using pymatgen
data_ZnH18C32N3O4
_symmetry_space_group_name_H-M   'P 1'
_cell_length_a   14.83809200
_cell_length_b   15.98852500
_cell_length_c   19.33703900
_cell_angle_alpha   89.98472600
_cell_angle_beta   103.51589400
_cell_angle_gamma   86.03432600
_symmetry_Int_Tables_number   1
_chemical_formula_structural   ZnH18C32N3O4
_chemical_formula_sum   'Zn2 H36 C64 N6 O8'
_cell_volume   4449.13518067
_cell_formula_units_Z   2
loop_
 _symmetry_equiv_pos_site_id
 _symmetry_equiv_pos_as_xyz
  1  'x, y, z'
loop_
 _atom_site_type_symbol
 _atom_site_label
 _atom_site_symmetry_multiplicity
 _atom_site_fract_x
 _atom_site_fract_y
 _atom_site_fract_z
 _atom_site_occupancy
  Zn  Zn1  1  0.39892500  0.47821500  0.48522500  1
  Zn  Zn2  1  0.60052800  0.52199100  0.52122500  1
  H  H1  1  0.35730400  0.47172100  0.69814600  1
  H  H2  1  0.64210900  0.52860000  0.30829700  1
  H  H3  1  0.35720100  0.47126900  0.82297400  1
  H  H4  1  0.64220200  0.52907400  0.18347000  1
  H  H5  1  0.64171900  0.53184500  0.87416800  1
  H  H6  1  0.35772200  0.46838700  0.13228300  1
  H  H7  1  0.64160300  0.53222900  0.74927000  1
  H  H8  1  0.35784600  0.46797800  0.25718000  1
  H  H9  1  0.25557600  0.02247100  0.43356000  1
  H  H10  1  0.74545000  0.97758400  0.53402100  1
  H  H11  1  0.44922000  0.21293600  0.49791500  1
  H  H12  1  0.54948100  0.78750300  0.51990700  1
  H  H13  1  0.72931400  0.27244500  0.54589900  1
  H  H14  1  0.27057600  0.72767900  0.44943900  1
  H  H15  1  0.35927300  0.12531400  0.45583400  1
  H  H16  1  0.64145200  0.87474900  0.51285400  1
  H  H17  1  0.02368700  0.66175700  0.63074700  1
  H  H18  1  0.97683000  0.33547200  0.37843600  1
  H  H19  1  0.23307400  0.53759900  0.53079400  1
  H  H20  1  0.76622500  0.46304200  0.47524400  1
  H  H21  1  0.29004800  0.35645300  0.38978000  1
  H  H22  1  0.70962000  0.64313100  0.61723900  1
  H  H23  1  0.87104200  0.68033400  0.64623800  1
  H  H24  1  0.12904700  0.31809800  0.36184000  1
  H  H25  1  0.13707100  0.59632000  0.57829200  1
  H  H26  1  0.86352600  0.40070400  0.43110600  1
  H  H27  1  0.17981700  0.82434700  0.32785000  1
  H  H28  1  0.01062300  0.85420300  0.29179400  1
  H  H29  1  0.92714300  0.92327000  0.37449000  1
  H  H30  1  0.01292600  0.96150500  0.49364200  1
  H  H31  1  0.18226100  0.93216100  0.52989500  1
  H  H32  1  0.83657600  0.18383000  0.47197300  1
  H  H33  1  0.00554100  0.15526800  0.51128600  1
  H  H34  1  0.07302400  0.07837500  0.62365500  1
  H  H35  1  0.97120100  0.03117100  0.69738000  1
  H  H36  1  0.80216200  0.06039400  0.65874700  1
  C  C1  1  0.44535800  0.66000700  0.49211500  1
  C  C2  1  0.55410500  0.34019300  0.51412600  1
  C  C3  1  0.49963200  0.50158900  0.63864600  1
  C  C4  1  0.49980800  0.49864900  0.36780600  1
  C  C5  1  0.42022700  0.48505300  0.73631800  1
  C  C6  1  0.57919100  0.51524700  0.27012800  1
  C  C7  1  0.42021000  0.48480800  0.80761300  1
  C  C8  1  0.57920300  0.51550500  0.19883300  1
  C  C9  1  0.49948200  0.50145800  0.85803800  1
  C  C10  1  0.49994000  0.49883100  0.14840900  1
  C  C11  1  0.57869000  0.51855400  0.83612500  1
  C  C12  1  0.42074400  0.48169800  0.17032500  1
  C  C13  1  0.57867000  0.51879400  0.76481600  1
  C  C14  1  0.42077000  0.48144400  0.24163500  1
  C  C15  1  0.49948300  0.50193400  0.71447400  1
  C  C16  1  0.49994900  0.49832500  0.29197600  1
  C  C17  1  0.49983500  0.49945900  0.07246100  1
  C  C18  1  0.49958400  0.50083700  0.93398600  1
  C  C19  1  0.41472300  0.74956800  0.48369100  1
  C  C20  1  0.58485400  0.25058600  0.51864500  1
  C  C21  1  0.29238400  0.85721100  0.45264500  1
  C  C22  1  0.70777700  0.14281200  0.53985300  1
  C  C23  1  0.32184100  0.77370400  0.46043600  1
  C  C24  1  0.67812500  0.22636200  0.53480900  1
  C  C25  1  0.47866100  0.80982000  0.49839700  1
  C  C26  1  0.52072800  0.19040400  0.50675700  1
  C  C27  1  0.45119500  0.89514300  0.48753300  1
  C  C28  1  0.54864200  0.10500800  0.50779300  1
  C  C29  1  0.35680400  0.91810800  0.46545100  1
  C  C30  1  0.64331000  0.08195100  0.52521200  1
  C  C31  1  0.51555200  0.95772200  0.49861800  1
  C  C32  1  0.48442600  0.04244000  0.49227700  1
  C  C33  1  0.38960100  0.06258300  0.46792600  1
  C  C34  1  0.61077900  0.93751300  0.51311100  1
  C  C35  1  0.32762600  0.00172700  0.45405400  1
  C  C36  1  0.67290500  0.99831600  0.52526300  1
  C  C37  1  0.85016200  0.63167800  0.60823900  1
  C  C38  1  0.14976600  0.36718100  0.39944400  1
  C  C39  1  0.75961100  0.61092000  0.59207500  1
  C  C40  1  0.24006500  0.38864100  0.41496700  1
  C  C41  1  0.79396500  0.50972200  0.51253800  1
  C  C42  1  0.20557300  0.49021500  0.49415000  1
  C  C43  1  0.88718700  0.52843800  0.52740400  1
  C  C44  1  0.11268500  0.47056200  0.48014400  1
  C  C45  1  0.91368500  0.59070800  0.57594700  1
  C  C46  1  0.08632900  0.40789300  0.43196700  1
  C  C47  1  0.95409100  0.48758100  0.49544900  1
  C  C48  1  0.04594200  0.51097000  0.51250800  1
  C  C49  1  0.06884100  0.57421700  0.56167000  1
  C  C50  1  0.93144200  0.42364600  0.44692800  1
  C  C51  1  0.00353400  0.61295200  0.59274400  1
  C  C52  1  0.99677100  0.38485300  0.41590300  1
  C  C53  1  0.19206600  0.87816900  0.43050800  1
  C  C54  1  0.14342900  0.85509000  0.36421400  1
  C  C55  1  0.04845300  0.87178300  0.34394300  1
  C  C56  1  0.00165600  0.91047600  0.39028600  1
  C  C57  1  0.04980700  0.93215800  0.45702700  1
  C  C58  1  0.14484200  0.91582600  0.47725700  1
  C  C59  1  0.80824900  0.12194700  0.56185600  1
  C  C60  1  0.86580300  0.14982300  0.52134300  1
  C  C61  1  0.96074300  0.13392700  0.54341400  1
  C  C62  1  0.99858500  0.09088600  0.60642600  1
  C  C63  1  0.94149100  0.06423300  0.64763500  1
  C  C64  1  0.84655000  0.08026400  0.62570400  1
  N  N1  1  0.57683500  0.51693500  0.98293700  1
  N  N2  1  0.42258400  0.48336000  0.02351100  1
  N  N3  1  0.57695400  0.51626600  0.05131600  1
  N  N4  1  0.42246500  0.48403000  0.95513200  1
  N  N5  1  0.73317900  0.55079100  0.54477300  1
  N  N6  1  0.26629200  0.44935100  0.46173500  1
  O  O1  1  0.38193300  0.60509000  0.48098600  1
  O  O2  1  0.61748900  0.39511800  0.52525300  1
  O  O3  1  0.53479600  0.63825700  0.50857400  1
  O  O4  1  0.46468400  0.36196000  0.49775400  1
  O  O5  1  0.42329900  0.48472200  0.59256500  1
  O  O6  1  0.57616900  0.51555900  0.41388000  1
  O  O7  1  0.57617100  0.51779800  0.61993800  1
  O  O8  1  0.42324600  0.48238700  0.38649900  1
