# Generated by REPEAT Assigner based on pymatgen
data_DB0-m2_o14_o16_f0_pcu.sym.61
_audit_creation_date              2022-05-24
_audit_creation_method            REPEAT_Assigner
_cell_length_a                    9.415808
_cell_length_b                    10.823934
_cell_length_c                    13.518320
_cell_angle_alpha                 89.989718
_cell_angle_beta                  74.484244
_cell_angle_gamma                 89.986726
_cell_volume                      1327.525177
_symmetry_space_group_name_H-M    P1
_symmetry_Int_Tables_number       1
loop_
    _symmetry_equiv_pos_site_id
    _symmetry_equiv_pos_as_xyz
    1  x,y,z
loop_
    _atom_site_type_symbol
    _atom_site_label
    _atom_site_fract_x
    _atom_site_fract_y
    _atom_site_fract_z
    _atom_type_partial_charge
    O   O1   0.375815  0.682748  0.531581  -0.519869
    O   O2   0.632584  0.683806  0.478748  -0.599455
    C   C1   0.502951  0.741372  0.499057  0.661637
    O   O3   0.329775  0.470072  0.647394  -0.565129
    O   O4   0.564454  0.533843  0.649157  -0.515184
    C   C2   0.433720  0.488775  0.696130  0.615728
    Cu  Cu1  0.365257  0.507322  0.501159  0.874733
    Cu  Cu2  0.643132  0.506055  0.502038  0.886956
    O   O5   0.398971  0.331552  0.471644  -0.526631
    O   O6   0.609001  0.329123  0.526762  -0.634052
    O   O7   0.444471  0.544348  0.355350  -0.602483
    O   O8   0.677456  0.478573  0.354608  -0.576470
    C   C3   0.496803  0.271815  0.506391  0.665231
    C   C4   0.579436  0.512562  0.306507  0.676728
    C   C5   0.807669  0.522967  0.036069  -0.307662
    H   H1   0.851551  0.535978  0.181800  0.062513
    H   H2   0.867925  0.490633  0.839889  0.160480
    H   H3   0.921642  0.536050  0.995016  0.128859
    C   C6   0.621701  0.513228  0.193821  -0.151906
    C   C7   0.252710  0.441098  0.858785  -0.085623
    C   C8   0.210307  0.425070  0.963125  -0.111660
    C   C9   0.307160  0.445750  0.021107  -0.088833
    C   C10  0.454171  0.472759  0.974698  0.057602
    C   C11  0.501713  0.472836  0.867303  0.146917
    C   C12  0.556190  0.492611  0.032877  -0.085323
    C   C13  0.704042  0.503567  0.982591  0.331516
    C   C14  0.751408  0.490067  0.878273  -0.311791
    C   C15  0.652721  0.471672  0.821618  -0.146694
    C   C16  0.515860  0.502636  0.139916  -0.059815
    C   C17  0.767862  0.523906  0.141326  0.046801
    C   C18  0.397626  0.467462  0.808912  -0.144535
    H   H4   0.402883  0.501794  0.184180  0.093503
    H   H5   0.170471  0.430537  0.816981  0.097616
    H   H6   0.263608  0.433012  0.102364  0.077875
    H   H7   0.098806  0.397686  0.000758  0.118662
    H   H8   0.700489  0.448456  0.742572  0.124424
    H   H9   0.721801  0.895994  0.503829  0.115856
    C   C19  0.253364  0.886027  0.466276  -0.227665
    H   H10  0.261754  0.795689  0.431796  0.124893
    C   C20  0.120918  0.946135  0.480307  -0.027473
    H   H11  0.028812  0.899685  0.463011  0.086248
    C   C21  0.104732  0.063631  0.519164  -0.142076
    H   H12  0.998775  0.109077  0.535329  0.096810
    C   C22  0.225007  0.125424  0.533646  -0.161212
    H   H13  0.205385  0.216271  0.566994  0.110984
    C   C23  0.362972  0.069157  0.511246  0.148607
    C   C24  0.371928  0.943085  0.491066  0.171310
    C   C25  0.499329  0.877947  0.494048  -0.160817
    C   C26  0.621689  0.943503  0.501819  -0.094580
    H   H14  0.718911  0.118861  0.507573  0.119402
    C   C27  0.618920  0.070684  0.506452  -0.078942
    C   C28  0.490699  0.135250  0.510837  -0.182292
    H   H15  0.831518  0.640641  0.612672  0.096705
    C   C29  0.910477  0.333285  0.378874  -0.212675
    H   H16  0.798726  0.310554  0.386928  0.196396
    C   C30  0.007326  0.264207  0.305902  0.110462
    C   C31  0.154929  0.284633  0.290985  -0.004650
    H   H17  0.238262  0.237883  0.232791  0.062784
    C   C32  0.201681  0.366011  0.353149  -0.227670
    H   H18  0.317545  0.375451  0.334223  0.142488
    C   C33  0.104842  0.432694  0.430921  0.207676
    C   C34  0.955334  0.423692  0.437810  0.114375
    N   N1   0.856771  0.500775  0.500948  -0.140295
    C   C35  0.907114  0.578630  0.561841  0.041201
    H   H19  0.089407  0.636607  0.616459  0.098601
    C   C36  0.054083  0.577062  0.563439  -0.015701
    N   N2   0.153607  0.506110  0.497230  -0.134991
    C   C37  0.942534  0.174644  0.244619  -0.351111
    C   C38  0.052666  0.100657  0.162498  0.628661
    C   C39  0.119531  0.996512  0.210932  -0.396197
    C   C40  0.972397  0.044415  0.089802  -0.368617
    H   H20  0.871975  0.228387  0.206412  0.068617
    H   H21  0.870443  0.108993  0.298387  0.090475
    H   H22  0.140015  0.161217  0.115856  -0.111958
    H   H23  0.032936  0.928642  0.247047  0.081593
    H   H24  0.170249  0.032166  0.270180  0.085267
    H   H25  0.205669  0.949114  0.150737  0.059034
    H   H26  0.877214  0.988965  0.133592  0.067096
    H   H27  0.048829  0.984080  0.033553  0.069096
    H   H28  0.932546  0.118726  0.047448  0.049621
