# generated using pymatgen
data_ZnH6C17N(O2F3)2
_symmetry_space_group_name_H-M   'P 1'
_cell_length_a   11.88389100
_cell_length_b   13.11698700
_cell_length_c   15.96158800
_cell_angle_alpha   89.99008900
_cell_angle_beta   85.82984900
_cell_angle_gamma   91.18836200
_symmetry_Int_Tables_number   1
_chemical_formula_structural   ZnH6C17N(O2F3)2
_chemical_formula_sum   'Zn2 H12 C34 N2 O8 F12'
_cell_volume   2480.98127665
_cell_formula_units_Z   2
loop_
 _symmetry_equiv_pos_site_id
 _symmetry_equiv_pos_as_xyz
  1  'x, y, z'
loop_
 _atom_site_type_symbol
 _atom_site_label
 _atom_site_symmetry_multiplicity
 _atom_site_fract_x
 _atom_site_fract_y
 _atom_site_fract_z
 _atom_site_occupancy
  Zn  Zn1  1  0.37181900  0.50907900  0.50714300  1
  Zn  Zn2  1  0.62727400  0.49175400  0.49301700  1
  H  H1  1  0.41789600  0.64617500  0.06958500  1
  H  H2  1  0.39611400  0.63400400  0.93037500  1
  H  H3  1  0.60379600  0.63637500  0.92961100  1
  H  H4  1  0.57624200  0.35327600  0.93317500  1
  H  H5  1  0.39405100  0.36621300  0.06845500  1
  H  H6  1  0.31924400  0.51450100  0.94419000  1
  H  H7  1  0.32248200  0.53804400  0.08431600  1
  H  H8  1  0.73127000  0.99907900  0.49178900  1
  H  H9  1  0.26985500  0.99903000  0.50865400  1
  H  H10  1  0.35438300  0.83622000  0.50547200  1
  H  H11  1  0.18483500  0.40846700  0.42433300  1
  H  H12  1  0.81424700  0.59212200  0.57588200  1
  C  C1  1  0.52084700  0.69981500  0.49917600  1
  C  C2  1  0.50000100  0.50011300  0.66386400  1
  C  C3  1  0.47846000  0.30071000  0.50102800  1
  C  C4  1  0.49910500  0.50081800  0.33629500  1
  C  C5  1  0.39759900  0.55655800  0.95811300  1
  C  C6  1  0.60591600  0.55460800  0.94700700  1
  C  C7  1  0.61096400  0.54508400  0.04121500  1
  C  C8  1  0.49898000  0.50088000  0.24639900  1
  C  C9  1  0.49999000  0.50047600  0.92094000  1
  C  C10  1  0.40356400  0.56529000  0.05239600  1
  C  C11  1  0.49927900  0.50081700  0.07920800  1
  C  C12  1  0.48108900  0.39260900  0.04828000  1
  C  C13  1  0.49641800  0.39146100  0.95330000  1
  C  C14  1  0.49907300  0.50086600  0.17089200  1
  C  C15  1  0.50014200  0.50022300  0.82926000  1
  C  C16  1  0.50015200  0.50012600  0.75375900  1
  C  C17  1  0.46742900  0.18817800  0.50153000  1
  C  C18  1  0.53282000  0.81180400  0.49882600  1
  C  C19  1  0.64789700  0.96423000  0.49479400  1
  C  C20  1  0.63846100  0.85941200  0.49497100  1
  C  C21  1  0.43763900  0.87129800  0.50246300  1
  C  C22  1  0.44778200  0.97647400  0.50216500  1
  C  C23  1  0.55275600  0.02314200  0.49835500  1
  C  C24  1  0.56299500  0.12836700  0.49809900  1
  C  C25  1  0.36185800  0.14009400  0.50535900  1
  C  C26  1  0.35267300  0.03509200  0.50568200  1
  C  C27  1  0.96181900  0.40648900  0.42269100  1
  C  C28  1  0.84598200  0.41425000  0.42908700  1
  C  C29  1  0.85679700  0.53973200  0.53268400  1
  C  C30  1  0.97305100  0.53381000  0.52772000  1
  C  C31  1  0.02602700  0.46681800  0.47245900  1
  C  C32  1  0.14228100  0.46087400  0.46751500  1
  C  C33  1  0.15310400  0.58652300  0.57097900  1
  C  C34  1  0.03726200  0.59421500  0.57742800  1
  N  N1  1  0.20374900  0.52039900  0.51651000  1
  N  N2  1  0.79532700  0.48026700  0.48364500  1
  O  O1  1  0.41882900  0.65854300  0.50465600  1
  O  O2  1  0.61244400  0.64530500  0.49409000  1
  O  O3  1  0.40297700  0.50668500  0.63029900  1
  O  O4  1  0.59686400  0.49364800  0.61955300  1
  O  O5  1  0.38680800  0.35542500  0.50608600  1
  O  O6  1  0.58005100  0.34245900  0.49550100  1
  O  O7  1  0.40223700  0.50721400  0.38060700  1
  O  O8  1  0.59612000  0.49422100  0.36986200  1
  F  F1  1  0.55646000  0.32744500  0.08132000  1
  F  F2  1  0.66783000  0.17162000  0.49463300  1
  F  F3  1  0.26570400  0.19418900  0.50867600  1
  F  F4  1  0.73450900  0.80514800  0.49150100  1
  F  F5  1  0.21587700  0.64601900  0.61987000  1
  F  F6  1  0.01133000  0.33966400  0.36748600  1
  F  F7  1  0.98775600  0.66112000  0.63256600  1
  F  F8  1  0.78323300  0.35498200  0.38001000  1
  F  F9  1  0.70047200  0.51179600  0.90680700  1
  F  F10  1  0.63029200  0.64046500  0.07477400  1
  F  F11  1  0.69863800  0.48261400  0.05854500  1
  F  F12  1  0.40752100  0.33800000  0.92159700  1
