# Generated by REPEAT Assigner based on pymatgen
data_DB0-m29_o83_o100_f0_pts.sym.20
_audit_creation_date              2022-05-24
_audit_creation_method            REPEAT_Assigner
_cell_length_a                    15.840336
_cell_length_b                    14.336289
_cell_length_c                    11.470303
_cell_angle_alpha                 95.600547
_cell_angle_beta                  89.292404
_cell_angle_gamma                 95.206258
_cell_volume                      2581.665020
_symmetry_space_group_name_H-M    P1
_symmetry_Int_Tables_number       1
loop_
    _symmetry_equiv_pos_site_id
    _symmetry_equiv_pos_as_xyz
    1  x,y,z
loop_
    _atom_site_type_symbol
    _atom_site_label
    _atom_site_fract_x
    _atom_site_fract_y
    _atom_site_fract_z
    _atom_type_partial_charge
    C   C1   0.287781  0.016888  0.075082  -0.019919
    C   C2   0.271311  0.027107  0.958891  0.053506
    C   C3   0.187650  0.025276  0.924004  -0.197917
    C   C4   0.221697  0.999272  0.150664  -0.207956
    C   C5   0.137840  0.996220  0.115988  0.119786
    C   C6   0.119641  0.013055  0.002141  0.064773
    C   C7   0.034398  0.015527  0.968506  0.048040
    C   C8   0.013161  0.038095  0.857804  -0.140206
    C   C9   0.930260  0.036846  0.824940  -0.225155
    C   C10  0.072208  0.976373  0.193975  -0.080002
    C   C11  0.989544  0.974092  0.158140  -0.203632
    C   C12  0.968650  0.996374  0.047626  0.072916
    C   C13  0.883279  0.998547  0.014259  0.024098
    C   C14  0.865740  0.016929  0.901672  0.234778
    C   C15  0.783434  0.016443  0.864034  -0.262580
    C   C16  0.814447  0.985353  0.090465  -0.160433
    C   C17  0.731351  0.984665  0.053347  -0.006874
    C   C18  0.716019  0.997530  0.937273  0.020437
    H   H1   0.178003  0.029692  0.832553  0.135939
    H   H2   0.238591  0.990628  0.239218  0.198479
    H   H3   0.058601  0.058668  0.792835  0.138771
    H   H4   0.916252  0.053409  0.737698  0.142895
    H   H5   0.942503  0.952353  0.220159  0.156760
    H   H6   0.771480  0.027986  0.774229  0.176262
    H   H7   0.822741  0.979321  0.181846  0.130139
    O   O1   0.588089  0.006297  0.120947  -0.476726
    C   C19  0.662530  0.977892  0.141356  0.532189
    O   O2   0.495019  0.803878  0.222202  -0.509506
    O   O3   0.677887  0.952260  0.245209  -0.512597
    O   O4   0.518750  0.913503  0.376953  -0.467713
    C   C20  0.507552  0.824721  0.334983  0.528206
    Fe  Fe1  0.510941  0.003300  0.257763  1.421396
    O   O5   0.393771  0.965397  0.195611  -0.553548
    O   O6   0.425875  0.099462  0.107799  -0.510096
    C   C21  0.373215  0.025688  0.124083  0.612885
    O   O7   0.538763  0.132696  0.338742  -0.606713
    O   O8   0.411408  0.095979  0.424258  -0.536861
    C   C22  0.479517  0.154271  0.415201  0.632889
    O   O9   0.464126  0.882514  0.673702  -0.606253
    O   O10  0.591234  0.918740  0.587345  -0.524825
    C   C23  0.522949  0.860757  0.596650  0.628791
    O   O11  0.610202  0.049301  0.815845  -0.562167
    O   O12  0.577737  0.915431  0.903816  -0.522897
    C   C24  0.630827  0.988726  0.886986  0.638646
    O   O13  0.322297  0.053842  0.763815  -0.503822
    O   O14  0.485324  0.101544  0.634450  -0.465793
    C   C25  0.494589  0.190306  0.676805  0.518562
    O   O15  0.415715  0.009931  0.891248  -0.460900
    C   C26  0.339462  0.033029  0.869372  0.496002
    O   O16  0.505598  0.211105  0.789886  -0.512816
    Fe  Fe2  0.492724  0.012054  0.754088  1.423536
    C   C27  0.633661  0.583035  0.903780  -0.093649
    C   C28  0.492808  0.266465  0.598502  0.028151
    C   C29  0.571119  0.611799  0.980092  -0.126332
    C   C30  0.488494  0.608043  0.942168  0.101707
    C   C31  0.613906  0.552329  0.788892  -0.283189
    C   C32  0.531380  0.549315  0.750423  0.380209
    C   C33  0.468425  0.576032  0.827698  -0.325593
    C   C34  0.502461  0.359451  0.646671  -0.165640
    C   C35  0.502712  0.433844  0.576811  0.075529
    C   C36  0.512780  0.526944  0.625480  -0.147292
    C   C37  0.510104  0.600156  0.554545  0.151511
    C   C38  0.518650  0.693084  0.602581  -0.236351
    C   C39  0.517538  0.766457  0.534282  0.052767
    C   C40  0.484528  0.248552  0.477566  0.058060
    C   C41  0.483187  0.321903  0.409274  -0.243530
    C   C42  0.491539  0.414834  0.457324  0.163933
    C   C43  0.488771  0.488042  0.386399  -0.164739
    C   C44  0.498881  0.581151  0.435066  0.088160
    C   C45  0.499191  0.655558  0.365209  -0.166887
    C   C46  0.387551  0.462557  0.223103  -0.295711
    C   C47  0.470108  0.465654  0.261472  0.394806
    C   C48  0.533032  0.438968  0.184121  -0.330370
    C   C49  0.367733  0.431804  0.108246  -0.088318
    C   C50  0.430243  0.403070  0.031863  -0.129139
    C   C51  0.509150  0.748553  0.413341  0.026626
    C   C52  0.512898  0.406897  0.069687  0.104788
    H   H8   0.698435  0.586047  0.933508  0.117043
    H   H9   0.586848  0.637036  0.069760  0.108566
    H   H10  0.439495  0.630642  0.002065  0.075343
    H   H11  0.663479  0.532623  0.728252  0.128962
    H   H12  0.403938  0.574997  0.797505  0.124424
    H   H13  0.509369  0.372831  0.740297  0.133564
    H   H14  0.526923  0.712548  0.695117  0.178447
    H   H15  0.474997  0.302419  0.316730  0.178335
    H   H16  0.492244  0.642169  0.271588  0.129948
    H   H17  0.338002  0.482232  0.283801  0.133209
    H   H18  0.597544  0.440057  0.214232  0.127321
    H   H19  0.302933  0.428729  0.078600  0.116188
    H   H20  0.414467  0.377795  0.942221  0.108321
    H   H21  0.561872  0.384312  0.009738  0.075328
    C   C53  0.086361  0.954943  0.317695  -0.022839
    C   C54  0.108264  0.854016  0.320134  0.259379
    C   C55  0.121084  0.833443  0.445537  -0.297894
    H   H22  0.173912  0.881587  0.485533  0.077973
    H   H23  0.062187  0.843125  0.496846  0.054223
    H   H24  0.136792  0.759689  0.446360  0.065870
    H   H25  0.055400  0.805402  0.281107  -0.040809
    H   H26  0.166857  0.841863  0.269449  -0.041493
    H   H27  0.135021  0.005838  0.362669  0.031706
    H   H28  0.027549  0.962835  0.369625  0.036606
