# generated using pymatgen
data_Fe2H26C64N2O23
_symmetry_space_group_name_H-M   'P 1'
_cell_length_a   12.50834600
_cell_length_b   21.66469100
_cell_length_c   12.93952500
_cell_angle_alpha   110.42507300
_cell_angle_beta   80.53648400
_cell_angle_gamma   88.94825900
_symmetry_Int_Tables_number   1
_chemical_formula_structural   Fe2H26C64N2O23
_chemical_formula_sum   'Fe2 H26 C64 N2 O23'
_cell_volume   3230.40219471
_cell_formula_units_Z   1
loop_
 _symmetry_equiv_pos_site_id
 _symmetry_equiv_pos_as_xyz
  1  'x, y, z'
loop_
 _atom_site_type_symbol
 _atom_site_label
 _atom_site_symmetry_multiplicity
 _atom_site_fract_x
 _atom_site_fract_y
 _atom_site_fract_z
 _atom_site_occupancy
  Fe  Fe1  1  0.50586200  0.01441600  0.28179900  1
  Fe  Fe2  1  0.49745800  0.98691500  0.71292500  1
  H  H1  1  0.63226300  0.03051100  0.98344900  1
  H  H2  1  0.37185700  0.96913800  0.01232000  1
  H  H3  1  0.08046400  0.02541600  0.24943500  1
  H  H4  1  0.91443300  0.03307000  0.19297400  1
  H  H5  1  0.09405200  0.96251200  0.79992800  1
  H  H6  1  0.29970700  0.22592100  0.87035500  1
  H  H7  1  0.21608200  0.31295000  0.82497600  1
  H  H8  1  0.88346700  0.36091600  0.69784300  1
  H  H9  1  0.69410100  0.80028400  0.51762900  1
  H  H10  1  0.73367600  0.52853900  0.64823900  1
  H  H11  1  0.79305600  0.43809700  0.64516900  1
  H  H12  1  0.30711900  0.19990900  0.47687400  1
  H  H13  1  0.35978600  0.41531700  0.44625000  1
  H  H14  1  0.18996800  0.53091600  0.29946000  1
  H  H15  1  0.69538700  0.77421400  0.12515700  1
  H  H16  1  0.77719200  0.68614600  0.16914100  1
  H  H17  1  0.27540200  0.49468400  0.39333300  1
  H  H18  1  0.67745500  0.71165100  0.69861300  1
  H  H19  1  0.57926400  0.68513900  0.79016400  1
  H  H20  1  0.53517200  0.71233800  0.68589300  1
  H  H21  1  0.00139100  0.56491400  0.11084700  1
  H  H22  1  0.14120800  0.54830400  0.03904500  1
  H  H23  1  0.07325100  0.62949300  0.07758600  1
  H  H24  1  0.89365500  0.05709800  0.69887100  1
  H  H25  1  0.88685400  0.98648000  0.57391000  1
  H  H26  1  0.01731000  0.01221200  0.60838500  1
  C  C1  1  0.77558300  0.02134800  0.04959500  1
  C  C2  1  0.71980900  0.02288400  0.96687400  1
  C  C3  1  0.77056100  0.00402700  0.85732100  1
  C  C4  1  0.88089200  0.98627600  0.82830100  1
  C  C5  1  0.94133500  0.99169000  0.91229900  1
  C  C6  1  0.88889500  0.00950600  0.02333300  1
  C  C7  1  0.05388900  0.97934700  0.88590900  1
  C  C8  1  0.11557800  0.98619200  0.96836200  1
  C  C9  1  0.06265200  0.00298000  0.07829300  1
  C  C10  1  0.95103400  0.01576500  0.10545600  1
  C  C11  1  0.22917900  0.97640000  0.94395800  1
  C  C12  1  0.28424400  0.97558800  0.02774600  1
  C  C13  1  0.23172000  0.99325300  0.13665800  1
  C  C14  1  0.12117400  0.00917700  0.16285600  1
  C  C15  1  0.70761300  0.02325700  0.15562500  1
  C  C16  1  0.59821800  0.89187400  0.26537400  1
  C  C17  1  0.29896500  0.00729500  0.22296200  1
  C  C18  1  0.39725300  0.09516700  0.49258400  1
  C  C19  1  0.60494000  0.90536200  0.50294000  1
  C  C20  1  0.70028100  0.98893600  0.77358700  1
  C  C21  1  0.40133400  0.10934900  0.73115000  1
  C  C22  1  0.29770300  0.97606400  0.83929200  1
  C  C23  1  0.09555200  0.32691500  0.65156600  1
  C  C24  1  0.26288800  0.34466000  0.56020400  1
  C  C25  1  0.30703800  0.20586300  0.56339100  1
  C  C26  1  0.35194500  0.15477400  0.58774900  1
  C  C27  1  0.30219500  0.21895600  0.78313100  1
  C  C28  1  0.25451900  0.26874900  0.75775000  1
  C  C29  1  0.25663600  0.26255600  0.64756200  1
  C  C30  1  0.10150600  0.40618200  0.55994800  1
  C  C31  1  0.04317800  0.37361700  0.62190800  1
  C  C32  1  0.93214200  0.38675900  0.65167800  1
  C  C33  1  0.21232300  0.39150000  0.52940300  1
  C  C34  1  0.35111100  0.16113700  0.69911400  1
  C  C35  1  0.64764800  0.83945500  0.29662100  1
  C  C36  1  0.88755200  0.51777200  0.53640300  1
  C  C37  1  0.05559900  0.52638800  0.42464700  1
  C  C38  1  0.94563700  0.54531800  0.46470800  1
  C  C39  1  0.78033400  0.54207900  0.58308200  1
  C  C40  1  0.72998200  0.59001900  0.55659400  1
  C  C41  1  0.78506600  0.61383600  0.47733700  1
  C  C42  1  0.89371200  0.59204500  0.43316500  1
  C  C43  1  0.95015300  0.61752000  0.35741400  1
  C  C44  1  0.89911800  0.66808500  0.33465200  1
  C  C45  1  0.73405200  0.65806900  0.44009800  1
  C  C46  1  0.69289400  0.79420000  0.43129000  1
  C  C47  1  0.64846800  0.84564200  0.40754500  1
  C  C48  1  0.69418400  0.78115600  0.21217800  1
  C  C49  1  0.74096200  0.73075900  0.23680600  1
  C  C50  1  0.74079400  0.73692500  0.34674600  1
  C  C51  1  0.93827000  0.46819400  0.56286000  1
  C  C52  1  0.04958200  0.45262000  0.52842900  1
  C  C53  1  0.10924400  0.48302000  0.46231100  1
  C  C54  1  0.88026500  0.43304100  0.62241300  1
  C  C55  1  0.27233600  0.42428400  0.46904100  1
  C  C56  1  0.10887700  0.54950500  0.34420400  1
  C  C57  1  0.05738700  0.59296900  0.30872400  1
  C  C58  1  0.22192800  0.46953800  0.43635000  1
  C  C59  1  0.62097300  0.61638800  0.62233600  1
  C  C60  1  0.60219200  0.68581200  0.70407100  1
  C  C61  1  0.11925700  0.60664300  0.21324500  1
  C  C62  1  0.08100700  0.58619100  0.10354600  1
  C  C63  1  0.93146900  0.96278300  0.70896200  1
  C  C64  1  0.93210600  0.00749500  0.64351400  1
  N  N1  1  0.20424000  0.31292200  0.62039500  1
  N  N2  1  0.79222200  0.68589400  0.37327200  1
  O  O1  1  0.60373900  0.04214200  0.17237600  1
  O  O2  1  0.60035000  0.88241700  0.15916700  1
  O  O3  1  0.74113500  0.99163100  0.21574600  1
  O  O4  1  0.55484100  0.94856100  0.34212800  1
  O  O5  1  0.38809600  0.96851900  0.20342300  1
  O  O6  1  0.28811100  0.06687100  0.29896100  1
  O  O7  1  0.46955900  0.10052100  0.41107900  1
  O  O8  1  0.35436000  0.03873800  0.48046900  1
  O  O9  1  0.53008400  0.90079200  0.58310700  1
  O  O10  1  0.65100200  0.96093900  0.51637200  1
  O  O11  1  0.61827100  0.03168000  0.78728300  1
  O  O12  1  0.69851900  0.92703000  0.70949300  1
  O  O13  1  0.26306200  0.00659600  0.77812100  1
  O  O14  1  0.44693700  0.05328100  0.65447200  1
  O  O15  1  0.40214400  0.95956400  0.82459000  1
  O  O16  1  0.39799900  0.11873500  0.83750100  1
  O  O17  1  0.03738300  0.29392900  0.70907600  1
  O  O18  1  0.62578200  0.67215500  0.46657000  1
  O  O19  1  0.37128400  0.33120000  0.53107100  1
  O  O20  1  0.95636700  0.70255300  0.27945600  1
  O  O21  1  0.54877900  0.57918100  0.62071700  1
  O  O22  1  0.20898300  0.62722800  0.21907000  1
  O  O23  1  0.97277100  0.90626700  0.66259800  1
