# Generated by REPEAT Assigner based on pymatgen
data_DB0-m3_o99_o22_f0_fsc.sym.10_sqe
_audit_creation_date              2022-05-24
_audit_creation_method            REPEAT_Assigner
_cell_length_a                    6.590481
_cell_length_b                    8.998470
_cell_length_c                    14.666946
_cell_angle_alpha                 101.113450
_cell_angle_beta                  101.635254
_cell_angle_gamma                 89.931046
_cell_volume                      835.320262
_symmetry_space_group_name_H-M    P1
_symmetry_Int_Tables_number       1
loop_
    _symmetry_equiv_pos_site_id
    _symmetry_equiv_pos_as_xyz
    1  x,y,z
loop_
    _atom_site_type_symbol
    _atom_site_label
    _atom_site_fract_x
    _atom_site_fract_y
    _atom_site_fract_z
    _atom_type_partial_charge
    C   C1   0.439931  0.008489  0.796907  -0.277954
    H   H1   0.278893  0.979237  0.792387  0.133965
    C   C2   0.583773  0.995192  0.876908  0.316765
    C   C3   0.790081  0.028585  0.882874  0.061171
    C   C4   0.852458  0.064539  0.805291  -0.210005
    H   H2   0.015887  0.077462  0.806557  0.177851
    C   C5   0.709919  0.068289  0.722423  -0.057063
    C   C6   0.500693  0.047516  0.719721  -0.038118
    C   C7   0.940731  0.012335  0.966205  -0.082525
    C   C8   0.066372  0.998623  0.036273  -0.287343
    C   C9   0.154118  0.948891  0.197775  -0.275220
    H   H3   0.990716  0.935907  0.196413  0.146404
    C   C10  0.296391  0.946190  0.280872  -0.004748
    C   C11  0.505641  0.966912  0.283687  -0.034386
    C   C12  0.566810  0.004113  0.206101  -0.132471
    H   H4   0.727905  0.032773  0.210437  0.159708
    C   C13  0.423288  0.015567  0.125624  -0.304856
    H   H5   0.472396  0.055870  0.068771  0.199780
    C   C14  0.216816  0.983096  0.119828  0.404344
    O   O1   0.838851  0.912404  0.600740  -0.383197
    O   O2   0.842836  0.170122  0.606458  -0.608680
    C   C15  0.789524  0.049713  0.635474  0.544186
    O   O3   0.265722  0.162109  0.607585  -0.725720
    O   O4   0.256204  0.902510  0.595241  -0.691653
    C   C16  0.342073  0.037167  0.632878  0.798921
    O   O5   0.167751  0.102466  0.402594  -0.637906
    O   O6   0.163863  0.844382  0.396941  -0.465960
    C   C17  0.216415  0.964906  0.367714  0.624952
    O   O7   0.740966  0.852596  0.395687  -0.663129
    O   O8   0.750348  0.111999  0.408083  -0.655546
    C   C18  0.664062  0.977466  0.370628  0.677939
    Zn  Zn1  0.011604  0.174312  0.506578  0.963636
    Zn  Zn2  0.994901  0.840315  0.496765  0.838399
    C   C19  0.215550  0.447921  0.549776  -0.087744
    H   H6   0.330056  0.410630  0.504947  -0.032764
    H   H7   0.271222  0.422201  0.621411  0.074816
    C   C20  0.187196  0.616827  0.558145  -0.042152
    H   H8   0.181813  0.668012  0.632678  0.016552
    H   H9   0.319839  0.669016  0.538046  0.069829
    H   H10  0.069063  0.320438  0.366933  0.077293
    C   C21  0.964694  0.387488  0.408222  -0.260294
    C   C22  0.862389  0.440592  0.555926  -0.374978
    N   N1   0.018187  0.369328  0.506539  0.389409
    H   H11  0.716391  0.370073  0.533655  0.115299
    H   H12  0.919410  0.450739  0.633450  0.062066
    N   N2   0.994480  0.645183  0.496435  0.336648
    C   C23  0.985366  0.553222  0.402978  0.404145
    C   C24  0.823721  0.597299  0.534178  0.495807
    H   H13  0.802713  0.345116  0.377483  0.041150
    H   H14  0.849072  0.582728  0.352649  0.001529
    O   O9   0.165584  0.579740  0.371473  -0.642448
    H   H15  0.259674  0.500074  0.390017  0.347034
    O   O10  0.810504  0.697822  0.617695  -0.576614
    H   H16  0.736306  0.638679  0.652076  0.359829
    O   O11  0.638904  0.595305  0.467816  -0.512216
    H   H17  0.614315  0.488373  0.434487  0.323514
    O   O12  0.522888  0.939540  0.947659  -0.417275
    H   H18  0.533185  0.828390  0.929597  0.320019
