# Generated by REPEAT Assigner based on pymatgen
data_DB0-m2_o17_o28_f0_pcu.sym.79_sqe
_audit_creation_date              2022-05-24
_audit_creation_method            REPEAT_Assigner
_cell_length_a                    14.993893
_cell_length_b                    13.526383
_cell_length_c                    23.335498
_cell_angle_alpha                 90.000000
_cell_angle_beta                  90.002632
_cell_angle_gamma                 90.000000
_cell_volume                      4732.745656
_symmetry_space_group_name_H-M    P1
_symmetry_Int_Tables_number       1
loop_
    _symmetry_equiv_pos_site_id
    _symmetry_equiv_pos_as_xyz
    1  x,y,z
loop_
    _atom_site_type_symbol
    _atom_site_label
    _atom_site_fract_x
    _atom_site_fract_y
    _atom_site_fract_z
    _atom_type_partial_charge
    O   O1   0.370642  0.584225  0.502285  -0.564203
    O   O2   0.630187  0.414449  0.498473  -0.571589
    O   O3   0.629854  0.584184  0.502667  -0.580424
    O   O4   0.370979  0.414416  0.498120  -0.574135
    C   C1   0.328898  0.499242  0.500120  0.680785
    C   C2   0.671946  0.499407  0.500592  0.694828
    O   O5   0.497371  0.584293  0.417194  -0.585163
    O   O6   0.503503  0.414363  0.583558  -0.589553
    O   O7   0.496833  0.584150  0.583748  -0.586088
    O   O8   0.504001  0.414452  0.417002  -0.578796
    C   C3   0.500755  0.499482  0.390190  0.637640
    C   C4   0.500065  0.499163  0.610559  0.649363
    Cu  Cu1  0.500433  0.598179  0.500496  0.888925
    Cu  Cu2  0.500427  0.400488  0.500241  0.885907
    C   C5   0.575921  0.493738  0.881204  0.322474
    C   C6   0.423585  0.506482  0.119418  0.317474
    N   N1   0.497998  0.497996  0.852970  -0.062550
    N   N2   0.501495  0.501472  0.147668  -0.045276
    C   C7   0.419813  0.502603  0.881179  0.338868
    C   C8   0.579644  0.496460  0.119402  0.335802
    C   C9   0.418101  0.502864  0.941129  -0.104429
    C   C10  0.581363  0.497029  0.059453  -0.106197
    C   C11  0.498593  0.499395  0.970578  -0.011102
    C   C12  0.500864  0.500484  0.030012  -0.005340
    C   C13  0.577318  0.494838  0.940296  0.099788
    C   C14  0.422162  0.505300  0.060302  0.090342
    C   C15  0.338857  0.506394  0.972623  0.125626
    C   C16  0.660630  0.493751  0.027948  0.123414
    C   C17  0.341966  0.508210  0.031517  -0.251802
    C   C18  0.657525  0.492518  0.969055  -0.255843
    O   O9   0.652504  0.489955  0.851376  -0.432903
    O   O10  0.346993  0.510700  0.149219  -0.431136
    O   O11  0.344508  0.506014  0.850085  -0.429137
    O   O12  0.654932  0.491148  0.150421  -0.429589
    H   H1   0.279570  0.511212  0.054595  0.133046
    H   H2   0.719927  0.490637  0.945943  0.134191
    C   C19  0.483408  0.586552  0.238586  -0.186052
    C   C20  0.481851  0.584589  0.762409  -0.173574
    H   H3   0.469643  0.654307  0.215661  0.133980
    H   H4   0.468648  0.652238  0.785557  0.132453
    C   C21  0.483812  0.586297  0.297671  -0.059531
    C   C22  0.483078  0.585235  0.703342  -0.081894
    H   H5   0.469662  0.654321  0.320172  0.109672
    H   H6   0.470084  0.653837  0.681129  0.113851
    C   C23  0.500930  0.499823  0.327351  -0.031219
    C   C24  0.499594  0.498903  0.673385  -0.041908
    C   C25  0.518099  0.413784  0.297252  -0.099849
    C   C26  0.515413  0.412246  0.703183  -0.054795
    H   H7   0.531885  0.345298  0.319397  0.117907
    H   H8   0.528720  0.343909  0.680791  0.108832
    C   C27  0.518835  0.414619  0.238152  -0.149489
    C   C28  0.515301  0.412156  0.762265  -0.193251
    H   H9   0.532563  0.347223  0.214877  0.126155
    H   H10  0.528023  0.344279  0.785323  0.139471
    C   C29  0.501350  0.500899  0.208714  0.174756
    C   C30  0.498210  0.498196  0.791958  0.193237
    C   C31  0.816304  0.411207  0.498683  -0.226526
    C   C32  0.184616  0.587475  0.501657  -0.229234
    C   C33  0.769812  0.499483  0.500460  -0.037520
    C   C34  0.231062  0.499180  0.500022  -0.030077
    C   C35  0.816365  0.587733  0.501959  -0.224067
    C   C36  0.184533  0.410927  0.498381  -0.227407
    C   C37  0.908426  0.587564  0.501821  0.197444
    C   C38  0.092491  0.411086  0.498431  0.198243
    C   C39  0.954432  0.499368  0.500174  -0.019262
    C   C40  0.046495  0.499299  0.500088  -0.018146
    C   C41  0.908357  0.411243  0.498581  0.202491
    C   C42  0.092574  0.587436  0.501674  0.200965
    C   C43  0.954563  0.675757  0.503358  -0.219767
    C   C44  0.046351  0.322888  0.496850  -0.218322
    C   C45  0.046474  0.675709  0.503302  -0.219164
    C   C46  0.954448  0.322967  0.496907  -0.221497
    H   H11  0.781257  0.341443  0.497403  0.121012
    H   H12  0.219690  0.657217  0.502924  0.120907
    H   H13  0.781309  0.657482  0.503220  0.124255
    H   H14  0.219568  0.341188  0.497114  0.124876
    H   H15  0.918952  0.745203  0.504645  0.137079
    H   H16  0.081918  0.253387  0.495580  0.136172
    H   H17  0.082005  0.745204  0.504561  0.136745
    H   H18  0.918937  0.253476  0.495669  0.137760
    C   C47  0.443229  0.795500  0.535084  -0.088724
    C   C48  0.555035  0.203158  0.463997  -0.093860
    C   C49  0.554266  0.795078  0.464427  -0.045253
    C   C50  0.443484  0.203528  0.534306  -0.050405
    N   N3   0.499989  0.746014  0.500704  -0.078579
    N   N4   0.500918  0.252605  0.500161  -0.070698
    C   C51  0.554585  0.897080  0.463424  0.096111
    C   C52  0.441938  0.101522  0.534497  0.096862
    C   C53  0.441825  0.897526  0.534948  0.113355
    C   C54  0.554932  0.101123  0.463137  0.110390
    C   C55  0.498080  0.948437  0.498977  0.038251
    C   C56  0.498202  0.050184  0.498797  0.040541
    C   C57  0.611463  0.947820  0.427378  -0.182492
    C   C58  0.385008  0.050805  0.570523  -0.178773
    C   C59  0.384986  0.948773  0.570797  -0.190630
    C   C60  0.611665  0.049865  0.427231  -0.184917
    H   H19  0.399232  0.755135  0.563323  0.144545
    H   H20  0.599657  0.243562  0.436182  0.145985
    H   H21  0.598565  0.754332  0.436545  0.114322
    H   H22  0.399513  0.244232  0.562414  0.116501
    H   H23  0.656379  0.908025  0.399455  0.136393
    H   H24  0.340726  0.090598  0.598857  0.135360
    H   H25  0.340698  0.909459  0.599384  0.137922
    H   H26  0.656709  0.089204  0.399149  0.136588
    C   C61  0.249974  0.508512  0.946774  0.304562
    C   C62  0.205163  0.421347  0.935632  -0.102326
    Cl  Cl1  0.255592  0.307276  0.950303  -0.071344
    C   C63  0.120416  0.423912  0.912720  0.016515
    C   C64  0.080068  0.513368  0.901332  -0.034787
    Cl  Cl2  0.972325  0.516440  0.872426  -0.077439
    C   C65  0.124325  0.600394  0.913040  -0.001557
    C   C66  0.209033  0.597992  0.936006  -0.319214
    H   H27  0.085489  0.355710  0.903805  0.087765
    H   H28  0.092511  0.670520  0.904344  0.098209
    H   H29  0.243533  0.666267  0.945401  0.154084
    C   C67  0.749556  0.496223  0.053731  0.303184
    C   C68  0.796764  0.409752  0.062231  -0.100476
    Cl  Cl3  0.749145  0.295401  0.044740  -0.068415
    C   C69  0.881484  0.413186  0.085163  0.013166
    C   C70  0.919507  0.502867  0.099028  -0.029045
    Cl  Cl4  0.027111  0.507029  0.128084  -0.077456
    C   C71  0.872938  0.589286  0.089805  -0.009683
    C   C72  0.788164  0.585987  0.067005  -0.313688
    H   H30  0.918162  0.345480  0.092225  0.086341
    H   H31  0.902931  0.659634  0.100378  0.100904
    H   H32  0.751816  0.653787  0.059545  0.152973
