# generated using pymatgen
data_ZnH7C13(NO2)3
_symmetry_space_group_name_H-M   'P 1'
_cell_length_a   9.21132900
_cell_length_b   8.54437300
_cell_length_c   15.01363400
_cell_angle_alpha   90.00000000
_cell_angle_beta   91.02148400
_cell_angle_gamma   90.00000000
_symmetry_Int_Tables_number   1
_chemical_formula_structural   ZnH7C13(NO2)3
_chemical_formula_sum   'Zn2 H14 C26 N6 O12'
_cell_volume   1181.46073978
_cell_formula_units_Z   2
loop_
 _symmetry_equiv_pos_site_id
 _symmetry_equiv_pos_as_xyz
  1  'x, y, z'
loop_
 _atom_site_type_symbol
 _atom_site_label
 _atom_site_symmetry_multiplicity
 _atom_site_fract_x
 _atom_site_fract_y
 _atom_site_fract_z
 _atom_site_occupancy
  Zn  Zn1  1  0.83822500  0.51566800  0.50137700  1
  Zn  Zn2  1  0.16177400  0.51566800  0.49862300  1
  H  H1  1  0.04953600  0.01572300  0.56337500  1
  H  H2  1  0.95046400  0.01572300  0.43662600  1
  H  H3  1  0.98145700  0.26698800  0.80145900  1
  H  H4  1  0.01846900  0.76433600  0.19857000  1
  H  H5  1  0.01854200  0.26698800  0.19854100  1
  H  H6  1  0.98153000  0.76433600  0.80143000  1
  H  H7  1  0.36275900  0.52321400  0.35994400  1
  H  H8  1  0.63724200  0.52321400  0.64005600  1
  H  H9  1  0.75987100  0.56486300  0.19624500  1
  H  H10  1  0.59168100  0.52515000  0.13614000  1
  H  H11  1  0.71932700  0.36814900  0.15840500  1
  H  H12  1  0.24012800  0.56486300  0.80375500  1
  H  H13  1  0.40831800  0.52515000  0.86386000  1
  H  H14  1  0.28067300  0.36814900  0.84159500  1
  C  C1  1  0.00750400  0.15530600  0.67608000  1
  C  C2  1  0.99245300  0.87607500  0.32393900  1
  C  C3  1  0.99249500  0.15530600  0.32392000  1
  C  C4  1  0.00754600  0.87607500  0.67606100  1
  C  C5  1  0.98975400  0.15634400  0.76706700  1
  C  C6  1  0.01019900  0.87499400  0.23295100  1
  C  C7  1  0.01024500  0.15634400  0.23293300  1
  C  C8  1  0.98980100  0.87499400  0.76704900  1
  C  C9  1  0.98858200  0.01566000  0.81340400  1
  C  C10  1  0.01141700  0.01566000  0.18659600  1
  C  C11  1  0.57431500  0.51259200  0.42271900  1
  C  C12  1  0.42568500  0.51259200  0.57728100  1
  C  C13  1  0.02616600  0.01570300  0.63294000  1
  C  C14  1  0.97383400  0.01570300  0.36706000  1
  C  C15  1  0.00926400  0.01565100  0.08898800  1
  C  C16  1  0.99073600  0.01565100  0.91101200  1
  C  C17  1  0.42407000  0.51549000  0.42174200  1
  C  C18  1  0.57592900  0.51549000  0.57825800  1
  C  C19  1  0.00441600  0.73392600  0.62195100  1
  C  C20  1  0.99561100  0.29748000  0.37800500  1
  C  C21  1  0.99558400  0.73392600  0.37804900  1
  C  C22  1  0.00438800  0.29748000  0.62199500  1
  C  C23  1  0.59936400  0.44446100  0.27055600  1
  C  C24  1  0.67220800  0.47778300  0.18486800  1
  C  C25  1  0.40063600  0.44446100  0.72944400  1
  C  C26  1  0.32779100  0.47778300  0.81513200  1
  N  N1  1  0.99577100  0.87953600  0.95600200  1
  N  N2  1  0.00422900  0.15176300  0.04399700  1
  N  N3  1  0.00422800  0.87953600  0.04399800  1
  N  N4  1  0.99577100  0.15176300  0.95600300  1
  N  N5  1  0.35218500  0.51557000  0.49884400  1
  N  N6  1  0.64781500  0.51557000  0.50115600  1
  O  O1  1  0.12741300  0.68491300  0.58930800  1
  O  O2  1  0.87267900  0.34638600  0.41072900  1
  O  O3  1  0.87258700  0.68491300  0.41069300  1
  O  O4  1  0.12732100  0.34638600  0.58927100  1
  O  O5  1  0.87735400  0.67920500  0.59567700  1
  O  O6  1  0.12262100  0.35229900  0.40423600  1
  O  O7  1  0.12264600  0.67920500  0.40432300  1
  O  O8  1  0.87737800  0.35229900  0.59576400  1
  O  O9  1  0.64865600  0.51310000  0.34619600  1
  O  O10  1  0.50291600  0.34690400  0.27278100  1
  O  O11  1  0.35134400  0.51310000  0.65380400  1
  O  O12  1  0.49708400  0.34690400  0.72721900  1
