# generated using pymatgen
data_VH14C17O9
_symmetry_space_group_name_H-M   'P 1'
_cell_length_a   20.77786400
_cell_length_b   6.22980900
_cell_length_c   19.83302600
_cell_angle_alpha   90.00000000
_cell_angle_beta   102.08161800
_cell_angle_gamma   90.00000000
_symmetry_Int_Tables_number   1
_chemical_formula_structural   VH14C17O9
_chemical_formula_sum   'V4 H56 C68 O36'
_cell_volume   2510.36601451
_cell_formula_units_Z   4
loop_
 _symmetry_equiv_pos_site_id
 _symmetry_equiv_pos_as_xyz
  1  'x, y, z'
loop_
 _atom_site_type_symbol
 _atom_site_label
 _atom_site_symmetry_multiplicity
 _atom_site_fract_x
 _atom_site_fract_y
 _atom_site_fract_z
 _atom_site_occupancy
  V  V1  1  0.74570900  0.86309100  0.23129400  1
  V  V2  1  0.25430700  0.13754900  0.76870700  1
  V  V3  1  0.75429100  0.36309100  0.26870600  1
  V  V4  1  0.24569300  0.63754900  0.73129300  1
  H  H1  1  0.07811300  0.29024500  0.64872900  1
  H  H2  1  0.92174200  0.71028800  0.35150600  1
  H  H3  1  0.42188700  0.79024500  0.85127000  1
  H  H4  1  0.57825800  0.21028800  0.14849400  1
  H  H5  1  0.01240000  0.60556400  0.44110400  1
  H  H6  1  0.98749600  0.39515300  0.55911600  1
  H  H7  1  0.48759900  0.10556400  0.05889600  1
  H  H8  1  0.51250300  0.89515300  0.94088400  1
  H  H9  1  0.09283600  0.54433400  0.50509700  1
  H  H10  1  0.10258200  0.54659600  0.59678500  1
  H  H11  1  0.17602700  0.77178100  0.51434400  1
  H  H12  1  0.89724700  0.45384600  0.40359400  1
  H  H13  1  0.90671800  0.45480700  0.49551100  1
  H  H14  1  0.80131900  0.42914200  0.41919300  1
  H  H15  1  0.40716400  0.04433400  0.99490300  1
  H  H16  1  0.39741800  0.04659700  0.90321500  1
  H  H17  1  0.32397200  0.27178000  0.98565600  1
  H  H18  1  0.60275300  0.95384600  0.09640600  1
  H  H19  1  0.59328200  0.95480700  0.00448900  1
  H  H20  1  0.69868100  0.92914300  0.08080700  1
  H  H21  1  0.57106100  0.95708800  0.66666667  1
  H  H22  1  0.61534500  0.77093600  0.62322900  1
  H  H23  1  0.51536500  0.71342200  0.68846000  1
  H  H24  1  0.38440000  0.22964400  0.37645300  1
  H  H25  1  0.42870900  0.04356500  0.33304700  1
  H  H26  1  0.48604400  0.28507900  0.31251500  1
  H  H27  1  0.92893800  0.45708800  0.83334400  1
  H  H28  1  0.88465500  0.27093600  0.87677100  1
  H  H29  1  0.98463500  0.21342200  0.81154000  1
  H  H30  1  0.11560000  0.72964400  0.12354700  1
  H  H31  1  0.07129000  0.54356500  0.16695300  1
  H  H32  1  0.01395600  0.78507900  0.18748500  1
  H  H33  1  0.60207500  0.34514300  0.60298400  1
  H  H34  1  0.63200700  0.33342900  0.52291700  1
  H  H35  1  0.65532600  0.97119300  0.55703600  1
  H  H36  1  0.36774000  0.66681300  0.47671900  1
  H  H37  1  0.39739500  0.65540500  0.39667700  1
  H  H38  1  0.32524600  0.97745400  0.44869700  1
  H  H39  1  0.89792500  0.84514300  0.89701500  1
  H  H40  1  0.86799300  0.83342900  0.97708300  1
  H  H41  1  0.84467500  0.47118900  0.94296300  1
  H  H42  1  0.13226000  0.16681400  0.02328100  1
  H  H43  1  0.10260600  0.15540100  0.10332300  1
  H  H44  1  0.17488700  0.47702300  0.05131300  1
  H  H45  1  0.52538500  0.52801700  0.42635200  1
  H  H46  1  0.54673200  0.47972900  0.51881700  1
  H  H47  1  0.62496400  0.53171500  0.43786300  1
  H  H48  1  0.45286600  0.51987000  0.48056600  1
  H  H49  1  0.47437600  0.47306200  0.57326500  1
  H  H50  1  0.37481300  0.22239500  0.51230700  1
  H  H51  1  0.97461500  0.02801600  0.07364800  1
  H  H52  1  0.95326800  0.97973000  0.98118200  1
  H  H53  1  0.87503600  0.03171800  0.06213800  1
  H  H54  1  0.04713400  0.01987100  0.01943300  1
  H  H55  1  0.02562400  0.97306100  0.92673500  1
  H  H56  1  0.12519100  0.72240800  0.98770900  1
  C  C1  1  0.83005800  0.57064300  0.17170700  1
  C  C2  1  0.17007900  0.43001000  0.82843800  1
  C  C3  1  0.66994200  0.07064300  0.32829300  1
  C  C4  1  0.32992100  0.93001000  0.67156200  1
  C  C5  1  0.64793500  0.56522400  0.15798700  1
  C  C6  1  0.35216900  0.43539700  0.84187500  1
  C  C7  1  0.85206500  0.06522400  0.34201300  1
  C  C8  1  0.14783000  0.93539700  0.65812500  1
  C  C9  1  0.09029000  0.98582000  0.60478400  1
  C  C10  1  0.90954600  0.01476900  0.39542700  1
  C  C11  1  0.40971000  0.48582000  0.89521600  1
  C  C12  1  0.59045400  0.51476900  0.10457300  1
  C  C13  1  0.99190200  0.76217300  0.44486300  1
  C  C14  1  0.00792300  0.23842100  0.55537900  1
  C  C15  1  0.50809800  0.26217300  0.05513700  1
  C  C16  1  0.49207700  0.73842100  0.94462100  1
  C  C17  1  0.93963900  0.81975800  0.39352500  1
  C  C18  1  0.06019900  0.18081700  0.60670500  1
  C  C19  1  0.56036000  0.31975800  0.10647500  1
  C  C20  1  0.43980100  0.68081700  0.89329500  1
  C  C21  1  0.93074100  0.15477900  0.44909500  1
  C  C22  1  0.06904100  0.84575800  0.55115200  1
  C  C23  1  0.56925900  0.65477900  0.05090400  1
  C  C24  1  0.43095900  0.34575800  0.94884800  1
  C  C25  1  0.98444000  0.09929000  0.50124300  1
  C  C26  1  0.01534900  0.90127000  0.49901100  1
  C  C27  1  0.51556000  0.59929000  0.99875700  1
  C  C28  1  0.48465100  0.40127000  0.00098900  1
  C  C29  1  0.55048400  0.12122700  0.52754600  1
  C  C30  1  0.44924300  0.87944500  0.47218100  1
  C  C31  1  0.94951600  0.62122700  0.97245400  1
  C  C32  1  0.05075700  0.37944500  0.02781900  1
  C  C33  1  0.53006400  0.91679100  0.55840400  1
  C  C34  1  0.46966800  0.08387600  0.44132300  1
  C  C35  1  0.96993600  0.41679100  0.94159600  1
  C  C36  1  0.03033200  0.58387600  0.05867700  1
  C  C37  1  0.37553100  0.96006900  0.62695600  1
  C  C38  1  0.62426900  0.04060100  0.37283900  1
  C  C39  1  0.12446900  0.46006900  0.87304400  1
  C  C40  1  0.87573100  0.54060100  0.12716100  1
  C  C41  1  0.47912800  0.19466400  0.51070800  1
  C  C42  1  0.52060200  0.80600300  0.48901800  1
  C  C43  1  0.02087200  0.69466400  0.98929200  1
  C  C44  1  0.97939800  0.30600300  0.01098200  1
  C  C45  1  0.45900100  0.99020700  0.54155600  1
  C  C46  1  0.54073000  0.01046600  0.45817300  1
  C  C47  1  0.04099900  0.49020700  0.95844400  1
  C  C48  1  0.95927000  0.51046700  0.04182700  1
  C  C49  1  0.41340700  0.97650700  0.58868600  1
  C  C50  1  0.58635400  0.02417400  0.41107000  1
  C  C51  1  0.08659300  0.47650700  0.91131400  1
  C  C52  1  0.91364600  0.52417400  0.08893000  1
  C  C53  1  0.10798000  0.64377500  0.55151900  1
  C  C54  1  0.89171600  0.35657200  0.44880200  1
  C  C55  1  0.39201900  0.14377500  0.94848100  1
  C  C56  1  0.60828400  0.85657200  0.05119800  1
  C  C57  1  0.56576700  0.82823400  0.62729900  1
  C  C58  1  0.43399000  0.17239900  0.37241200  1
  C  C59  1  0.93423300  0.32823400  0.87270100  1
  C  C60  1  0.06601000  0.67239900  0.12758800  1
  C  C61  1  0.61266400  0.23914300  0.56167800  1
  C  C62  1  0.38704400  0.76162100  0.43804500  1
  C  C63  1  0.88733500  0.73914300  0.93832200  1
  C  C64  1  0.11295600  0.26162200  0.06195500  1
  C  C65  1  0.55080300  0.59274500  0.47684700  1
  C  C66  1  0.44891400  0.40791100  0.52284800  1
  C  C67  1  0.94919700  0.09274500  0.02315300  1
  C  C68  1  0.05108500  0.90791200  0.97715200  1
  O  O1  1  0.67473300  0.39957900  0.19550600  1
  O  O2  1  0.32533000  0.60105900  0.80439200  1
  O  O3  1  0.82526700  0.89957900  0.30449400  1
  O  O4  1  0.17466900  0.10105900  0.69560800  1
  O  O5  1  0.80384100  0.76475400  0.17017100  1
  O  O6  1  0.19628000  0.23588700  0.82993900  1
  O  O7  1  0.69615900  0.26475400  0.32982900  1
  O  O8  1  0.30372000  0.73588700  0.67006100  1
  O  O9  1  0.67054100  0.76412700  0.15991800  1
  O  O10  1  0.32955300  0.23651000  0.83998800  1
  O  O11  1  0.82945900  0.26412700  0.34008200  1
  O  O12  1  0.17044700  0.73651000  0.66001200  1
  O  O13  1  0.68433100  0.89901200  0.29422900  1
  O  O14  1  0.31557600  0.10162900  0.70565700  1
  O  O15  1  0.81566900  0.39901200  0.20577100  1
  O  O16  1  0.18442400  0.60162900  0.79434300  1
  O  O17  1  0.75812200  0.62001300  0.29371800  1
  O  O18  1  0.24182900  0.38062600  0.70628000  1
  O  O19  1  0.74187800  0.12001300  0.20628200  1
  O  O20  1  0.25817100  0.88062600  0.79372000  1
  O  O21  1  0.17417900  0.69655200  0.55786700  1
  O  O22  1  0.82552700  0.30324900  0.44218800  1
  O  O23  1  0.32582100  0.19655200  0.94213300  1
  O  O24  1  0.67447300  0.80324900  0.05781200  1
  O  O25  1  0.53000400  0.65916800  0.64721600  1
  O  O26  1  0.46974600  0.34151400  0.35251500  1
  O  O27  1  0.96999600  0.15916800  0.85278400  1
  O  O28  1  0.03025300  0.84151400  0.14748500  1
  O  O29  1  0.66017000  0.08943300  0.59107800  1
  O  O30  1  0.33944500  0.91126900  0.40882300  1
  O  O31  1  0.83983000  0.58943200  0.90892200  1
  O  O32  1  0.16055500  0.41126900  0.09117700  1
  O  O33  1  0.61702600  0.62433400  0.47586000  1
  O  O34  1  0.38271300  0.37605000  0.52387800  1
  O  O35  1  0.88297400  0.12433400  0.02414000  1
  O  O36  1  0.11728700  0.87605000  0.97612200  1
