# generated using pymatgen
data_CuH6C15NO4F3
_symmetry_space_group_name_H-M   'P 1'
_cell_length_a   11.69420900
_cell_length_b   12.97818600
_cell_length_c   14.02436100
_cell_angle_alpha   89.57249700
_cell_angle_beta   90.42938200
_cell_angle_gamma   99.59877300
_symmetry_Int_Tables_number   1
_chemical_formula_structural   CuH6C15NO4F3
_chemical_formula_sum   'Cu2 H12 C30 N2 O8 F6'
_cell_volume   2098.57191184
_cell_formula_units_Z   2
loop_
 _symmetry_equiv_pos_site_id
 _symmetry_equiv_pos_as_xyz
  1  'x, y, z'
loop_
 _atom_site_type_symbol
 _atom_site_label
 _atom_site_symmetry_multiplicity
 _atom_site_fract_x
 _atom_site_fract_y
 _atom_site_fract_z
 _atom_site_occupancy
  Cu  Cu1  1  0.61532600  0.50643300  0.50633400  1
  Cu  Cu2  1  0.38442300  0.49327500  0.49466400  1
  H  H1  1  0.40839300  0.57119100  0.00323500  1
  H  H2  1  0.59134100  0.42839400  0.99783000  1
  H  H3  1  0.35241600  0.81404500  0.50813300  1
  H  H4  1  0.64767400  0.18553300  0.49065700  1
  H  H5  1  0.72080800  0.84364400  0.48324000  1
  H  H6  1  0.27927400  0.15600400  0.51592000  1
  H  H7  1  0.26353700  0.96639000  0.51418400  1
  H  H8  1  0.73646500  0.03323300  0.48414900  1
  H  H9  1  0.78674600  0.63729400  0.41404200  1
  H  H10  1  0.21394900  0.36297800  0.58714400  1
  H  H11  1  0.01875300  0.33617200  0.62183000  1
  H  H12  1  0.98122800  0.66392400  0.37988800  1
  C  C1  1  0.47592600  0.29906800  0.50509700  1
  C  C2  1  0.52408100  0.70054800  0.49504700  1
  C  C3  1  0.48835900  0.50569700  0.68303600  1
  C  C4  1  0.51141100  0.49395800  0.31800900  1
  C  C5  1  0.51789000  0.48812800  0.21608500  1
  C  C6  1  0.48185800  0.51148700  0.78496800  1
  C  C7  1  0.53228300  0.47484400  0.02870000  1
  C  C8  1  0.46742900  0.52471600  0.97236600  1
  C  C9  1  0.47557200  0.51721800  0.87044600  1
  C  C10  1  0.52415500  0.48236100  0.13061200  1
  C  C11  1  0.53522900  0.81507700  0.49457000  1
  C  C12  1  0.46480200  0.18455900  0.50425900  1
  C  C13  1  0.34816400  0.01452900  0.50927700  1
  C  C14  1  0.65183300  0.98510600  0.48902300  1
  C  C15  1  0.35718000  0.12194900  0.51010400  1
  C  C16  1  0.64284700  0.87768000  0.48858600  1
  C  C17  1  0.56289400  0.13826200  0.49677700  1
  C  C18  1  0.43712300  0.86138000  0.50168600  1
  C  C19  1  0.55365600  0.03078300  0.49594300  1
  C  C20  1  0.44633700  0.96886000  0.50226400  1
  C  C21  1  0.04692500  0.39792500  0.57151500  1
  C  C22  1  0.95303800  0.60186600  0.42987700  1
  C  C23  1  0.16231000  0.41175100  0.54964300  1
  C  C24  1  0.83782300  0.58837600  0.45185000  1
  C  C25  1  0.14292400  0.54720800  0.44327300  1
  C  C26  1  0.85649000  0.45175000  0.55704800  1
  C  C27  1  0.02453000  0.53723400  0.46823100  1
  C  C28  1  0.97516900  0.46212000  0.53271400  1
  C  C29  1  0.81068600  0.37099800  0.63203200  1
  C  C30  1  0.18775800  0.62692800  0.36705700  1
  N  N1  1  0.78817000  0.51552000  0.51449600  1
  N  N2  1  0.21158400  0.48414000  0.48645500  1
  O  O1  1  0.58032500  0.35398000  0.50654100  1
  O  O2  1  0.42000000  0.64559900  0.48857000  1
  O  O3  1  0.38259300  0.34239800  0.49764500  1
  O  O4  1  0.61763800  0.65718700  0.49803700  1
  O  O5  1  0.59051100  0.51362700  0.64355600  1
  O  O6  1  0.40906800  0.48574000  0.35744500  1
  O  O7  1  0.39174500  0.49447100  0.63382200  1
  O  O8  1  0.60824200  0.50555500  0.36716400  1
  F  F1  1  0.69755100  0.37087200  0.65519900  1
  F  F2  1  0.87419300  0.39135000  0.71543800  1
  F  F3  1  0.81906300  0.27206600  0.59981700  1
  F  F4  1  0.29994500  0.62589000  0.34183000  1
  F  F5  1  0.18129300  0.72644400  0.39880200  1
  F  F6  1  0.12213300  0.60621600  0.28475400  1
