# generated using pymatgen
data_ZnH10C21(NO2)2
_symmetry_space_group_name_H-M   'P 1'
_cell_length_a   8.55559600
_cell_length_b   11.07906400
_cell_length_c   17.54916200
_cell_angle_alpha   90.54602000
_cell_angle_beta   92.61643200
_cell_angle_gamma   80.60679300
_symmetry_Int_Tables_number   1
_chemical_formula_structural   ZnH10C21(NO2)2
_chemical_formula_sum   'Zn2 H20 C42 N4 O8'
_cell_volume   1639.43104254
_cell_formula_units_Z   2
loop_
 _symmetry_equiv_pos_site_id
 _symmetry_equiv_pos_as_xyz
  1  'x, y, z'
loop_
 _atom_site_type_symbol
 _atom_site_label
 _atom_site_symmetry_multiplicity
 _atom_site_fract_x
 _atom_site_fract_y
 _atom_site_fract_z
 _atom_site_occupancy
  Zn  Zn1  1  0.49145200  0.51538900  0.91534400  1
  Zn  Zn2  1  0.50854000  0.48460900  0.08465600  1
  H  H1  1  0.00865200  0.58130500  0.03348700  1
  H  H2  1  0.99134000  0.41869300  0.96651300  1
  H  H3  1  0.65071500  0.89239000  0.00499500  1
  H  H4  1  0.34927700  0.10760800  0.99500400  1
  H  H5  1  0.28385200  0.91099200  0.00161900  1
  H  H6  1  0.71614000  0.08900500  0.99838000  1
  H  H7  1  0.55876000  0.21823700  0.70225200  1
  H  H8  1  0.44095900  0.78175900  0.29773600  1
  H  H9  1  0.59277300  0.17805400  0.32246400  1
  H  H10  1  0.40751900  0.82195800  0.67754700  1
  H  H11  1  0.58666800  0.18687500  0.45517000  1
  H  H12  1  0.41369700  0.81314700  0.54484800  1
  H  H13  1  0.56747900  0.19818000  0.56891500  1
  H  H14  1  0.43216000  0.80182200  0.43106600  1
  H  H15  1  0.52621500  0.33808300  0.81270600  1
  H  H16  1  0.47368800  0.66191600  0.18729200  1
  H  H17  1  0.49220900  0.75981900  0.85413400  1
  H  H18  1  0.29772700  0.75911000  0.82686500  1
  H  H19  1  0.50795100  0.24019800  0.14584300  1
  H  H20  1  0.70240200  0.24091800  0.17316300  1
  C  C1  1  0.09363100  0.74716300  0.01537100  1
  C  C2  1  0.90636100  0.25283500  0.98462800  1
  C  C3  1  0.97640700  0.67833800  0.02521200  1
  C  C4  1  0.02358500  0.32166000  0.97478700  1
  C  C5  1  0.81911800  0.73031900  0.01910600  1
  C  C6  1  0.18087400  0.26967800  0.98089400  1
  C  C7  1  0.77509900  0.85342100  0.00981600  1
  C  C8  1  0.22489400  0.14657700  0.99018400  1
  C  C9  1  0.88918800  0.92606000  0.00609300  1
  C  C10  1  0.11080500  0.07393800  0.99390600  1
  C  C11  1  0.04863900  0.87356300  0.00683900  1
  C  C12  1  0.95135300  0.12643400  0.99316000  1
  C  C13  1  0.84084300  0.05092900  0.99945700  1
  C  C14  1  0.15914900  0.94906800  0.00054200  1
  C  C15  1  0.30073500  0.34698600  0.98702900  1
  C  C16  1  0.69925800  0.65301200  0.01297100  1
  C  C17  1  0.25669200  0.67765800  0.01006600  1
  C  C18  1  0.74330000  0.32234000  0.98993300  1
  C  C19  1  0.50925400  0.42143100  0.77991700  1
  C  C20  1  0.49068500  0.57856700  0.22008100  1
  C  C21  1  0.45440700  0.63437500  0.77328000  1
  C  C22  1  0.54565000  0.36562700  0.22672100  1
  C  C23  1  0.49009000  0.51650100  0.65794600  1
  C  C24  1  0.50991000  0.48350100  0.34205400  1
  C  C25  1  0.51345200  0.41305600  0.70177300  1
  C  C26  1  0.48647600  0.58694300  0.29822400  1
  C  C27  1  0.54106500  0.30023400  0.66791200  1
  C  C28  1  0.45875600  0.69976400  0.33208000  1
  C  C29  1  0.45975100  0.62787600  0.69427800  1
  C  C30  1  0.54032100  0.37212700  0.30572400  1
  C  C31  1  0.53059400  0.38568200  0.46453100  1
  C  C32  1  0.46944800  0.61432400  0.53547100  1
  C  C33  1  0.47534800  0.60609900  0.45594500  1
  C  C34  1  0.52461200  0.39390500  0.54405300  1
  C  C35  1  0.50508600  0.49175500  0.42113200  1
  C  C36  1  0.49491500  0.50825000  0.57886800  1
  C  C37  1  0.56278500  0.27357200  0.42684100  1
  C  C38  1  0.43740100  0.72643900  0.57316600  1
  C  C39  1  0.56752000  0.26724100  0.34875200  1
  C  C40  1  0.43266400  0.73276700  0.65125500  1
  C  C41  1  0.54657100  0.29012700  0.59010500  1
  C  C42  1  0.45324700  0.70987400  0.40988600  1
  N  N1  1  0.48364500  0.53071100  0.81556500  1
  N  N2  1  0.51634800  0.46928800  0.18443400  1
  N  N3  1  0.41308400  0.75108000  0.80841600  1
  N  N4  1  0.58702600  0.24893000  0.19158400  1
  O  O1  1  0.35238500  0.37259500  0.05565700  1
  O  O2  1  0.64761000  0.62740000  0.94434300  1
  O  O3  1  0.34493200  0.39191100  0.92448400  1
  O  O4  1  0.65505800  0.60808900  0.07551600  1
  O  O5  1  0.30675300  0.64453900  0.94178900  1
  O  O6  1  0.69324100  0.35545900  0.05821100  1
  O  O7  1  0.32499700  0.62379700  0.07242400  1
  O  O8  1  0.67499300  0.37619900  0.92757500  1
