# Generated by REPEAT Assigner based on pymatgen
data_DB0-m29_o99_o1500_f0_pts.sym.115
_audit_creation_date              2022-05-24
_audit_creation_method            REPEAT_Assigner
_cell_length_a                    15.898934
_cell_length_b                    16.051241
_cell_length_c                    13.751256
_cell_angle_alpha                 88.507354
_cell_angle_beta                  97.527778
_cell_angle_gamma                 104.422366
_cell_volume                      3369.325484
_symmetry_space_group_name_H-M    P1
_symmetry_Int_Tables_number       1
loop_
    _symmetry_equiv_pos_site_id
    _symmetry_equiv_pos_as_xyz
    1  x,y,z
loop_
    _atom_site_type_symbol
    _atom_site_label
    _atom_site_fract_x
    _atom_site_fract_y
    _atom_site_fract_z
    _atom_type_partial_charge
    C   C1   0.223133  0.973630  0.860206  -0.155530
    H   H1   0.232593  0.966888  0.784668  0.178607
    C   C2   0.141092  0.973269  0.882040  -0.162370
    H   H2   0.086545  0.964588  0.824231  0.142597
    C   C3   0.129238  0.987253  0.976891  0.297022
    C   C4   0.198628  0.997790  0.050823  -0.209904
    H   H3   0.186796  0.006181  0.125099  0.162210
    C   C5   0.281648  0.997762  0.030070  0.036019
    C   C6   0.294050  0.988346  0.932728  0.006791
    C   C7   0.044552  0.991756  0.998363  -0.137591
    C   C8   0.973462  0.996049  0.015945  -0.131915
    C   C9   0.819424  0.990573  0.963790  -0.221459
    H   H4   0.831072  0.982344  0.889403  0.164090
    C   C10  0.736602  0.991112  0.984766  0.057030
    C   C11  0.724377  0.000348  0.082163  -0.005960
    C   C12  0.795349  0.014594  0.154608  -0.142347
    H   H5   0.786077  0.021249  0.230226  0.173275
    C   C13  0.877236  0.014605  0.132559  -0.172157
    H   H6   0.931836  0.022977  0.190273  0.145097
    C   C14  0.888876  0.000699  0.037609  0.300417
    O   O1   0.537714  0.120907  0.736707  -0.601239
    C   C15  0.469773  0.127864  0.674428  0.637242
    O   O2   0.439166  0.075654  0.924890  -0.482751
    O   O3   0.399241  0.064054  0.667454  -0.565108
    O   O4   0.396176  0.951091  0.837366  -0.545361
    C   C16  0.380961  0.003024  0.901413  0.642977
    Fe  Fe1  0.510529  0.003563  0.791756  1.444264
    O   O5   0.592460  0.005765  0.916281  -0.493705
    O   O6   0.678970  0.971005  0.813462  -0.496662
    C   C17  0.665695  0.986474  0.902654  0.517966
    O   O7   0.519630  0.933903  0.676291  -0.549564
    O   O8   0.491896  0.811942  0.768595  -0.484748
    C   C18  0.508130  0.850211  0.685171  0.610308
    O   O9   0.499502  0.054495  0.340012  -0.538540
    O   O10  0.525322  0.176454  0.247640  -0.492768
    C   C19  0.510934  0.138209  0.331518  0.599962
    O   O11  0.427382  0.987557  0.098132  -0.490047
    O   O12  0.337541  0.013697  0.202199  -0.502004
    C   C20  0.352433  0.002640  0.112417  0.530394
    O   O13  0.613410  0.924040  0.350755  -0.557178
    O   O14  0.623344  0.036894  0.179462  -0.544602
    C   C21  0.637509  0.986097  0.113469  0.643059
    O   O15  0.477136  0.867728  0.275372  -0.592144
    C   C22  0.542758  0.860329  0.340769  0.614396
    O   O16  0.578024  0.914855  0.087502  -0.482247
    Fe  Fe2  0.507841  0.985997  0.223136  1.434184
    H   H7   0.534328  0.915849  0.510059  0.165504
    C   C23  0.524698  0.805929  0.425761  0.113108
    C   C24  0.511748  0.717913  0.423369  -0.230639
    H   H8   0.513935  0.686388  0.355568  0.140026
    C   C25  0.502333  0.671431  0.509395  0.089779
    C   C26  0.501942  0.713365  0.596597  -0.158537
    H   H9   0.492913  0.676979  0.663307  0.132633
    C   C27  0.511576  0.801549  0.597342  0.034527
    C   C28  0.524841  0.846873  0.511914  -0.169775
    C   C29  0.437891  0.526364  0.437828  -0.324232
    H   H10  0.395886  0.555268  0.387884  0.202066
    C   C30  0.430915  0.438469  0.434123  0.173573
    C   C31  0.489082  0.404131  0.499194  -0.077302
    C   C32  0.546453  0.457259  0.569390  -0.105626
    H   H11  0.591267  0.431542  0.620268  0.124945
    C   C33  0.549036  0.543333  0.574888  -0.182348
    H   H12  0.595612  0.583468  0.629454  0.127814
    C   C34  0.495813  0.578585  0.507963  0.153777
    C   C35  0.505260  0.272945  0.416467  -0.194690
    H   H13  0.514336  0.309043  0.349657  0.132529
    C   C36  0.504237  0.186347  0.418462  0.053828
    C   C37  0.493710  0.141722  0.504800  -0.187380
    H   H14  0.492565  0.074190  0.509194  0.159570
    C   C38  0.484691  0.181584  0.588302  0.126469
    C   C39  0.483309  0.267028  0.586361  -0.276738
    H   H15  0.472811  0.297033  0.651684  0.149459
    C   C40  0.491640  0.312846  0.499781  0.190284
    C   C41  0.358194  0.382352  0.364622  0.099774
    C   C42  0.266763  0.386888  0.384331  -0.165658
    C   C43  0.225081  0.447408  0.318933  0.181067
    C   C44  0.234517  0.435105  0.212943  -0.038862
    C   C45  0.330479  0.457591  0.201194  0.052988
    C   C46  0.374875  0.394454  0.257518  -0.062774
    H   H16  0.356960  0.314417  0.379955  0.013984
    H   H17  0.269305  0.404752  0.462216  0.012164
    H   H18  0.223172  0.321295  0.372977  0.045206
    H   H19  0.253694  0.515268  0.341290  -0.058804
    H   H20  0.154352  0.432364  0.326791  -0.034724
    H   H21  0.201659  0.478295  0.166602  -0.004887
    H   H22  0.203969  0.367388  0.190191  0.003623
    H   H23  0.361846  0.524390  0.226103  -0.020723
    H   H24  0.337159  0.453088  0.122364  -0.001243
    H   H25  0.446388  0.415945  0.254607  -0.001219
    H   H26  0.350456  0.331032  0.220098  0.037462
