# generated using pymatgen
data_ZnH6C17(NO)4
_symmetry_space_group_name_H-M   'P 1'
_cell_length_a   6.59476200
_cell_length_b   13.33061000
_cell_length_c   15.90599400
_cell_angle_alpha   96.21415000
_cell_angle_beta   81.45320600
_cell_angle_gamma   89.92845400
_symmetry_Int_Tables_number   1
_chemical_formula_structural   ZnH6C17(NO)4
_chemical_formula_sum   'Zn2 H12 C34 N8 O8'
_cell_volume   1374.46347296
_cell_formula_units_Z   2
loop_
 _symmetry_equiv_pos_site_id
 _symmetry_equiv_pos_as_xyz
  1  'x, y, z'
loop_
 _atom_site_type_symbol
 _atom_site_label
 _atom_site_symmetry_multiplicity
 _atom_site_fract_x
 _atom_site_fract_y
 _atom_site_fract_z
 _atom_site_occupancy
  Zn  Zn1  1  0.00869500  0.11204900  0.50162800  1
  Zn  Zn2  1  0.99130500  0.88795100  0.49837200  1
  H  H1  1  0.03600200  0.99157100  0.77045900  1
  H  H2  1  0.96399800  0.00842900  0.22954100  1
  H  H3  1  0.52958100  0.04866100  0.91217600  1
  H  H4  1  0.47041900  0.95133900  0.08782400  1
  H  H5  1  0.76475200  0.05670000  0.77819100  1
  H  H6  1  0.23524800  0.94330000  0.22180900  1
  H  H7  1  0.90805700  0.76614700  0.63151700  1
  H  H8  1  0.09194200  0.23385300  0.36848300  1
  H  H9  1  0.87323900  0.62171100  0.71054600  1
  H  H10  1  0.12676000  0.37828900  0.28945400  1
  H  H11  1  0.88904400  0.43736700  0.71257100  1
  H  H12  1  0.11095600  0.56263300  0.28742900  1
  C  C1  1  0.32674400  0.01303900  0.69676800  1
  C  C2  1  0.67325600  0.98696100  0.30323200  1
  C  C3  1  0.19633700  0.00627500  0.77211500  1
  C  C4  1  0.80366300  0.99372500  0.22788500  1
  C  C5  1  0.26833800  0.01839600  0.84937600  1
  C  C6  1  0.73166200  0.98160400  0.15062400  1
  C  C7  1  0.47208500  0.03883400  0.85166700  1
  C  C8  1  0.52791500  0.96116600  0.14833300  1
  C  C9  1  0.60381500  0.04391400  0.77637900  1
  C  C10  1  0.39618500  0.95608600  0.22362100  1
  C  C11  1  0.53284600  0.02977800  0.69858700  1
  C  C12  1  0.46715400  0.97022300  0.30141300  1
  C  C13  1  0.87176200  0.99075400  0.07183600  1
  C  C14  1  0.12823800  0.00924600  0.92816400  1
  C  C15  1  0.68318200  0.01971800  0.62073200  1
  C  C16  1  0.31681800  0.98028200  0.37926800  1
  C  C17  1  0.23695000  0.00759300  0.61808700  1
  C  C18  1  0.76305000  0.99240700  0.38191300  1
  C  C19  1  0.02559100  0.69604500  0.42310100  1
  C  C20  1  0.97440800  0.30395500  0.57689900  1
  C  C21  1  0.94141600  0.71672800  0.57248200  1
  C  C22  1  0.05858400  0.28327200  0.42751800  1
  C  C23  1  0.94790300  0.61367300  0.57454800  1
  C  C24  1  0.05209600  0.38632700  0.42545200  1
  C  C25  1  0.99505400  0.55144100  0.49941100  1
  C  C26  1  0.00494600  0.44855900  0.50058900  1
  C  C27  1  0.03305100  0.59262100  0.42313500  1
  C  C28  1  0.96694900  0.40737900  0.57686500  1
  C  C29  1  0.91001100  0.57285300  0.65135100  1
  C  C30  1  0.08998900  0.42714700  0.34864900  1
  C  C31  1  0.91928000  0.46952900  0.65250800  1
  C  C32  1  0.08072000  0.53047100  0.34749200  1
  C  C33  1  0.06971300  0.73973200  0.34394700  1
  C  C34  1  0.93028700  0.26026800  0.65605300  1
  N  N1  1  0.19750200  0.02035400  0.00394000  1
  N  N2  1  0.80249800  0.97964600  0.99606000  1
  N  N3  1  0.07031500  0.01126200  0.07513300  1
  N  N4  1  0.92968400  0.98873800  0.92486700  1
  N  N5  1  0.98185900  0.75620100  0.49739900  1
  N  N6  1  0.01814100  0.24379900  0.50260100  1
  N  N7  1  0.10525000  0.77495800  0.28012800  1
  N  N8  1  0.89475000  0.22504200  0.71987200  1
  O  O1  1  0.75532900  0.92873000  0.59175800  1
  O  O2  1  0.24467100  0.07127000  0.40824200  1
  O  O3  1  0.76254800  0.10183900  0.59184800  1
  O  O4  1  0.23745200  0.89816100  0.40815200  1
  O  O5  1  0.18329300  0.09290100  0.59262400  1
  O  O6  1  0.81670700  0.90709900  0.40737600  1
  O  O7  1  0.17717200  0.91922300  0.58716300  1
  O  O8  1  0.82282800  0.08077700  0.41283700  1
