# generated using pymatgen
data_ZnH19C17(N5O2)2
_symmetry_space_group_name_H-M   'P 1'
_cell_length_a   11.35696800
_cell_length_b   17.79075400
_cell_length_c   16.73070800
_cell_angle_alpha   90.00048400
_cell_angle_beta   102.22886300
_cell_angle_gamma   90.00091700
_symmetry_Int_Tables_number   1
_chemical_formula_structural   ZnH19C17(N5O2)2
_chemical_formula_sum   'Zn2 H38 C34 N20 O8'
_cell_volume   3303.71909924
_cell_formula_units_Z   2
loop_
 _symmetry_equiv_pos_site_id
 _symmetry_equiv_pos_as_xyz
  1  'x, y, z'
loop_
 _atom_site_type_symbol
 _atom_site_label
 _atom_site_symmetry_multiplicity
 _atom_site_fract_x
 _atom_site_fract_y
 _atom_site_fract_z
 _atom_site_occupancy
  Zn  Zn1  1  0.50861200  0.49826300  0.59228300  1
  Zn  Zn2  1  0.49388900  0.49963100  0.40801600  1
  H  H1  1  0.59500500  0.73690700  0.62092900  1
  H  H2  1  0.45387900  0.26025200  0.37008700  1
  H  H3  1  0.93247200  0.55835600  0.36963700  1
  H  H4  1  0.84698900  0.48046000  0.37173400  1
  H  H5  1  0.14764700  0.55222400  0.61841800  1
  H  H6  1  0.06300000  0.61981800  0.56255300  1
  H  H7  1  0.73775700  0.54475900  0.94741900  1
  H  H8  1  0.64120300  0.61906100  0.93349400  1
  H  H9  1  0.29896400  0.42540500  0.05330500  1
  H  H10  1  0.41107900  0.36041300  0.07645800  1
  H  H11  1  0.91727200  0.53940500  0.65994000  1
  H  H12  1  0.90688100  0.44500600  0.64472500  1
  H  H13  1  0.09005800  0.45272300  0.34043600  1
  H  H14  1  0.11623700  0.38076900  0.40816200  1
  H  H15  1  0.55381700  0.91518000  0.66283400  1
  H  H16  1  0.65912700  0.84708400  0.67993900  1
  H  H17  1  0.51006500  0.08231100  0.33901400  1
  H  H18  1  0.41012500  0.15093700  0.30431000  1
  H  H19  1  0.37548400  0.74398500  0.31425100  1
  H  H20  1  0.25789900  0.74609300  0.36205400  1
  H  H21  1  0.54640100  0.25170000  0.68816300  1
  H  H22  1  0.68829500  0.24753700  0.67058300  1
  H  H23  1  0.29567600  0.92094700  0.38372500  1
  H  H24  1  0.41815700  0.91741200  0.34015000  1
  H  H25  1  0.65810200  0.07455700  0.64063600  1
  H  H26  1  0.51454200  0.07893000  0.65582000  1
  H  H27  1  0.29675900  0.44066200  0.88320300  1
  H  H28  1  0.39546200  0.36726900  0.89756000  1
  H  H29  1  0.70387900  0.57632800  0.12219300  1
  H  H30  1  0.58247400  0.63453000  0.09759800  1
  H  H31  1  0.27295800  0.44307500  0.66612500  1
  H  H32  1  0.37869500  0.37646600  0.65250200  1
  H  H33  1  0.66145600  0.60144100  0.35562600  1
  H  H34  1  0.53979600  0.65393100  0.30847900  1
  H  H35  1  0.75559600  0.54092900  0.73019700  1
  H  H36  1  0.65458600  0.61144900  0.69286500  1
  H  H37  1  0.26173300  0.44337900  0.27169600  1
  H  H38  1  0.36454900  0.37360100  0.30610100  1
  C  C1  1  0.51512100  0.35176600  0.49857700  1
  C  C2  1  0.48734800  0.64585900  0.50197900  1
  C  C3  1  0.26560100  0.49158000  0.47327800  1
  C  C4  1  0.73754700  0.50649900  0.52676500  1
  C  C5  1  0.13346100  0.48358600  0.45881300  1
  C  C6  1  0.87144500  0.50744300  0.54207000  1
  C  C7  1  0.06768100  0.52156400  0.50339700  1
  C  C8  1  0.93396500  0.51742100  0.48265200  1
  C  C9  1  0.54854700  0.84511000  0.56802100  1
  C  C10  1  0.47786500  0.15218400  0.42626200  1
  C  C11  1  0.54554600  0.76746700  0.56869800  1
  C  C12  1  0.48210600  0.22986600  0.42672700  1
  C  C13  1  0.48315900  0.72839200  0.50157900  1
  C  C14  1  0.51903800  0.26881900  0.49935900  1
  C  C15  1  0.41947400  0.76769100  0.43457100  1
  C  C16  1  0.55579700  0.22863900  0.57179600  1
  C  C17  1  0.42235300  0.84538300  0.43393200  1
  C  C18  1  0.55130700  0.15099800  0.57111400  1
  C  C19  1  0.48832400  0.88399400  0.50023400  1
  C  C20  1  0.51123900  0.11284700  0.49854500  1
  C  C21  1  0.49584700  0.96462100  0.49894800  1
  C  C22  1  0.50271600  0.03221800  0.49821700  1
  C  C23  1  0.43644500  0.45103500  0.82683300  1
  C  C24  1  0.56479200  0.54992600  0.17455500  1
  C  C25  1  0.43546300  0.45249600  0.74431600  1
  C  C26  1  0.55412200  0.55368300  0.25507000  1
  C  C27  1  0.59862100  0.53559800  0.76769400  1
  C  C28  1  0.41843400  0.45329900  0.23413000  1
  C  C29  1  0.59884000  0.53598900  0.85037700  1
  C  C30  1  0.42760000  0.44899100  0.15318300  1
  C  C31  1  0.51730200  0.49352500  0.88070000  1
  C  C32  1  0.50329800  0.49641300  0.12308100  1
  C  C33  1  0.51475300  0.49402800  0.96653300  1
  C  C34  1  0.51026000  0.49462100  0.03800400  1
  N  N1  1  0.51599600  0.49493200  0.71342900  1
  N  N2  1  0.48637200  0.50285400  0.28689700  1
  N  N3  1  0.87280600  0.53188600  0.40022800  1
  N  N4  1  0.12502300  0.57688300  0.56062700  1
  N  N5  1  0.68627800  0.58027300  0.90391300  1
  N  N6  1  0.35463500  0.39609100  0.10081800  1
  N  N7  1  0.93685600  0.49530300  0.62375700  1
  N  N8  1  0.07525500  0.43329900  0.39633000  1
  N  N9  1  0.61528400  0.88546700  0.63652800  1
  N  N10  1  0.43700500  0.11228700  0.35154900  1
  N  N11  1  0.34701100  0.72865300  0.36735400  1
  N  N12  1  0.60060100  0.26629000  0.64735600  1
  N  N13  1  0.35727900  0.88528700  0.36452500  1
  N  N14  1  0.58758100  0.11058800  0.64595000  1
  N  N15  1  0.34979400  0.40582500  0.85496400  1
  N  N16  1  0.63712800  0.60440700  0.14489800  1
  N  N17  1  0.34406500  0.40865500  0.69382400  1
  N  N18  1  0.60775900  0.61732300  0.30019800  1
  N  N19  1  0.69089400  0.57794100  0.74283900  1
  N  N20  1  0.32768800  0.40825500  0.25744300  1
  O  O1  1  0.51697800  0.38718200  0.56757100  1
  O  O2  1  0.48456500  0.61072200  0.43259800  1
  O  O3  1  0.50572900  0.38727200  0.42852000  1
  O  O4  1  0.49839800  0.61065900  0.57221700  1
  O  O5  1  0.32806700  0.49353600  0.54887400  1
  O  O6  1  0.67443500  0.50478100  0.45133000  1
  O  O7  1  0.31630900  0.49210000  0.40959100  1
  O  O8  1  0.68633700  0.50451400  0.59042500  1
