# generated using pymatgen
data_CuH16C36N2O7
_symmetry_space_group_name_H-M   'P 1'
_cell_length_a   15.00925700
_cell_length_b   13.52560500
_cell_length_c   27.53123400
_cell_angle_alpha   90.00000000
_cell_angle_beta   89.98418200
_cell_angle_gamma   90.00000000
_symmetry_Int_Tables_number   1
_chemical_formula_structural   CuH16C36N2O7
_chemical_formula_sum   'Cu2 H32 C72 N4 O14'
_cell_volume   5589.09582085
_cell_formula_units_Z   2
loop_
 _symmetry_equiv_pos_site_id
 _symmetry_equiv_pos_as_xyz
  1  'x, y, z'
loop_
 _atom_site_type_symbol
 _atom_site_label
 _atom_site_symmetry_multiplicity
 _atom_site_fract_x
 _atom_site_fract_y
 _atom_site_fract_z
 _atom_site_occupancy
  Cu  Cu1  1  0.49861500  0.59889400  0.49984300  1
  Cu  Cu2  1  0.50140200  0.40128700  0.50006000  1
  H  H1  1  0.51435300  0.65638500  0.34709100  1
  H  H2  1  0.47623200  0.34451600  0.65284400  1
  H  H3  1  0.51401400  0.65578900  0.25850600  1
  H  H4  1  0.47571100  0.34524600  0.74147200  1
  H  H5  1  0.29688600  0.41092500  0.12243500  1
  H  H6  1  0.71352200  0.54862500  0.87742800  1
  H  H7  1  0.51113400  0.65880500  0.65312400  1
  H  H8  1  0.49973900  0.34007000  0.34672100  1
  H  H9  1  0.51135100  0.65770400  0.74161600  1
  H  H10  1  0.49947200  0.34107200  0.25843200  1
  H  H11  1  0.27987300  0.45204300  0.88068900  1
  H  H12  1  0.70927300  0.58820000  0.11924800  1
  H  H13  1  0.27897400  0.45128100  0.96576400  1
  H  H14  1  0.70971800  0.58993600  0.03415400  1
  H  H15  1  0.29148400  0.41073400  0.03740800  1
  H  H16  1  0.71890000  0.54751600  0.96252600  1
  H  H17  1  0.77594500  0.38435700  0.45388100  1
  H  H18  1  0.22398000  0.61605600  0.54589400  1
  H  H19  1  0.93097900  0.69415500  0.57826800  1
  H  H20  1  0.06892200  0.30585300  0.42168900  1
  H  H21  1  0.09040800  0.68752700  0.57488300  1
  H  H22  1  0.90936500  0.31215700  0.42533100  1
  H  H23  1  0.39416300  0.75584000  0.55134600  1
  H  H24  1  0.60674700  0.24218400  0.44866700  1
  H  H25  1  0.60085300  0.75533900  0.44817500  1
  H  H26  1  0.39988800  0.24721500  0.55168100  1
  H  H27  1  0.66271200  0.90823400  0.41901900  1
  H  H28  1  0.33767800  0.09221300  0.58230600  1
  H  H29  1  0.33579300  0.91075500  0.58186200  1
  H  H30  1  0.66445700  0.08921500  0.41937300  1
  H  H31  1  0.72229700  0.68880600  0.55441000  1
  H  H32  1  0.27531400  0.30898700  0.44621600  1
  C  C1  1  0.32869100  0.49692500  0.49648100  1
  C  C2  1  0.67124300  0.50323200  0.50339700  1
  C  C3  1  0.50518100  0.49883800  0.40655600  1
  C  C4  1  0.49539600  0.50126100  0.59328100  1
  C  C5  1  0.43212700  0.46786800  0.17733800  1
  C  C6  1  0.57123400  0.51950800  0.82256900  1
  C  C7  1  0.57762600  0.52939400  0.17622800  1
  C  C8  1  0.41906900  0.48288900  0.82369000  1
  C  C9  1  0.50262300  0.41037600  0.27795200  1
  C  C10  1  0.50332900  0.58899800  0.72204700  1
  C  C11  1  0.50314900  0.41013900  0.32798500  1
  C  C12  1  0.50289800  0.58930300  0.67195500  1
  C  C13  1  0.51106800  0.58658600  0.32808200  1
  C  C14  1  0.48385600  0.41394100  0.67184200  1
  C  C15  1  0.51132700  0.58650200  0.27801100  1
  C  C16  1  0.48302600  0.41410500  0.72195300  1
  C  C17  1  0.50670000  0.49847700  0.25281300  1
  C  C18  1  0.49332200  0.50149300  0.74715300  1
  C  C19  1  0.50277900  0.49899100  0.10095600  1
  C  C20  1  0.49710400  0.50080900  0.89895700  1
  C  C21  1  0.42974800  0.46812400  0.12710000  1
  C  C22  1  0.57345600  0.51945300  0.87281000  1
  C  C23  1  0.35472600  0.43713400  0.10295200  1
  C  C24  1  0.65204400  0.53633500  0.89693900  1
  C  C25  1  0.57720700  0.52965300  0.12597200  1
  C  C26  1  0.41945100  0.48240900  0.87394900  1
  C  C27  1  0.50683100  0.49837200  0.35333000  1
  C  C28  1  0.49371800  0.50163700  0.64654200  1
  C  C29  1  0.42131500  0.47797600  0.97515200  1
  C  C30  1  0.57696100  0.52721500  0.02478800  1
  C  C31  1  0.57696700  0.52211100  0.97397700  1
  C  C32  1  0.42414800  0.47224600  0.02595100  1
  C  C33  1  0.49845200  0.50031000  0.94951700  1
  C  C34  1  0.50129500  0.49946200  0.05041200  1
  C  C35  1  0.34286500  0.46267400  0.94908300  1
  C  C36  1  0.65070500  0.56053900  0.05085100  1
  C  C37  1  0.34224600  0.46471900  0.89925300  1
  C  C38  1  0.65064700  0.56149200  0.10067700  1
  C  C39  1  0.35175800  0.43901600  0.05315300  1
  C  C40  1  0.65407700  0.53734200  0.94676200  1
  C  C41  1  0.81343500  0.43606200  0.47572200  1
  C  C42  1  0.18656500  0.56406400  0.52418900  1
  C  C43  1  0.76909700  0.50471300  0.50366200  1
  C  C44  1  0.23086500  0.49546700  0.49622000  1
  C  C45  1  0.81743900  0.57060600  0.53214400  1
  C  C46  1  0.18233600  0.42949800  0.46786100  1
  C  C47  1  0.91035300  0.56918500  0.53038500  1
  C  C48  1  0.08946600  0.43073700  0.46968700  1
  C  C49  1  0.95379400  0.50089700  0.50124400  1
  C  C50  1  0.04607500  0.49902200  0.49882500  1
  C  C51  1  0.90502200  0.43419800  0.47444000  1
  C  C52  1  0.09495100  0.56567100  0.52561100  1
  C  C53  1  0.96076600  0.63689500  0.55640400  1
  C  C54  1  0.03909200  0.36297200  0.44362800  1
  C  C55  1  0.05226700  0.63448200  0.55412000  1
  C  C56  1  0.94760600  0.36529200  0.44595200  1
  C  C57  1  0.44002000  0.79633300  0.52854600  1
  C  C58  1  0.56019000  0.20309700  0.47156700  1
  C  C59  1  0.55527400  0.79587100  0.47112000  1
  C  C60  1  0.44494200  0.20519600  0.52898100  1
  C  C61  1  0.55704900  0.89769300  0.47114300  1
  C  C62  1  0.44267100  0.10298900  0.52966800  1
  C  C63  1  0.44016500  0.89854000  0.52935500  1
  C  C64  1  0.55948600  0.10127200  0.47144000  1
  C  C65  1  0.49911100  0.94922800  0.50037800  1
  C  C66  1  0.50037700  0.05097000  0.50051200  1
  C  C67  1  0.61669000  0.94797700  0.44205700  1
  C  C68  1  0.38335500  0.05245800  0.55905100  1
  C  C69  1  0.38217600  0.95021100  0.55890300  1
  C  C70  1  0.61780000  0.04981300  0.44218000  1
  C  C71  1  0.77079500  0.63521400  0.56682400  1
  C  C72  1  0.22879900  0.36439100  0.43341200  1
  N  N1  1  0.50555600  0.49845500  0.20104300  1
  N  N2  1  0.49451600  0.50137200  0.79889900  1
  N  N3  1  0.49628900  0.74678500  0.49911200  1
  N  N4  1  0.50357100  0.25342800  0.50047000  1
  O  O1  1  0.36918800  0.58268600  0.49943700  1
  O  O2  1  0.63078400  0.41747000  0.50051400  1
  O  O3  1  0.62798000  0.58718700  0.50337100  1
  O  O4  1  0.37200000  0.41297600  0.49621200  1
  O  O5  1  0.49932600  0.58378500  0.42908400  1
  O  O6  1  0.50043800  0.41615400  0.57069800  1
  O  O7  1  0.49214600  0.58591900  0.57019500  1
  O  O8  1  0.50831400  0.41433700  0.42959300  1
  O  O9  1  0.36036300  0.43885700  0.20281400  1
  O  O10  1  0.64602000  0.53641200  0.79703300  1
  O  O11  1  0.34298500  0.46647300  0.79926500  1
  O  O12  1  0.65080500  0.55799800  0.20057600  1
  O  O13  1  0.78471700  0.62710000  0.61028500  1
  O  O14  1  0.21597600  0.37309300  0.38987000  1
