# generated using pymatgen
data_CuH11C24NO4F3
_symmetry_space_group_name_H-M   'P 1'
_cell_length_a   12.12517500
_cell_length_b   13.45235400
_cell_length_c   14.99982700
_cell_angle_alpha   78.74266200
_cell_angle_beta   102.24006300
_cell_angle_gamma   116.13993000
_symmetry_Int_Tables_number   1
_chemical_formula_structural   CuH11C24NO4F3
_chemical_formula_sum   'Cu2 H22 C48 N2 O8 F6'
_cell_volume   2131.97991276
_cell_formula_units_Z   2
loop_
 _symmetry_equiv_pos_site_id
 _symmetry_equiv_pos_as_xyz
  1  'x, y, z'
loop_
 _atom_site_type_symbol
 _atom_site_label
 _atom_site_symmetry_multiplicity
 _atom_site_fract_x
 _atom_site_fract_y
 _atom_site_fract_z
 _atom_site_occupancy
  Cu  Cu1  1  0.09915900  0.47687400  0.52902100  1
  Cu  Cu2  1  0.90254600  0.52753700  0.48889000  1
  H  H1  1  0.92048900  0.61981500  0.19087500  1
  H  H2  1  0.09367600  0.39423000  0.26401100  1
  H  H3  1  0.15074600  0.33634500  0.14606400  1
  H  H4  1  0.15406800  0.33771900  0.98331800  1
  H  H5  1  0.10307000  0.39828300  0.82497300  1
  H  H6  1  0.90885300  0.60792000  0.75429800  1
  H  H7  1  0.86025000  0.67162400  0.87186400  1
  H  H8  1  0.86313200  0.67501100  0.03461200  1
  H  H9  1  0.08381800  0.88106400  0.42096300  1
  H  H10  1  0.21779800  0.06753300  0.37738700  1
  H  H11  1  0.38865800  0.80336300  0.53979300  1
  H  H12  1  0.91820800  0.13314600  0.61074900  1
  H  H13  1  0.56872200  0.86655800  0.60326100  1
  H  H14  1  0.78529700  0.93959700  0.65080600  1
  H  H15  1  0.65589400  0.26899500  0.39372800  1
  H  H16  1  0.16917100  0.31264900  0.66414900  1
  H  H17  1  0.55341400  0.30492900  0.68435700  1
  H  H18  1  0.35104600  0.27013500  0.70697100  1
  H  H19  1  0.33981200  0.56502000  0.46234400  1
  H  H20  1  0.51829600  0.68903800  0.44546800  1
  H  H21  1  0.67599300  0.77459800  0.35430900  1
  H  H22  1  0.72373700  0.39751900  0.60650800  1
  C  C1  1  0.85553200  0.29245000  0.51748500  1
  C  C2  1  0.00380100  0.50199100  0.68084400  1
  C  C3  1  0.14626900  0.71135900  0.49651600  1
  C  C4  1  0.99980000  0.50276100  0.33700300  1
  C  C5  1  0.95443400  0.56654700  0.17227200  1
  C  C6  1  0.00167200  0.50346600  0.23905100  1
  C  C7  1  0.05478900  0.44320900  0.21287100  1
  C  C8  1  0.05698000  0.44389700  0.12091300  1
  C  C9  1  0.00557200  0.50421800  0.05477700  1
  C  C10  1  0.95438200  0.56556500  0.08061900  1
  C  C11  1  0.11009500  0.38392700  0.09483000  1
  C  C12  1  0.11198200  0.38471300  0.00302400  1
  C  C13  1  0.05974800  0.44462700  0.93685600  1
  C  C14  1  0.00609600  0.50398500  0.96289700  1
  C  C15  1  0.95290300  0.56319200  0.89705100  1
  C  C16  1  0.90157800  0.62454500  0.92306300  1
  C  C17  1  0.90328900  0.62650400  0.01477700  1
  C  C18  1  0.06094800  0.44512000  0.84483600  1
  C  C19  1  0.00549900  0.50271900  0.77866600  1
  C  C20  1  0.95108700  0.56134300  0.80518200  1
  C  C21  1  0.26117900  0.01404200  0.41463600  1
  C  C22  1  0.22986500  0.83031800  0.48243100  1
  C  C23  1  0.82113400  0.10210400  0.58208500  1
  C  C24  1  0.74608800  0.99273300  0.60574000  1
  C  C25  1  0.62055400  0.95136100  0.57666600  1
  C  C26  1  0.56724400  0.01778900  0.51827600  1
  C  C27  1  0.64481700  0.12804500  0.49154900  1
  C  C28  1  0.43846000  0.97771400  0.48762500  1
  C  C29  1  0.38935100  0.05041000  0.43539800  1
  C  C30  1  0.46868400  0.15695900  0.40194400  1
  C  C31  1  0.59517700  0.19167200  0.42690200  1
  C  C32  1  0.35678200  0.86615000  0.50710300  1
  C  C33  1  0.18256100  0.90608900  0.43983300  1
  C  C34  1  0.77187300  0.17209100  0.52747100  1
  C  C35  1  0.35149700  0.33674400  0.65321600  1
  C  C36  1  0.74983100  0.64994200  0.39484700  1
  C  C37  1  0.67236000  0.69939300  0.39771400  1
  C  C38  1  0.57798700  0.64795600  0.44856700  1
  C  C39  1  0.56265600  0.54764900  0.50001100  1
  C  C40  1  0.65931700  0.51354100  0.51380200  1
  C  C41  1  0.45568100  0.48466600  0.54232900  1
  C  C42  1  0.45353900  0.39769500  0.60856900  1
  C  C43  1  0.55376200  0.37191400  0.63102500  1
  C  C44  1  0.65328800  0.42668500  0.58362900  1
  C  C45  1  0.34818700  0.50348000  0.51782500  1
  C  C46  1  0.24905700  0.36015400  0.62880900  1
  C  C47  1  0.42068200  0.23462300  0.33700300  1
  C  C48  1  0.80353700  0.67926500  0.30705100  1
  N  N1  1  0.24709600  0.43981700  0.55955100  1
  N  N2  1  0.75378200  0.56357800  0.45983800  1
  O  O1  1  0.97581600  0.32224900  0.53064700  1
  O  O2  1  0.80853200  0.36586900  0.50384100  1
  O  O3  1  0.08329900  0.47484700  0.65632900  1
  O  O4  1  0.92271700  0.52899100  0.62138900  1
  O  O5  1  0.19467300  0.63838300  0.51500700  1
  O  O6  1  0.02604200  0.68215300  0.48473000  1
  O  O7  1  0.08218400  0.47793800  0.39653900  1
  O  O8  1  0.91698700  0.52640400  0.36174000  1
  F  F1  1  0.51679700  0.33249400  0.30883000  1
  F  F2  1  0.34963200  0.26208200  0.38038100  1
  F  F3  1  0.35013700  0.18410200  0.25967000  1
  F  F4  1  0.77098600  0.75820800  0.24874600  1
  F  F5  1  0.75207400  0.58426900  0.26320000  1
  F  F6  1  0.93118100  0.72243200  0.32170400  1
