# generated using pymatgen
data_Zn3H28C48O13
_symmetry_space_group_name_H-M   'P 1'
_cell_length_a   19.42021600
_cell_length_b   19.21223800
_cell_length_c   19.73361500
_cell_angle_alpha   111.66206400
_cell_angle_beta   112.05649000
_cell_angle_gamma   103.83467300
_symmetry_Int_Tables_number   1
_chemical_formula_structural   Zn3H28C48O13
_chemical_formula_sum   'Zn6 H56 C96 O26'
_cell_volume   5699.60210389
_cell_formula_units_Z   2
loop_
 _symmetry_equiv_pos_site_id
 _symmetry_equiv_pos_as_xyz
  1  'x, y, z'
loop_
 _atom_site_type_symbol
 _atom_site_label
 _atom_site_symmetry_multiplicity
 _atom_site_fract_x
 _atom_site_fract_y
 _atom_site_fract_z
 _atom_site_occupancy
  Zn  Zn1  1  0.00039000  0.58952000  0.07958700  1
  Zn  Zn2  1  0.00243500  0.44789800  0.94604300  1
  Zn  Zn3  1  0.56713500  0.58398300  0.51140700  1
  Zn  Zn4  1  0.44115500  0.45298400  0.50835200  1
  Zn  Zn5  1  0.43032300  0.01630300  0.94302100  1
  Zn  Zn6  1  0.57160700  0.01428700  0.07664700  1
  H  H1  1  0.06576300  0.89866400  0.05808000  1
  H  H2  1  0.92548600  0.86833900  0.03396500  1
  H  H3  1  0.81242400  0.72811300  0.92760000  1
  H  H4  1  0.98010200  0.64774200  0.86951300  1
  H  H5  1  0.09256400  0.78864800  0.97525000  1
  H  H6  1  0.75736700  0.64783300  0.76053800  1
  H  H7  1  0.75348100  0.39141300  0.76004100  1
  H  H8  1  0.59893000  0.32778300  0.71187400  1
  H  H9  1  0.48995700  0.18745900  0.59891700  1
  H  H10  1  0.45069100  0.13969800  0.45004500  1
  H  H11  1  0.52163100  0.23254700  0.41448400  1
  H  H12  1  0.63088500  0.37285600  0.52727000  1
  H  H13  1  0.89213800  0.43084000  0.24932000  1
  H  H14  1  0.99311500  0.57703100  0.32465900  1
  H  H15  1  0.12598700  0.61098000  0.32995200  1
  H  H16  1  0.05743600  0.35221900  0.18496100  1
  H  H17  1  0.23523800  0.49095100  0.36693500  1
  H  H18  1  0.26330200  0.53486600  0.14724400  1
  H  H19  1  0.42243200  0.65236600  0.25822300  1
  H  H20  1  0.54081000  0.65930800  0.23825000  1
  H  H21  1  0.58098300  0.54434100  0.21708600  1
  H  H22  1  0.50165700  0.42159700  0.21446600  1
  H  H23  1  0.38331500  0.41422600  0.23427800  1
  H  H24  1  0.88616300  0.57470500  0.55813700  1
  H  H25  1  0.79009600  0.59776600  0.45464100  1
  H  H26  1  0.64936100  0.48749500  0.34652300  1
  H  H27  1  0.70076200  0.33006200  0.44407500  1
  H  H28  1  0.84163500  0.44036500  0.55205800  1
  H  H29  1  0.63230100  0.26766900  0.26208300  1
  H  H30  1  0.37973000  0.26964300  0.26063300  1
  H  H31  1  0.29934100  0.21285600  0.09312500  1
  H  H32  1  0.15926200  0.10014800  0.98799100  1
  H  H33  1  0.12718200  0.95911300  0.96630400  1
  H  H34  1  0.23527600  0.93120600  0.05035800  1
  H  H35  1  0.37596300  0.04328500  0.15492300  1
  H  H36  1  0.37347200  0.75037200  0.38674800  1
  H  H37  1  0.52199100  0.80194800  0.48350200  1
  H  H38  1  0.57084900  0.81007300  0.62172000  1
  H  H39  1  0.27416100  0.70939500  0.42934000  1
  H  H40  1  0.46246700  0.87163200  0.73862900  1
  H  H41  1  0.52706100  0.65096900  0.77394400  1
  H  H42  1  0.64702500  0.75406700  0.93476400  1
  H  H43  1  0.66937400  0.73762100  0.05774900  1
  H  H44  1  0.56485700  0.72840600  0.09989200  1
  H  H45  1  0.43707300  0.73432200  0.01783500  1
  H  H46  1  0.41381900  0.74985400  0.89423600  1
  H  H47  1  0.87978200  0.29188300  0.25578500  1
  H  H48  1  0.98693000  0.31625300  0.28708700  1
  H  H49  1  0.94381300  0.17525100  0.17219300  1
  H  H50  1  0.90869300  0.17031300  0.24407500  1
  H  H51  1  0.83671900  0.15064700  0.14094200  1
  H  H52  1  0.31849300  0.60244200  0.51926500  1
  H  H53  1  0.21657000  0.59882500  0.47346900  1
  H  H54  1  0.21618800  0.62296800  0.60543000  1
  H  H55  1  0.23243700  0.53169600  0.56097300  1
  H  H56  1  0.31867800  0.62839000  0.65233300  1
  C  C1  1  0.88879900  0.40981700  0.01071300  1
  C  C2  1  0.88571200  0.52380100  0.89431900  1
  C  C3  1  0.11414100  0.62737900  0.01501100  1
  C  C4  1  0.11760900  0.51421900  0.13127400  1
  C  C5  1  0.93754300  0.81967500  0.99822200  1
  C  C6  1  0.87409800  0.74084600  0.93845700  1
  C  C7  1  0.88929100  0.67825400  0.89312000  1
  C  C8  1  0.96805800  0.69560400  0.90649200  1
  C  C9  1  0.03123900  0.77477700  0.96559600  1
  C  C10  1  0.01613600  0.83666600  0.01178800  1
  C  C11  1  0.75612000  0.59127100  0.76049100  1
  C  C12  1  0.68998700  0.51575200  0.69490800  1
  C  C13  1  0.68849200  0.44310600  0.69517000  1
  C  C14  1  0.75391700  0.44788400  0.76033800  1
  C  C15  1  0.81965000  0.52348500  0.82621000  1
  C  C16  1  0.82048400  0.59605900  0.82659500  1
  C  C17  1  0.58222200  0.30730500  0.64664200  1
  C  C18  1  0.52077600  0.22840600  0.58317900  1
  C  C19  1  0.49873800  0.20162300  0.49974600  1
  C  C20  1  0.53837700  0.25370900  0.47982200  1
  C  C21  1  0.59962800  0.33268600  0.54322400  1
  C  C22  1  0.62128500  0.36024300  0.62685600  1
  C  C23  1  0.82709900  0.35044400  0.01009500  1
  C  C24  1  0.77579600  0.29967700  0.00920600  1
  C  C25  1  0.71652800  0.23945300  0.00832600  1
  C  C26  1  0.66666667  0.18776200  0.00801500  1
  C  C27  1  0.00738300  0.52760800  0.29427300  1
  C  C28  1  0.08192900  0.54665800  0.29725200  1
  C  C29  1  0.09975000  0.48367600  0.25751600  1
  C  C30  1  0.04348600  0.40161000  0.21605600  1
  C  C31  1  0.96926200  0.38244900  0.21388700  1
  C  C32  1  0.95085900  0.44557600  0.25221600  1
  C  C33  1  0.24302000  0.50254600  0.32015500  1
  C  C34  1  0.31711200  0.51737300  0.32182500  1
  C  C35  1  0.32417500  0.52846600  0.25852900  1
  C  C36  1  0.25850300  0.52767500  0.19732900  1
  C  C37  1  0.18609100  0.51611600  0.19812600  1
  C  C38  1  0.17825700  0.50333300  0.25972900  1
  C  C39  1  0.43989600  0.60171100  0.24900300  1
  C  C40  1  0.50643100  0.60571100  0.23789200  1
  C  C41  1  0.52895000  0.54127400  0.22601000  1
  C  C42  1  0.48465500  0.47259500  0.22478600  1
  C  C43  1  0.41841200  0.46871300  0.23633300  1
  C  C44  1  0.39644500  0.53377000  0.24951500  1
  C  C45  1  0.17597400  0.68601200  0.01536000  1
  C  C46  1  0.22728100  0.73535500  0.01504300  1
  C  C47  1  0.28632300  0.79362500  0.01406300  1
  C  C48  1  0.33580700  0.84399000  0.01289800  1
  C  C49  1  0.51177100  0.40264200  0.39382800  1
  C  C50  1  0.62252600  0.51584800  0.62837100  1
  C  C51  1  0.49672900  0.63452300  0.62569100  1
  C  C52  1  0.38540900  0.51971500  0.39017200  1
  C  C53  1  0.50132100  0.89453400  0.89137100  1
  C  C54  1  0.60837300  0.12615900  0.00858600  1
  C  C55  1  0.49926100  0.13458500  0.12825100  1
  C  C56  1  0.39372900  0.90456400  0.01120500  1
  C  C57  1  0.77010100  0.53933900  0.45305600  1
  C  C58  1  0.69087700  0.47759600  0.39273200  1
  C  C59  1  0.66468500  0.40331800  0.39126900  1
  C  C60  1  0.71982900  0.38934100  0.44713800  1
  C  C61  1  0.79901200  0.45111200  0.50757000  1
  C  C62  1  0.82400300  0.52634900  0.51091500  1
  C  C63  1  0.57652900  0.26784500  0.26167100  1
  C  C64  1  0.50094600  0.20228800  0.19607600  1
  C  C65  1  0.42946700  0.20367500  0.19508300  1
  C  C66  1  0.43534900  0.26987900  0.26040300  1
  C  C67  1  0.51075800  0.33618600  0.32529100  1
  C  C68  1  0.58211400  0.33589800  0.32480000  1
  C  C69  1  0.28580700  0.15082400  0.08333500  1
  C  C70  1  0.20707000  0.08758500  0.02426800  1
  C  C71  1  0.18909300  0.00856300  0.01206500  1
  C  C72  1  0.24989400  0.99283200  0.05894900  1
  C  C73  1  0.32895100  0.05579000  0.11738100  1
  C  C74  1  0.34730000  0.13495800  0.12932900  1
  C  C75  1  0.47812700  0.78242300  0.50159400  1
  C  C76  1  0.50546500  0.78669500  0.57901900  1
  C  C77  1  0.44945200  0.76020300  0.60156500  1
  C  C78  1  0.36618500  0.73315000  0.54805200  1
  C  C79  1  0.33912900  0.73009100  0.47111700  1
  C  C80  1  0.39490500  0.75355100  0.44738100  1
  C  C81  1  0.47761900  0.82387100  0.74748000  1
  C  C82  1  0.49838800  0.82552800  0.82330600  1
  C  C83  1  0.51564900  0.76228600  0.83267500  1
  C  C84  1  0.51454700  0.70068100  0.76727500  1
  C  C85  1  0.49667400  0.70097800  0.69293800  1
  C  C86  1  0.47768600  0.76285100  0.68281600  1
  C  C87  1  0.60077500  0.74998500  0.95287500  1
  C  C88  1  0.61348500  0.74086600  0.02208200  1
  C  C89  1  0.55492600  0.73571700  0.04572400  1
  C  C90  1  0.48338400  0.73919300  0.99982600  1
  C  C91  1  0.47064300  0.74844700  0.93069100  1
  C  C92  1  0.52988300  0.75507800  0.90768300  1
  C  C93  1  0.92219400  0.27954500  0.23298100  1
  C  C94  1  0.90147200  0.18778300  0.19502100  1
  C  C95  1  0.27583600  0.62602100  0.53332100  1
  C  C96  1  0.25972900  0.60056900  0.59193800  1
  O  O1  1  0.91311900  0.48953100  0.05992200  1
  O  O2  1  0.91822300  0.38130300  0.96215000  1
  O  O3  1  0.91371700  0.57840300  0.97364800  1
  O  O4  1  0.91240200  0.46729900  0.87255300  1
  O  O5  1  0.08559500  0.65616100  0.06450600  1
  O  O6  1  0.08890200  0.54777400  0.96478200  1
  O  O7  1  0.08977700  0.56961000  0.15325100  1
  O  O8  1  0.09034300  0.46021500  0.05200300  1
  O  O9  1  0.55713100  0.48038900  0.42139800  1
  O  O10  1  0.46279600  0.38113600  0.42117300  1
  O  O11  1  0.64176200  0.56562100  0.60055700  1
  O  O12  1  0.54605500  0.46755100  0.60042300  1
  O  O13  1  0.54442200  0.65581200  0.59734600  1
  O  O14  1  0.45233900  0.55670800  0.59953200  1
  O  O15  1  0.46206900  0.56834600  0.41847700  1
  O  O16  1  0.36641300  0.47255400  0.42046200  1
  O  O17  1  0.44748000  0.92398400  0.86955300  1
  O  O18  1  0.55718900  0.92413200  0.97071300  1
  O  O19  1  0.52919600  0.10206200  0.96006100  1
  O  O20  1  0.63718500  0.09726000  0.05817600  1
  O  O21  1  0.44407300  0.10580700  0.04892300  1
  O  O22  1  0.55503200  0.10723800  0.15015000  1
  O  O23  1  0.36462900  0.93271900  0.96087600  1
  O  O24  1  0.47286100  0.92918400  0.06038400  1
  O  O25  1  0.91271100  0.30107200  0.17086800  1
  O  O26  1  0.31099900  0.71275000  0.57277900  1
