# generated using pymatgen
data_CuH2C18N(O2F3)2
_symmetry_space_group_name_H-M   'P 1'
_cell_length_a   16.03907800
_cell_length_b   14.61698400
_cell_length_c   17.68233700
_cell_angle_alpha   90.00000000
_cell_angle_beta   89.98910900
_cell_angle_gamma   90.00000000
_symmetry_Int_Tables_number   1
_chemical_formula_structural   CuH2C18N(O2F3)2
_chemical_formula_sum   'Cu2 H4 C36 N2 O8 F12'
_cell_volume   4145.49911241
_cell_formula_units_Z   2
loop_
 _symmetry_equiv_pos_site_id
 _symmetry_equiv_pos_as_xyz
  1  'x, y, z'
loop_
 _atom_site_type_symbol
 _atom_site_label
 _atom_site_symmetry_multiplicity
 _atom_site_fract_x
 _atom_site_fract_y
 _atom_site_fract_z
 _atom_site_occupancy
  Cu  Cu1  1  0.50004800  0.59152800  0.50059700  1
  Cu  Cu2  1  0.49994000  0.40847200  0.50059700  1
  H  H1  1  0.50553300  0.64645400  0.73908700  1
  H  H2  1  0.49456100  0.35353500  0.26211700  1
  H  H3  1  0.50542500  0.64646400  0.26211400  1
  H  H4  1  0.49445900  0.35354600  0.73908900  1
  C  C1  1  0.33998900  0.49977600  0.50028300  1
  C  C2  1  0.66000000  0.50022400  0.50026200  1
  C  C3  1  0.49999600  0.50000000  0.35519900  1
  C  C4  1  0.49999200  0.50000000  0.64601900  1
  C  C5  1  0.50307800  0.58150900  0.84641700  1
  C  C6  1  0.49697100  0.41848900  0.15479500  1
  C  C7  1  0.50301800  0.58151100  0.15479400  1
  C  C8  1  0.49691400  0.41849100  0.84641800  1
  C  C9  1  0.50308400  0.58168100  0.76844100  1
  C  C10  1  0.49696500  0.41831600  0.23277100  1
  C  C11  1  0.50302500  0.58168400  0.23277000  1
  C  C12  1  0.49690600  0.41831900  0.76844200  1
  C  C13  1  0.49999400  0.50000000  0.72897200  1
  C  C14  1  0.49999600  0.50000000  0.27224400  1
  C  C15  1  0.49999600  0.50000000  0.88539800  1
  C  C16  1  0.49999500  0.50000000  0.11581500  1
  C  C17  1  0.49999500  0.50000000  0.96653600  1
  C  C18  1  0.49999500  0.50000000  0.03467700  1
  C  C19  1  0.95704300  0.58171800  0.49830700  1
  C  C20  1  0.04294700  0.41828200  0.49831200  1
  C  C21  1  0.04301100  0.58167800  0.49831200  1
  C  C22  1  0.95697800  0.41832200  0.49830700  1
  C  C23  1  0.91402700  0.50004000  0.49835300  1
  C  C24  1  0.08596200  0.49996000  0.49836300  1
  C  C25  1  0.82457000  0.50008500  0.49880800  1
  C  C26  1  0.17541900  0.49991500  0.49882600  1
  C  C27  1  0.25054200  0.49986300  0.49939400  1
  C  C28  1  0.74944700  0.50013700  0.49937200  1
  C  C29  1  0.55228800  0.95282500  0.54863000  1
  C  C30  1  0.44770900  0.04717500  0.45250600  1
  C  C31  1  0.44769300  0.95284200  0.45250900  1
  C  C32  1  0.55230500  0.04715800  0.54862700  1
  C  C33  1  0.49998100  0.90566900  0.50057200  1
  C  C34  1  0.50001600  0.09433100  0.50056500  1
  C  C35  1  0.49997200  0.80750500  0.50057400  1
  C  C36  1  0.50002000  0.19249400  0.50057100  1
  N  N1  1  0.50001300  0.27164600  0.50057800  1
  N  N2  1  0.49997500  0.72835400  0.50057800  1
  O  O1  1  0.37890500  0.57840700  0.49821100  1
  O  O2  1  0.62108400  0.42159300  0.49819500  1
  O  O3  1  0.62122900  0.57892300  0.49814400  1
  O  O4  1  0.37876000  0.42107700  0.49815900  1
  O  O5  1  0.50293500  0.57870100  0.39068900  1
  O  O6  1  0.49699800  0.42146000  0.61048700  1
  O  O7  1  0.50298600  0.57854000  0.61048600  1
  O  O8  1  0.49705800  0.42129900  0.39069000  1
  F  F1  1  0.50611000  0.66168800  0.88477400  1
  F  F2  1  0.49399800  0.33830700  0.11643800  1
  F  F3  1  0.50599100  0.66169200  0.11643500  1
  F  F4  1  0.49388400  0.33831100  0.88477600  1
  F  F5  1  0.08527700  0.66193900  0.49843500  1
  F  F6  1  0.91471200  0.33806100  0.49842600  1
  F  F7  1  0.91483900  0.66201800  0.49842600  1
  F  F8  1  0.08515100  0.33798200  0.49843500  1
  F  F9  1  0.60369900  0.09349900  0.59585200  1
  F  F10  1  0.39629700  0.90650100  0.40528600  1
  F  F11  1  0.39632700  0.09353300  0.40528200  1
  F  F12  1  0.60366900  0.90646800  0.59585500  1
