# Generated by REPEAT Assigner based on pymatgen
data_DB0-m3_o22_o27_f0_pcu.sym.7_sqe
_audit_creation_date              2022-05-24
_audit_creation_method            REPEAT_Assigner
_cell_length_a                    10.822156
_cell_length_b                    9.693564
_cell_length_c                    19.434766
_cell_angle_alpha                 90.000000
_cell_angle_beta                  89.998279
_cell_angle_gamma                 90.000000
_cell_volume                      2038.809311
_symmetry_space_group_name_H-M    P1
_symmetry_Int_Tables_number       1
loop_
    _symmetry_equiv_pos_site_id
    _symmetry_equiv_pos_as_xyz
    1  x,y,z
loop_
    _atom_site_type_symbol
    _atom_site_label
    _atom_site_fract_x
    _atom_site_fract_y
    _atom_site_fract_z
    _atom_type_partial_charge
    O   O1   0.315509  0.620807  0.500124  -0.645938
    O   O2   0.318541  0.382054  0.499647  -0.665506
    C   C1   0.258930  0.500805  0.501386  0.559275
    O   O3   0.499319  0.620598  0.397367  -0.704225
    O   O4   0.505692  0.383990  0.396997  -0.660296
    C   C2   0.502987  0.502539  0.364261  0.965566
    Zn  Zn1  0.499531  0.659826  0.499813  1.023338
    Zn  Zn2  0.503040  0.343985  0.499405  0.997619
    O   O5   0.683870  0.621516  0.501330  -0.581567
    O   O6   0.686874  0.383350  0.501293  -0.631002
    O   O7   0.497550  0.621744  0.602405  -0.645812
    O   O8   0.502082  0.381095  0.602102  -0.632673
    C   C3   0.743696  0.503178  0.502659  0.444928
    C   C4   0.499314  0.501275  0.634213  0.684589
    C   C5   0.461978  0.617817  0.251159  -0.045349
    C   C6   0.539556  0.388485  0.250361  -0.046982
    C   C7   0.466906  0.620776  0.180009  0.602064
    C   C8   0.526193  0.384037  0.179619  0.587804
    C   C9   0.494704  0.502050  0.142861  -0.768024
    C   C10  0.501925  0.503087  0.287656  -0.201334
    N   N1   0.524849  0.387458  0.031067  -0.215308
    N   N2   0.459787  0.615189  0.030979  -0.223523
    N   N3   0.524417  0.386902  0.963062  -0.422285
    N   N4   0.459720  0.615170  0.962941  -0.421633
    C   C11  0.492092  0.500925  0.928105  0.884817
    C   C12  0.492586  0.501465  0.066335  0.881908
    C   C13  0.475419  0.622195  0.816498  0.087610
    C   C14  0.512732  0.379583  0.816710  0.080724
    H   H1   0.460326  0.718662  0.843046  0.043589
    H   H2   0.526513  0.283061  0.843428  0.044238
    C   C15  0.478143  0.622386  0.745564  -0.139886
    C   C16  0.514049  0.379550  0.745754  -0.128243
    H   H3   0.464168  0.718806  0.718804  0.108566
    H   H4   0.529462  0.283234  0.719122  0.105437
    C   C17  0.497255  0.501045  0.709719  -0.018089
    C   C18  0.493150  0.500871  0.852569  -0.401857
    C   C19  0.070135  0.622789  0.545739  -0.133034
    C   C20  0.070965  0.371506  0.539140  -0.129310
    H   H5   0.117009  0.720775  0.534040  0.009439
    H   H6   0.086538  0.280110  0.506106  0.063318
    H   H7   0.085367  0.602626  0.601288  0.030288
    H   H8   0.117858  0.355408  0.589260  0.023862
    C   C21  0.932281  0.639162  0.532704  -0.100248
    C   C22  0.932834  0.389486  0.551061  -0.156286
    H   H9   0.885455  0.665766  0.581720  0.030966
    H   H10  0.916541  0.418074  0.605589  0.037347
    H   H11  0.917073  0.723112  0.494886  0.014585
    H   H12  0.886114  0.290149  0.542221  0.042182
    H   H13  0.095205  0.597465  0.404212  -0.019713
    H   H14  0.109773  0.415153  0.401954  -0.032055
    H   H15  0.890783  0.566578  0.397774  0.013716
    H   H16  0.911365  0.385471  0.411164  -0.049432
    C   C23  0.070438  0.502343  0.431375  -0.013508
    C   C24  0.119879  0.500408  0.504307  0.262383
    C   C25  0.882999  0.504046  0.504630  0.334984
    C   C26  0.932196  0.487691  0.431976  -0.000840
    C   C27  0.385954  0.083345  0.470513  0.298306
    C   C28  0.375316  0.927055  0.485229  0.063852
    H   H17  0.310184  0.134747  0.498478  -0.015644
    H   H18  0.319294  0.909360  0.532270  0.038485
    H   H19  0.600543  0.126365  0.402120  0.042303
    H   H20  0.531164  0.904193  0.392673  -0.117423
    C   C29  0.600972  0.075917  0.453154  0.194929
    C   C30  0.578151  0.921247  0.442496  0.555355
    C   C31  0.519832  0.080090  0.565684  0.056209
    C   C32  0.541158  0.924340  0.562818  -0.045840
    N   N5   0.503719  0.136415  0.496692  -0.019609
    N   N6   0.498377  0.867420  0.497426  -0.088843
    H   H21  0.599060  0.130074  0.591921  0.062829
    H   H22  0.640465  0.900649  0.570462  0.019591
    H   H23  0.436052  0.101359  0.596837  -0.004799
    H   H24  0.489114  0.877560  0.605939  0.077135
    O   O9   0.415537  0.730336  0.284599  -0.111319
    C   C33  0.288364  0.706625  0.288264  -0.187539
    H   H25  0.265273  0.663603  0.339314  0.086367
    H   H26  0.258624  0.631734  0.248495  0.059997
    H   H27  0.238347  0.804885  0.279708  0.114892
    O   O10  0.592978  0.278135  0.282407  -0.172099
    C   C34  0.720275  0.301943  0.277696  0.007400
    H   H28  0.748002  0.381405  0.315651  -0.003348
    H   H29  0.746774  0.337490  0.225588  0.033107
    H   H30  0.770457  0.204436  0.287702  0.048675
    O   O11  0.379754  0.105357  0.398680  -0.464127
    C   C35  0.277134  0.187136  0.380871  0.358493
    H   H31  0.301902  0.297143  0.378987  -0.045241
    H   H32  0.195714  0.172361  0.414303  -0.058277
    H   H33  0.247977  0.158529  0.328056  -0.024848
    O   O12  0.319588  0.861467  0.428772  -0.107412
    C   C36  0.193295  0.895558  0.427614  -0.062119
    H   H34  0.169356  0.942308  0.377455  0.017965
    H   H35  0.164112  0.964121  0.470163  0.070607
    H   H36  0.137729  0.801961  0.430877  0.088755
    O   O13  0.716902  0.092347  0.484373  -0.363611
    C   C37  0.799467  0.135362  0.433228  -0.007470
    H   H37  0.771151  0.236318  0.413281  0.128949
    H   H38  0.805206  0.063365  0.389923  -0.002119
    H   H39  0.893826  0.141303  0.454980  0.068027
    O   O14  0.692407  0.853015  0.442625  -0.335406
    C   C38  0.725189  0.820209  0.374415  0.093860
    H   H40  0.696301  0.899855  0.336659  0.017079
    H   H41  0.689191  0.718304  0.359290  0.009995
    H   H42  0.827350  0.813867  0.371359  0.014094
    O   O15  0.435703  0.741103  0.147616  -0.435474
    C   C39  0.544793  0.818093  0.145603  0.053852
    H   H43  0.626050  0.748421  0.146046  -0.019755
    H   H44  0.549077  0.887729  0.190777  0.035215
    H   H45  0.546939  0.880225  0.097714  0.091142
    O   O16  0.553056  0.262751  0.146890  -0.419419
    C   C40  0.443499  0.186649  0.149058  0.010623
    H   H46  0.362808  0.257028  0.151002  -0.001260
    H   H47  0.443128  0.119336  0.195168  0.075376
    H   H48  0.436450  0.122190  0.102091  0.088348
