# generated using pymatgen
data_CuH19C23N6O7
_symmetry_space_group_name_H-M   'P 1'
_cell_length_a   19.24092100
_cell_length_b   14.45976900
_cell_length_c   15.87044000
_cell_angle_alpha   90.00000000
_cell_angle_beta   89.99367800
_cell_angle_gamma   90.00000000
_symmetry_Int_Tables_number   1
_chemical_formula_structural   CuH19C23N6O7
_chemical_formula_sum   'Cu2 H38 C46 N12 O14'
_cell_volume   4415.46225223
_cell_formula_units_Z   2
loop_
 _symmetry_equiv_pos_site_id
 _symmetry_equiv_pos_as_xyz
  1  'x, y, z'
loop_
 _atom_site_type_symbol
 _atom_site_label
 _atom_site_symmetry_multiplicity
 _atom_site_fract_x
 _atom_site_fract_y
 _atom_site_fract_z
 _atom_site_occupancy
  Cu  Cu1  1  0.49901600  0.59354200  0.50357800  1
  Cu  Cu2  1  0.49918500  0.40843100  0.50385600  1
  H  H1  1  0.71835900  0.64904300  0.50640100  1
  H  H2  1  0.71813200  0.35315200  0.50269400  1
  H  H3  1  0.84383800  0.64908900  0.50679300  1
  H  H4  1  0.84361800  0.35281700  0.50321900  1
  H  H5  1  0.15449800  0.64877300  0.50508400  1
  H  H6  1  0.15451700  0.35248200  0.50431500  1
  H  H7  1  0.27995500  0.64870000  0.50458800  1
  H  H8  1  0.28002700  0.35263700  0.50391400  1
  H  H9  1  0.40810500  0.58324900  0.92804700  1
  H  H10  1  0.41170400  0.41888700  0.93845500  1
  H  H11  1  0.39880800  0.56277000  0.06812100  1
  H  H12  1  0.42233400  0.39454800  0.07788600  1
  H  H13  1  0.51053800  0.35407500  0.06811900  1
  H  H14  1  0.46861600  0.64507100  0.08054400  1
  H  H15  1  0.48965300  0.35314400  0.92563400  1
  H  H16  1  0.48454200  0.65215700  0.94048500  1
  H  H17  1  0.58735600  0.59165100  0.06920700  1
  H  H18  1  0.61082500  0.47470200  0.08853900  1
  H  H19  1  0.51398100  0.91503400  0.64109600  1
  H  H20  1  0.53929500  0.06779600  0.63191200  1
  H  H21  1  0.55944900  0.06578900  0.39570500  1
  H  H22  1  0.57590200  0.92010000  0.41000800  1
  H  H23  1  0.44385100  0.08254400  0.38707900  1
  H  H24  1  0.46319200  0.93681900  0.37847200  1
  H  H25  1  0.44883800  0.08645600  0.62985200  1
  H  H26  1  0.42682300  0.93374400  0.61173800  1
  H  H27  1  0.63020100  0.64328200  0.81014300  1
  H  H28  1  0.60207600  0.71514400  0.88678000  1
  H  H29  1  0.69425500  0.39892900  0.85212500  1
  H  H30  1  0.61857900  0.34656800  0.82692800  1
  H  H31  1  0.71365000  0.17577000  0.45623700  1
  H  H32  1  0.64318800  0.19406400  0.39524600  1
  H  H33  1  0.71680800  0.84064700  0.52949700  1
  H  H34  1  0.65610800  0.79832700  0.46309200  1
  H  H35  1  0.28091500  0.16218900  0.45394800  1
  H  H36  1  0.35489700  0.20590900  0.41309400  1
  H  H37  1  0.30227200  0.82424000  0.38301900  1
  H  H38  1  0.38440900  0.80762100  0.34915100  1
  C  C1  1  0.49898900  0.50069800  0.34201800  1
  C  C2  1  0.63274000  0.50119500  0.50389500  1
  C  C3  1  0.49923100  0.50129400  0.66537500  1
  C  C4  1  0.36549800  0.50074900  0.50405000  1
  C  C5  1  0.74531600  0.58355700  0.50566600  1
  C  C6  1  0.74518800  0.41861000  0.50369500  1
  C  C7  1  0.81696900  0.58349700  0.50591600  1
  C  C8  1  0.81684300  0.41847700  0.50396400  1
  C  C9  1  0.85325300  0.50093600  0.50502600  1
  C  C10  1  0.70897300  0.50114700  0.50450500  1
  C  C11  1  0.06868600  0.50067400  0.50496600  1
  C  C12  1  0.92956100  0.50083400  0.50508700  1
  C  C13  1  0.18133100  0.58315100  0.50491500  1
  C  C14  1  0.18134800  0.41810900  0.50447300  1
  C  C15  1  0.25298000  0.58315500  0.50467900  1
  C  C16  1  0.25301100  0.41814700  0.50429300  1
  C  C17  1  0.28927100  0.50066700  0.50446400  1
  C  C18  1  0.14499600  0.50062800  0.50482200  1
  C  C19  1  0.45356500  0.57826600  0.05148600  1
  C  C20  1  0.47401200  0.41000900  0.05035000  1
  C  C21  1  0.46757400  0.41597700  0.95537600  1
  C  C22  1  0.46065300  0.58500700  0.95668100  1
  C  C23  1  0.49979600  0.50159900  0.75575500  1
  C  C24  1  0.50022800  0.50172400  0.08357900  1
  C  C25  1  0.50321000  0.50352200  0.92398900  1
  C  C26  1  0.57847000  0.50695100  0.95799200  1
  C  C27  1  0.57395100  0.51909200  0.05348700  1
  C  C28  1  0.50114200  0.50233200  0.83167600  1
  C  C29  1  0.49911700  0.50092200  0.17570800  1
  C  C30  1  0.49877200  0.50063400  0.25161700  1
  C  C31  1  0.49185500  0.05260600  0.59541800  1
  C  C32  1  0.48089400  0.94906000  0.59328900  1
  C  C33  1  0.56412900  0.05319600  0.46434600  1
  C  C34  1  0.56762500  0.94821100  0.47421700  1
  C  C35  1  0.49740500  0.08906700  0.50541800  1
  C  C36  1  0.49682300  0.91295400  0.50499700  1
  C  C37  1  0.44250000  0.94902300  0.44268100  1
  C  C38  1  0.43673300  0.05406100  0.45135800  1
  C  C39  1  0.49694600  0.81176500  0.50500500  1
  C  C40  1  0.49759800  0.19022400  0.50568200  1
  C  C41  1  0.62198600  0.58550600  0.92455600  1
  C  C42  1  0.61659800  0.41967600  0.93424200  1
  C  C43  1  0.62898400  0.10409500  0.48997100  1
  C  C44  1  0.62833200  0.91360900  0.52486000  1
  C  C45  1  0.36668800  0.08864100  0.47925200  1
  C  C46  1  0.37447400  0.89772500  0.44456400  1
  N  N1  1  0.96472300  0.42041300  0.50448200  1
  N  N2  1  0.96482300  0.58117100  0.50564000  1
  N  N3  1  0.03342600  0.42033200  0.50443100  1
  N  N4  1  0.03352200  0.58108900  0.50557700  1
  N  N5  1  0.49739000  0.73176000  0.50481100  1
  N  N6  1  0.49786300  0.27021900  0.50551400  1
  N  N7  1  0.59722900  0.64849800  0.86217400  1
  N  N8  1  0.64043300  0.40768900  0.84981700  1
  N  N9  1  0.67209000  0.14319800  0.42612100  1
  N  N10  1  0.68003100  0.85889700  0.48408800  1
  N  N11  1  0.32707900  0.14489900  0.42317800  1
  N  N12  1  0.34879700  0.85780900  0.36850900  1
  O  O1  1  0.49675600  0.58020700  0.38116400  1
  O  O2  1  0.49688300  0.42130900  0.38139600  1
  O  O3  1  0.60002600  0.58055300  0.50619200  1
  O  O4  1  0.60015500  0.42178900  0.50640200  1
  O  O5  1  0.49688800  0.58083500  0.62605400  1
  O  O6  1  0.49705100  0.42158000  0.62630300  1
  O  O7  1  0.39803000  0.58035000  0.50635900  1
  O  O8  1  0.39816900  0.42125900  0.50661700  1
  O  O9  1  0.68154200  0.59347900  0.94980400  1
  O  O10  1  0.62927600  0.35997200  0.98628800  1
  O  O11  1  0.64444200  0.11546800  0.56373400  1
  O  O12  1  0.63449900  0.93103800  0.59963600  1
  O  O13  1  0.34299700  0.07006100  0.54845000  1
  O  O14  1  0.34210400  0.88632700  0.50977300  1
