# Generated by REPEAT Assigner based on pymatgen
data_DB0-m3_o24_o42_f0_fsc.sym.9
_audit_creation_date              2022-05-24
_audit_creation_method            REPEAT_Assigner
_cell_length_a                    9.181575
_cell_length_b                    10.959637
_cell_length_c                    8.524823
_cell_angle_alpha                 90.000000
_cell_angle_beta                  90.010451
_cell_angle_gamma                 90.000000
_cell_volume                      857.825096
_symmetry_space_group_name_H-M    P1
_symmetry_Int_Tables_number       1
loop_
    _symmetry_equiv_pos_site_id
    _symmetry_equiv_pos_as_xyz
    1  x,y,z
loop_
    _atom_site_type_symbol
    _atom_site_label
    _atom_site_fract_x
    _atom_site_fract_y
    _atom_site_fract_z
    _atom_type_partial_charge
    C   C1   0.980839  0.259039  0.860378  0.098896
    C   C2   0.019161  0.740961  0.139621  0.099052
    C   C3   0.983409  0.259697  0.138388  0.090940
    C   C4   0.016591  0.740303  0.861612  0.090989
    C   C5   0.998331  0.134129  0.859247  -0.286590
    C   C6   0.001668  0.865871  0.140753  -0.286634
    C   C7   0.001100  0.134765  0.139974  -0.281383
    C   C8   0.998900  0.865235  0.860026  -0.281411
    H   H1   0.012152  0.092415  0.746290  0.131327
    H   H2   0.987848  0.907585  0.253710  0.131333
    H   H3   0.016446  0.093474  0.252966  0.129251
    H   H4   0.983554  0.906526  0.747034  0.129254
    C   C9   0.998080  0.068259  0.999834  0.167854
    C   C10  0.001920  0.931741  0.000166  0.167877
    C   C11  0.565379  0.400520  0.492211  0.253321
    C   C12  0.434620  0.599480  0.507789  0.253384
    C   C13  0.457220  0.436928  0.614258  0.141614
    C   C14  0.542780  0.563072  0.385742  0.141503
    C   C15  0.456515  0.447853  0.377210  0.153322
    C   C16  0.543485  0.552147  0.622790  0.153216
    C   C17  0.962702  0.319095  0.999348  -0.257424
    C   C18  0.037297  0.680905  0.000652  -0.257569
    H   H5   0.942252  0.415486  0.999126  0.137888
    H   H6   0.057747  0.584514  0.000873  0.137938
    O   O1   0.117230  0.368535  0.669299  -0.694856
    O   O2   0.882769  0.631465  0.330701  -0.694770
    O   O3   0.868493  0.383574  0.329638  -0.709420
    O   O4   0.131507  0.616426  0.670362  -0.709493
    O   O5   0.866335  0.377479  0.662753  -0.711717
    O   O6   0.133665  0.622521  0.337247  -0.711722
    O   O7   0.118708  0.363957  0.336191  -0.734163
    O   O8   0.881292  0.636043  0.663809  -0.734102
    C   C19  0.988356  0.332651  0.717844  0.799712
    C   C20  0.011644  0.667349  0.282155  0.799564
    C   C21  0.990003  0.333738  0.280719  0.835366
    C   C22  0.009996  0.666262  0.719280  0.835376
    N   N1   0.353101  0.484388  0.499263  0.205847
    N   N2   0.646898  0.515612  0.500737  0.205906
    Zn  Zn1  0.837989  0.508515  0.499984  1.028750
    Zn  Zn2  0.162011  0.491485  0.500016  1.028851
    F   F1   0.635864  0.289293  0.483940  -0.193626
    F   F2   0.364136  0.710707  0.516059  -0.193626
    F   F3   0.412666  0.365850  0.739259  -0.152985
    F   F4   0.587334  0.634150  0.260741  -0.152945
    F   F5   0.411052  0.389015  0.242436  -0.151953
    F   F6   0.588948  0.610985  0.757564  -0.151945
