# generated using pymatgen
data_Fe2H11C40O16F5
_symmetry_space_group_name_H-M   'P 1'
_cell_length_a   14.41791500
_cell_length_b   12.57823800
_cell_length_c   13.31873800
_cell_angle_alpha   110.07169100
_cell_angle_beta   93.00559600
_cell_angle_gamma   117.45015100
_symmetry_Int_Tables_number   1
_chemical_formula_structural   Fe2H11C40O16F5
_chemical_formula_sum   'Fe2 H11 C40 O16 F5'
_cell_volume   1947.90636696
_cell_formula_units_Z   1
loop_
 _symmetry_equiv_pos_site_id
 _symmetry_equiv_pos_as_xyz
  1  'x, y, z'
loop_
 _atom_site_type_symbol
 _atom_site_label
 _atom_site_symmetry_multiplicity
 _atom_site_fract_x
 _atom_site_fract_y
 _atom_site_fract_z
 _atom_site_occupancy
  Fe  Fe1  1  0.49846100  0.01498300  0.14595200  1
  Fe  Fe2  1  0.47031400  0.94909900  0.69799400  1
  H  H1  1  0.07387300  0.82468600  0.69588100  1
  H  H2  1  0.95232100  0.85083000  0.80337300  1
  H  H3  1  0.96875600  0.05239100  0.84666100  1
  H  H4  1  0.28570700  0.09531500  0.16950800  1
  H  H5  1  0.16234600  0.11288900  0.27582900  1
  H  H6  1  0.99503300  0.09204900  0.29090200  1
  H  H7  1  0.53650600  0.54307300  0.63314800  1
  H  H8  1  0.37808700  0.39652600  0.19907500  1
  H  H9  1  0.52396700  0.12249700  0.47095700  1
  H  H10  1  0.43799400  0.84219800  0.37987700  1
  H  H11  1  0.37191900  0.51216900  0.08658000  1
  C  C1  1  0.20919200  0.92158800  0.83418100  1
  C  C2  1  0.10422700  0.87718200  0.78459400  1
  C  C3  1  0.03551600  0.89706900  0.84657500  1
  C  C4  1  0.90482800  0.02761700  0.88838000  1
  C  C5  1  0.24188900  0.97790300  0.94909500  1
  C  C6  1  0.17388200  0.00476800  0.01109900  1
  C  C7  1  0.07244500  0.97304600  0.95991100  1
  C  C8  1  0.00787600  0.00786100  0.02488500  1
  C  C9  1  0.81229200  0.01945200  0.84500300  1
  C  C10  1  0.72940400  0.99373600  0.89665900  1
  C  C11  1  0.91638900  0.00907400  0.98405100  1
  C  C12  1  0.84247100  0.01077800  0.04751200  1
  C  C13  1  0.74476800  0.99411300  0.00029700  1
  C  C14  1  0.20678600  0.06244400  0.12516600  1
  C  C15  1  0.13686200  0.07513200  0.18699800  1
  C  C16  1  0.03751800  0.04612500  0.13738500  1
  C  C17  1  0.97048400  0.06176200  0.20296200  1
  C  C18  1  0.87170500  0.03863400  0.15872800  1
  C  C19  1  0.65763600  0.97832100  0.05754400  1
  C  C20  1  0.41768500  0.76711700  0.16360500  1
  C  C21  1  0.34757500  0.01124400  0.00699000  1
  C  C22  1  0.48375900  0.18606400  0.32296500  1
  C  C23  1  0.46485200  0.75714800  0.52194600  1
  C  C24  1  0.62531400  0.96270600  0.83870200  1
  C  C25  1  0.52238200  0.18846200  0.68023200  1
  C  C26  1  0.28288600  0.91257600  0.76283800  1
  C  C27  1  0.52765500  0.21572200  0.50874800  1
  C  C28  1  0.51762300  0.27184700  0.44025900  1
  C  C29  1  0.51489400  0.38716400  0.48286400  1
  C  C30  1  0.53202800  0.44919400  0.59654200  1
  C  C31  1  0.53957200  0.38995600  0.66468800  1
  C  C32  1  0.53345800  0.26960200  0.61953000  1
  C  C33  1  0.49463200  0.44269800  0.40881900  1
  C  C34  1  0.42933500  0.49277100  0.42322400  1
  C  C35  1  0.42567700  0.67853200  0.40257900  1
  C  C36  1  0.42213600  0.74290900  0.33845100  1
  C  C37  1  0.40488800  0.68595900  0.22517400  1
  C  C38  1  0.38587500  0.55926900  0.17512200  1
  C  C39  1  0.39079800  0.49453800  0.23921500  1
  C  C40  1  0.41461300  0.55560400  0.35358300  1
  O  O1  1  0.61112300  0.04834900  0.06285500  1
  O  O2  1  0.39126400  0.71554900  0.05519900  1
  O  O3  1  0.62413600  0.89128800  0.10004200  1
  O  O4  1  0.46669800  0.89525000  0.22102400  1
  O  O5  1  0.35609100  0.92590000  0.03691800  1
  O  O6  1  0.42851300  0.13310400  0.04545000  1
  O  O7  1  0.55609300  0.19588500  0.26514100  1
  O  O8  1  0.39556100  0.07091700  0.29108800  1
  O  O9  1  0.39558800  0.76420300  0.58068000  1
  O  O10  1  0.56468800  0.85638100  0.55857400  1
  O  O11  1  0.62193000  0.03190400  0.78569300  1
  O  O12  1  0.53630700  0.85725200  0.82947500  1
  O  O13  1  0.25808500  0.89740800  0.66071900  1
  O  O14  1  0.49093900  0.06466000  0.62089800  1
  O  O15  1  0.37696100  0.93085300  0.80218300  1
  O  O16  1  0.53536600  0.23340500  0.78768600  1
  F  F1  1  0.54660900  0.44683700  0.32689300  1
  F  F2  1  0.37571800  0.48733000  0.50385600  1
  F  F3  1  0.54784600  0.44799700  0.77392900  1
  F  F4  1  0.80072200  0.02773100  0.74678000  1
  F  F5  1  0.81334700  0.06251300  0.23059400  1
