# generated using pymatgen
data_ZnH19C32(NO)4
_symmetry_space_group_name_H-M   'P 1'
_cell_length_a   12.79473100
_cell_length_b   17.61955000
_cell_length_c   8.56028300
_cell_angle_alpha   90.00000000
_cell_angle_beta   93.30041600
_cell_angle_gamma   90.00000000
_symmetry_Int_Tables_number   1
_chemical_formula_structural   ZnH19C32(NO)4
_chemical_formula_sum   'Zn2 H38 C64 N8 O8'
_cell_volume   1926.60718285
_cell_formula_units_Z   2
loop_
 _symmetry_equiv_pos_site_id
 _symmetry_equiv_pos_as_xyz
  1  'x, y, z'
loop_
 _atom_site_type_symbol
 _atom_site_label
 _atom_site_symmetry_multiplicity
 _atom_site_fract_x
 _atom_site_fract_y
 _atom_site_fract_z
 _atom_site_occupancy
  Zn  Zn1  1  0.50479800  0.08570600  0.50349100  1
  Zn  Zn2  1  0.49560400  0.91402300  0.50018000  1
  H  H1  1  0.84736500  0.01235700  0.28574400  1
  H  H2  1  0.15311700  0.98743300  0.71794300  1
  H  H3  1  0.85929600  0.00747200  0.78554700  1
  H  H4  1  0.14110500  0.99217100  0.21813300  1
  H  H5  1  0.57294800  0.97260600  0.99691800  1
  H  H6  1  0.42746800  0.02716400  0.00691400  1
  H  H7  1  0.76434100  0.31585500  0.53444800  1
  H  H8  1  0.23609300  0.68498600  0.51481800  1
  H  H9  1  0.24323400  0.30940500  0.46658600  1
  H  H10  1  0.75211800  0.68906400  0.45232000  1
  H  H11  1  0.75646000  0.55713000  0.45137200  1
  H  H12  1  0.23767500  0.44110400  0.45966400  1
  H  H13  1  0.23654300  0.55262600  0.51948700  1
  H  H14  1  0.76285300  0.44838200  0.53304800  1
  H  H15  1  0.27349100  0.18742200  0.39680300  1
  H  H16  1  0.11557200  0.17215500  0.51667600  1
  H  H17  1  0.01921600  0.18686900  0.75380700  1
  H  H18  1  0.11389700  0.21118000  0.00688200  1
  H  H19  1  0.30587600  0.22024000  0.02254800  1
  H  H20  1  0.40356700  0.20532500  0.78883500  1
  H  H21  1  0.71918500  0.81439500  0.39962000  1
  H  H22  1  0.88620500  0.80903900  0.51790400  1
  H  H23  1  0.99698500  0.77380700  0.74842600  1
  H  H24  1  0.91825000  0.74790300  0.99904300  1
  H  H25  1  0.72787000  0.75776300  0.01729800  1
  H  H26  1  0.61567600  0.79162300  0.78778000  1
  H  H27  1  0.74017400  0.19332300  0.61269700  1
  H  H28  1  0.89766600  0.17720500  0.49187100  1
  H  H29  1  0.99235800  0.18943900  0.25262700  1
  H  H30  1  0.89582500  0.20908500  0.99919700  1
  H  H31  1  0.70368500  0.21597100  0.98542700  1
  H  H32  1  0.60764600  0.20352400  0.22119900  1
  H  H33  1  0.26607300  0.80447200  0.60190600  1
  H  H34  1  0.10453500  0.84038600  0.47812800  1
  H  H35  1  0.99542800  0.84766300  0.23401600  1
  H  H36  1  0.07444900  0.83083400  0.98140000  1
  H  H37  1  0.26229100  0.80386900  0.97319000  1
  H  H38  1  0.37250300  0.79675200  0.21320900  1
  C  C1  1  0.70235400  0.99614200  0.15465200  1
  C  C2  1  0.29810600  0.00363200  0.84911800  1
  C  C3  1  0.80895100  0.00642000  0.17058200  1
  C  C4  1  0.19150600  0.99335300  0.83312500  1
  C  C5  1  0.86751000  0.00534700  0.03984300  1
  C  C6  1  0.13291900  0.99437800  0.96384100  1
  C  C7  1  0.81700300  0.00273600  0.89086400  1
  C  C8  1  0.18340700  0.99693600  0.11282900  1
  C  C9  1  0.70941600  0.99354600  0.87678900  1
  C  C10  1  0.29098600  0.00614400  0.12692900  1
  C  C11  1  0.65500900  0.98482100  0.00887900  1
  C  C12  1  0.34541400  0.01493100  0.99489900  1
  C  C13  1  0.63693800  0.99821700  0.28854500  1
  C  C14  1  0.36357900  0.00152200  0.71530800  1
  C  C15  1  0.35276000  0.00358200  0.27643900  1
  C  C16  1  0.64761300  0.99617000  0.72726500  1
  C  C17  1  0.59766800  0.22408600  0.51073700  1
  C  C18  1  0.40240900  0.77586300  0.50056500  1
  C  C19  1  0.41441300  0.22232200  0.49800200  1
  C  C20  1  0.58493800  0.77701600  0.49244800  1
  C  C21  1  0.50313800  0.34184900  0.50009300  1
  C  C22  1  0.49538200  0.65778100  0.49293300  1
  C  C23  1  0.59701000  0.30299500  0.51019100  1
  C  C24  1  0.40244800  0.69697800  0.50026500  1
  C  C25  1  0.41132300  0.30090700  0.49291700  1
  C  C26  1  0.58695000  0.69840400  0.48599600  1
  C  C27  1  0.68917200  0.34349800  0.52078000  1
  C  C28  1  0.31053000  0.65686700  0.50747400  1
  C  C29  1  0.31710100  0.33885700  0.47871400  1
  C  C30  1  0.67959800  0.66006300  0.46992600  1
  C  C31  1  0.59152500  0.54039000  0.48900400  1
  C  C32  1  0.40583200  0.45908500  0.49052800  1
  C  C33  1  0.40402300  0.53847200  0.49628200  1
  C  C34  1  0.59394900  0.46127000  0.49996000  1
  C  C35  1  0.49694200  0.57871700  0.49271600  1
  C  C36  1  0.50095500  0.42089600  0.49696300  1
  C  C37  1  0.68192800  0.58230700  0.47105700  1
  C  C38  1  0.31425300  0.41662500  0.47695800  1
  C  C39  1  0.31121400  0.57892100  0.50676900  1
  C  C40  1  0.68777500  0.42139000  0.51672600  1
  C  C41  1  0.26599000  0.18875800  0.63492000  1
  C  C42  1  0.15809300  0.18306500  0.62718800  1
  C  C43  1  0.10362100  0.19123500  0.76052300  1
  C  C44  1  0.15664800  0.20485100  0.90236800  1
  C  C45  1  0.26426900  0.21002000  0.91103300  1
  C  C46  1  0.31911800  0.20192400  0.77797100  1
  C  C47  1  0.74328000  0.80201500  0.63603100  1
  C  C48  1  0.85063200  0.79810000  0.62721100  1
  C  C49  1  0.91330400  0.77836300  0.75715800  1
  C  C50  1  0.86922100  0.76368500  0.89718100  1
  C  C51  1  0.76238000  0.76898000  0.90729900  1
  C  C52  1  0.69928800  0.78790300  0.77709500  1
  C  C53  1  0.74634000  0.19052800  0.37454000  1
  C  C54  1  0.85433300  0.18605800  0.38121900  1
  C  C55  1  0.90787000  0.19283500  0.24668200  1
  C  C56  1  0.85380700  0.20383700  0.10465800  1
  C  C57  1  0.74609300  0.20777900  0.09705000  1
  C  C58  1  0.69216700  0.20105800  0.23131600  1
  C  C59  1  0.24572600  0.81720400  0.36419500  1
  C  C60  1  0.13970000  0.83143700  0.36776200  1
  C  C61  1  0.07816300  0.83581700  0.23056300  1
  C  C62  1  0.12229600  0.82611400  0.08898000  1
  C  C63  1  0.22774000  0.81120400  0.08450200  1
  C  C64  1  0.28967500  0.80675300  0.22141500  1
  N  N1  1  0.97784800  0.00732000  0.06252100  1
  N  N2  1  0.02258300  0.99240800  0.94114200  1
  N  N3  1  0.50687600  0.18537700  0.50540200  1
  N  N4  1  0.49323200  0.81433700  0.49783300  1
  N  N5  1  0.32073100  0.18009200  0.49705600  1
  N  N6  1  0.67927400  0.81859200  0.50023800  1
  N  N7  1  0.69267500  0.18338700  0.51371700  1
  N  N8  1  0.30803900  0.81683100  0.50612800  1
  O  O1  1  0.59949400  0.93338600  0.33697700  1
  O  O2  1  0.40073200  0.06634700  0.66642600  1
  O  O3  1  0.39163700  0.93464800  0.66278900  1
  O  O4  1  0.60919400  0.06509600  0.34151000  1
  O  O5  1  0.39345200  0.06698600  0.33060500  1
  O  O6  1  0.60729500  0.93260500  0.67266300  1
  O  O7  1  0.61618000  0.06263700  0.67411500  1
  O  O8  1  0.38402500  0.93726400  0.33001300  1
