# Generated by REPEAT Assigner based on pymatgen
data_DB0-m2_o20_pth
_audit_creation_date              2022-05-24
_audit_creation_method            REPEAT_Assigner
_cell_length_a                    23.813403
_cell_length_b                    17.580607
_cell_length_c                    63.243359
_cell_angle_alpha                 89.494651
_cell_angle_beta                  90.206666
_cell_angle_gamma                 131.499593
_cell_volume                      19829.433838
_symmetry_space_group_name_H-M    P1
_symmetry_Int_Tables_number       1
loop_
    _symmetry_equiv_pos_site_id
    _symmetry_equiv_pos_as_xyz
    1  x,y,z
loop_
    _atom_site_type_symbol
    _atom_site_label
    _atom_site_fract_x
    _atom_site_fract_y
    _atom_site_fract_z
    _atom_type_partial_charge
    O   O1    0.959574  0.049438  0.519857  -0.585613
    O   O2    0.902217  0.882316  0.520147  -0.584046
    C   C1    0.909243  0.956759  0.528129  0.748531
    O   O3    0.958072  0.060488  0.475783  -0.577703
    O   O4    0.897005  0.892344  0.475194  -0.594068
    C   C2    0.902319  0.969099  0.468654  0.680798
    Cu  Cu1   0.032842  0.089658  0.496409  1.065506
    Cu  Cu2   0.965073  0.902460  0.497011  1.065397
    O   O5    0.100441  0.098597  0.474735  -0.595910
    O   O6    0.039484  0.930563  0.476428  -0.578290
    O   O7    0.095980  0.110961  0.519676  -0.583507
    O   O8    0.038538  0.943822  0.520496  -0.586779
    C   C3    0.094983  0.021503  0.468751  0.683168
    C   C4    0.088923  0.036900  0.528266  0.748134
    O   O9    0.599258  0.079694  0.333241  -0.601079
    O   O10   0.515691  0.907232  0.333760  -0.600643
    C   C5    0.579278  0.993776  0.326575  0.747906
    O   O11   0.599822  0.078439  0.376944  -0.598677
    O   O12   0.514609  0.905972  0.377462  -0.599528
    C   C6    0.578812  0.991870  0.384130  0.743323
    Cu  Cu3   0.544527  0.091362  0.355075  1.077086
    Cu  Cu4   0.448132  0.894362  0.355617  1.079587
    O   O13   0.478874  0.080729  0.376968  -0.599299
    O   O14   0.393683  0.908267  0.377409  -0.600216
    O   O15   0.476178  0.077519  0.333261  -0.599279
    O   O16   0.392603  0.905055  0.333696  -0.601192
    C   C7    0.414952  0.995143  0.384116  0.741307
    C   C8    0.412345  0.990665  0.326543  0.748012
    O   O17   0.401870  0.449575  0.699325  -0.597857
    O   O18   0.441167  0.361736  0.699768  -0.598752
    C   C9    0.396776  0.375430  0.707200  0.755808
    O   O19   0.403455  0.450835  0.654477  -0.601465
    O   O20   0.442661  0.362867  0.654930  -0.602540
    C   C10   0.399027  0.377284  0.646960  0.768072
    Cu  Cu5   0.474031  0.547579  0.676907  1.075499
    Cu  Cu6   0.519007  0.446922  0.677467  1.075153
    O   O21   0.551314  0.631742  0.654395  -0.600968
    O   O22   0.590547  0.543801  0.654927  -0.599570
    O   O23   0.550939  0.632648  0.699232  -0.600533
    O   O24   0.590229  0.544807  0.699769  -0.600185
    C   C11   0.595283  0.617373  0.646905  0.766082
    C   C12   0.595007  0.618916  0.707140  0.759352
    O   O25   0.993124  0.093238  0.235506  -0.594508
    O   O26   0.889809  0.925055  0.234764  -0.583276
    C   C13   0.923393  0.016287  0.241960  0.676489
    O   O27   0.007968  0.103859  0.190551  -0.590713
    O   O28   0.902111  0.936537  0.190636  -0.584626
    C   C14   0.942368  0.029297  0.182410  0.745569
    Cu  Cu7   0.051291  0.083647  0.213737  1.068792
    Cu  Cu8   0.936096  0.896329  0.214180  1.069149
    O   O29   0.084243  0.043019  0.190219  -0.587819
    O   O30   0.978450  0.875694  0.190944  -0.593300
    O   O31   0.098422  0.055374  0.234342  -0.582408
    O   O32   0.995131  0.887235  0.235895  -0.594348
    C   C15   0.043630  0.950114  0.182375  0.753158
    C   C16   0.065098  0.964335  0.241955  0.678644
    O   O33   0.101613  0.100415  0.832477  -0.581744
    O   O34   0.016548  0.928022  0.830232  -0.623499
    C   C17   0.078702  0.017948  0.823184  0.729055
    O   O35   0.085054  0.070121  0.877861  -0.620338
    O   O36   0.003351  0.897750  0.875656  -0.582003
    C   C18   0.060325  0.980842  0.885023  0.735729
    Cu  Cu9   0.038749  0.090301  0.853693  1.088066
    Cu  Cu10  0.949675  0.905988  0.854220  1.087765
    O   O37   0.985970  0.099435  0.875147  -0.583345
    O   O38   0.904233  0.927189  0.878265  -0.622935
    O   O39   0.971396  0.067201  0.829659  -0.625786
    O   O40   0.886532  0.894913  0.832814  -0.582264
    C   C19   0.929390  0.016792  0.884988  0.737466
    C   C20   0.909274  0.976940  0.822998  0.733501
    O   O41   0.038834  0.442945  0.054453  -0.596946
    O   O42   0.914389  0.359796  0.054483  -0.596192
    C   C21   0.971006  0.371085  0.062242  0.760507
    O   O43   0.072749  0.626837  0.054530  -0.598861
    O   O44   0.948313  0.543678  0.054480  -0.599152
    C   C22   0.015955  0.614894  0.062293  0.766830
    Cu  Cu11  0.065097  0.541858  0.031959  1.064262
    Cu  Cu12  0.922574  0.446678  0.031945  1.062782
    O   O45   0.073755  0.629873  0.009654  -0.594777
    O   O46   0.949350  0.546831  0.009597  -0.596097
    O   O47   0.038838  0.443618  0.009566  -0.599003
    O   O48   0.914440  0.360548  0.009607  -0.596833
    C   C23   0.017401  0.619332  0.001969  0.744001
    C   C24   0.970970  0.371742  0.001914  0.751853
    C   C25   0.846429  0.954513  0.454199  -0.121622
    C   C26   0.805646  0.961231  0.443849  0.066956
    C   C27   0.757387  0.969173  0.431600  0.008757
    C   C28   0.716601  0.975878  0.421248  -0.029971
    C   C29   0.668336  0.983808  0.408998  0.111344
    C   C30   0.627546  0.990510  0.398647  -0.176717
    C   C31   0.366809  0.997149  0.398638  -0.174898
    C   C32   0.326470  0.004236  0.409004  0.110605
    C   C33   0.278737  0.012624  0.421273  -0.028856
    C   C34   0.238403  0.019716  0.431640  0.008237
    C   C35   0.190675  0.028115  0.443908  0.065089
    C   C36   0.150346  0.035221  0.454273  -0.120674
    C   C37   0.647792  0.681090  0.629479  -0.176448
    C   C38   0.687964  0.728483  0.613993  0.067406
    C   C39   0.735346  0.784413  0.595730  0.012381
    C   C40   0.775515  0.831864  0.580247  0.005738
    C   C41   0.822890  0.887883  0.561987  0.079264
    C   C42   0.863052  0.935419  0.546508  -0.179277
    C   C43   0.347234  0.313637  0.629566  -0.178354
    C   C44   0.307625  0.266198  0.614114  0.070666
    C   C45   0.260904  0.210208  0.595890  0.007078
    C   C46   0.221299  0.162714  0.580442  0.013064
    C   C47   0.174586  0.106642  0.562221  0.071429
    C   C48   0.134992  0.059068  0.546776  -0.174874
    C   C49   0.107209  0.950508  0.256438  -0.114434
    C   C50   0.154701  0.957637  0.266791  0.059207
    C   C51   0.210892  0.966063  0.279044  0.012692
    C   C52   0.258374  0.973179  0.289400  -0.031279
    C   C53   0.314560  0.981596  0.301653  0.113054
    C   C54   0.362045  0.988709  0.312007  -0.180412
    C   C55   0.881772  0.030498  0.256401  -0.112726
    C   C56   0.834679  0.023889  0.266771  0.059439
    C   C57   0.778958  0.016076  0.279045  0.012541
    C   C58   0.731875  0.009480  0.289417  -0.031447
    C   C59   0.676158  0.001677  0.301691  0.112759
    C   C60   0.629073  0.995082  0.312061  -0.180104
    C   C61   0.343103  0.309777  0.724306  -0.175141
    C   C62   0.301426  0.257462  0.739255  0.079416
    C   C63   0.252264  0.195724  0.756892  -0.002713
    C   C64   0.210602  0.143374  0.771841  0.022742
    C   C65   0.161460  0.081576  0.789477  0.050431
    C   C66   0.119818  0.029171  0.804425  -0.136500
    C   C67   0.868139  0.964837  0.804087  -0.136833
    C   C68   0.827079  0.912484  0.789186  0.046924
    C   C69   0.778619  0.850740  0.771604  0.025556
    C   C70   0.737539  0.798440  0.756701  -0.005910
    C   C71   0.689060  0.736752  0.739117  0.084333
    C   C72   0.647966  0.684485  0.724213  -0.179478
    C   C73   0.067694  0.928617  0.163756  -0.178319
    C   C74   0.060116  0.881866  0.148098  0.072349
    C   C75   0.051229  0.826766  0.129626  0.012325
    C   C76   0.043738  0.780093  0.113965  0.012293
    C   C77   0.034940  0.725074  0.095489  0.069391
    C   C78   0.027508  0.678457  0.079825  -0.183623
    C   C79   0.959044  0.306073  0.079751  -0.175593
    C   C80   0.951341  0.258446  0.095447  0.062531
    C   C81   0.942222  0.202245  0.113955  0.014540
    C   C82   0.934455  0.154557  0.129648  0.012641
    C   C83   0.925240  0.098267  0.148153  0.070878
    C   C84   0.917377  0.050494  0.163842  -0.173425
    C   C85   0.958609  0.305993  0.984745  -0.170397
    C   C86   0.947788  0.254105  0.969688  0.073749
    C   C87   0.934994  0.192861  0.951923  0.002003
    C   C88   0.924124  0.140938  0.936866  0.019789
    C   C89   0.911254  0.079636  0.919103  0.055478
    C   C90   0.900311  0.027656  0.904049  -0.147503
    C   C91   0.090439  0.970850  0.904050  -0.149975
    C   C92   0.079122  0.917743  0.919121  0.060549
    C   C93   0.065815  0.855126  0.936898  0.017006
    C   C94   0.054576  0.802077  0.951971  0.005435
    C   C95   0.041350  0.739521  0.969752  0.066831
    C   C96   0.030161  0.686508  0.984825  -0.161260
