# generated using pymatgen
data_ZnH15C28N3O4F
_symmetry_space_group_name_H-M   'P 1'
_cell_length_a   12.58236900
_cell_length_b   13.72410500
_cell_length_c   19.32612800
_cell_angle_alpha   89.99931800
_cell_angle_beta   102.19709700
_cell_angle_gamma   86.64301600
_symmetry_Int_Tables_number   1
_chemical_formula_structural   ZnH15C28N3O4F
_chemical_formula_sum   'Zn2 H30 C56 N6 O8 F2'
_cell_volume   3256.07663951
_cell_formula_units_Z   2
loop_
 _symmetry_equiv_pos_site_id
 _symmetry_equiv_pos_as_xyz
  1  'x, y, z'
loop_
 _atom_site_type_symbol
 _atom_site_label
 _atom_site_symmetry_multiplicity
 _atom_site_fract_x
 _atom_site_fract_y
 _atom_site_fract_z
 _atom_site_occupancy
  Zn  Zn1  1  0.38855200  0.47419600  0.48391300  1
  Zn  Zn2  1  0.62957000  0.51234400  0.51481700  1
  H  H1  1  0.35705600  0.42594200  0.69831500  1
  H  H2  1  0.35464200  0.42841600  0.82277800  1
  H  H3  1  0.67402500  0.53686900  0.86807300  1
  H  H4  1  0.67661200  0.53338900  0.74314100  1
  H  H5  1  0.32692900  0.49746100  0.25681000  1
  H  H6  1  0.67107000  0.52342100  0.29904500  1
  H  H7  1  0.66705800  0.52315600  0.17378300  1
  H  H8  1  0.73979600  0.22373500  0.46608200  1
  H  H9  1  0.72505700  0.89213600  0.43037400  1
  H  H10  1  0.77852600  0.05285200  0.44416200  1
  H  H11  1  0.43848800  0.15983900  0.51400700  1
  H  H12  1  0.28465300  0.75657800  0.53811500  1
  H  H13  1  0.34438500  0.05264100  0.53827000  1
  H  H14  1  0.23308200  0.92572500  0.55580100  1
  H  H15  1  0.60386900  0.76929900  0.44025600  1
  H  H16  1  0.25243100  0.34850700  0.38517800  1
  H  H17  1  0.88247000  0.33319000  0.37353200  1
  H  H18  1  0.06123500  0.31074300  0.35573600  1
  H  H19  1  0.19428200  0.54554500  0.53880100  1
  H  H20  1  0.75378200  0.63641900  0.61050000  1
  H  H21  1  0.08201300  0.60851000  0.59187000  1
  H  H22  1  0.75164400  0.40834100  0.43290700  1
  H  H23  1  0.85429800  0.64382500  0.72942000  1
  H  H24  1  0.90100100  0.76592100  0.82101000  1
  H  H25  1  0.10128800  0.89827800  0.70027800  1
  H  H26  1  0.05356600  0.77844900  0.60720600  1
  H  H27  1  0.24978300  0.37001500  0.15905400  1
  H  H28  1  0.06711100  0.37444300  0.08260900  1
  H  H29  1  0.12246700  0.64690900  0.99500500  1
  H  H30  1  0.30498800  0.64349700  0.07173200  1
  C  C1  1  0.46032500  0.68182700  0.50030500  1
  C  C2  1  0.51556600  0.48226900  0.63550000  1
  C  C3  1  0.55758600  0.30520300  0.49755100  1
  C  C4  1  0.50218500  0.50464300  0.36315400  1
  C  C5  1  0.42747700  0.44999800  0.73509500  1
  C  C6  1  0.42631200  0.45108200  0.80622200  1
  C  C7  1  0.51405300  0.48310500  0.85477400  1
  C  C8  1  0.60407700  0.51189900  0.83133400  1
  C  C9  1  0.60581900  0.50949000  0.76018200  1
  C  C10  1  0.51697400  0.47957600  0.71156800  1
  C  C11  1  0.49840700  0.50347300  0.06656600  1
  C  C12  1  0.51014300  0.48846600  0.93008000  1
  C  C13  1  0.39816700  0.50408600  0.16667200  1
  C  C14  1  0.40207900  0.50177900  0.23867100  1
  C  C15  1  0.49936900  0.50845700  0.28689300  1
  C  C16  1  0.59372700  0.51816400  0.26257100  1
  C  C17  1  0.59111600  0.51875800  0.19093800  1
  C  C18  1  0.49431800  0.51020000  0.14217100  1
  C  C19  1  0.70400400  0.07471000  0.46087000  1
  C  C20  1  0.58519000  0.20073500  0.49130600  1
  C  C21  1  0.33578500  0.81209200  0.52619800  1
  C  C22  1  0.30672200  0.90763700  0.53694700  1
  C  C23  1  0.37203500  0.98037400  0.52626800  1
  C  C24  1  0.46731100  0.95919400  0.50182900  1
  C  C25  1  0.49519500  0.86161100  0.48895700  1
  C  C26  1  0.53582500  0.03271900  0.49046300  1
  C  C27  1  0.63112100  0.00628900  0.46832500  1
  C  C28  1  0.65361000  0.91145500  0.45133100  1
  C  C29  1  0.58499600  0.84049900  0.45927700  1
  C  C30  1  0.51250100  0.13214400  0.49995500  1
  C  C31  1  0.68232700  0.17132300  0.47358900  1
  C  C32  1  0.43081200  0.78729000  0.50385600  1
  C  C33  1  0.08805400  0.36301500  0.39661900  1
  C  C34  1  0.81599400  0.60280300  0.58593000  1
  C  C35  1  0.92176200  0.62950500  0.60588000  1
  C  C36  1  0.00012000  0.58775300  0.57311400  1
  C  C37  1  0.97248300  0.51981200  0.51987800  1
  C  C38  1  0.86393800  0.49567500  0.50138100  1
  C  C39  1  0.04962900  0.47512700  0.48459800  1
  C  C40  1  0.01539800  0.40818000  0.43218400  1
  C  C41  1  0.90856400  0.38547900  0.41453800  1
  C  C42  1  0.83386500  0.42870500  0.44867800  1
  C  C43  1  0.16010300  0.49456700  0.49931900  1
  C  C44  1  0.19536400  0.38417100  0.41306300  1
  C  C45  1  0.95067600  0.70213200  0.66164200  1
  C  C46  1  0.90759600  0.70000300  0.72183100  1
  C  C47  1  0.93444700  0.76833600  0.77395500  1
  C  C48  1  0.00408700  0.83944600  0.76630600  1
  C  C49  1  0.04706700  0.84218700  0.70649100  1
  C  C50  1  0.02064300  0.77382700  0.65434200  1
  C  C51  1  0.29032700  0.50538800  0.11925900  1
  C  C52  1  0.22235700  0.43094100  0.12298300  1
  C  C53  1  0.11970700  0.43324600  0.07998500  1
  C  C54  1  0.08403000  0.51053100  0.03375500  1
  C  C55  1  0.15080400  0.58585600  0.03079800  1
  C  C56  1  0.25354700  0.58360700  0.07369100  1
  N  N1  1  0.58679300  0.53383800  0.97584700  1
  N  N2  1  0.58111800  0.54100500  0.04323100  1
  N  N3  1  0.42327000  0.45617000  0.02098100  1
  N  N4  1  0.42859800  0.44936400  0.95357700  1
  N  N5  1  0.22956300  0.44899600  0.46368300  1
  N  N6  1  0.78797500  0.53718500  0.53460700  1
  O  O1  1  0.38089300  0.62188600  0.48859500  1
  O  O2  1  0.56342400  0.65069800  0.51347400  1
  O  O3  1  0.42287200  0.47036500  0.59114500  1
  O  O4  1  0.60569300  0.49951300  0.61481000  1
  O  O5  1  0.45452600  0.33563900  0.48639200  1
  O  O6  1  0.63713300  0.36466100  0.51008900  1
  O  O7  1  0.41256200  0.48674400  0.38398200  1
  O  O8  1  0.59452900  0.51753300  0.40753600  1
  F  F1  1  0.03019200  0.90665200  0.81751000  1
  F  F2  1  0.98308600  0.51278300  0.99160100  1
