# Generated by REPEAT Assigner based on pymatgen
data_DB0-m2_o110_o149_f0_fsc
_audit_creation_date              2022-05-24
_audit_creation_method            REPEAT_Assigner
_cell_length_a                    16.515485
_cell_length_b                    16.691325
_cell_length_c                    17.514372
_cell_angle_alpha                 98.916934
_cell_angle_beta                  90.718361
_cell_angle_gamma                 90.068468
_cell_volume                      4769.354320
_symmetry_space_group_name_H-M    P1
_symmetry_Int_Tables_number       1
loop_
    _symmetry_equiv_pos_site_id
    _symmetry_equiv_pos_as_xyz
    1  x,y,z
loop_
    _atom_site_type_symbol
    _atom_site_label
    _atom_site_fract_x
    _atom_site_fract_y
    _atom_site_fract_z
    _atom_type_partial_charge
    O   O1   0.082988  0.074769  0.939174  -0.597427
    O   O2   0.917012  0.925231  0.060826  -0.597523
    O   O3   0.083611  0.092168  0.071071  -0.605906
    O   O4   0.916388  0.907832  0.928929  -0.605888
    C   C1   0.111048  0.111360  0.006061  0.685633
    C   C2   0.888951  0.888640  0.993939  0.685830
    O   O5   0.916499  0.074704  0.937699  -0.596093
    O   O6   0.083501  0.925296  0.062301  -0.596106
    O   O7   0.917364  0.092007  0.069586  -0.602700
    O   O8   0.082636  0.907993  0.930414  -0.602748
    C   C3   0.889258  0.111226  0.004220  0.681342
    C   C4   0.110741  0.888774  0.995780  0.681259
    Cu  Cu1  0.999627  0.990593  0.922960  0.932693
    Cu  Cu2  0.000372  0.009407  0.077040  0.932783
    H   H1   0.172769  0.210807  0.130243  0.101292
    H   H2   0.827231  0.789193  0.869757  0.101245
    C   C5   0.929857  0.018030  0.225583  -0.057449
    C   C6   0.070143  0.981970  0.774417  -0.057443
    N   N1   0.000787  0.018621  0.188088  -0.111863
    N   N2   0.999212  0.981379  0.811912  -0.111828
    C   C7   0.071572  0.017454  0.227389  -0.060218
    C   C8   0.928428  0.982546  0.772611  -0.060353
    C   C9   0.856150  0.012223  0.342174  -0.335037
    C   C10  0.143850  0.987777  0.657826  -0.335228
    C   C11  0.928706  0.014691  0.304111  0.143036
    C   C12  0.071293  0.985309  0.695889  0.143099
    C   C13  0.000431  0.012074  0.344360  -0.003515
    C   C14  0.999568  0.987926  0.655640  -0.003652
    C   C15  0.072356  0.014105  0.305964  0.145959
    C   C16  0.927643  0.985896  0.694036  0.146101
    C   C17  0.144702  0.011042  0.345931  -0.335780
    C   C18  0.855298  0.988958  0.654069  -0.335741
    C   C19  0.783425  0.003848  0.458300  -0.217223
    C   C20  0.216574  0.996152  0.541700  -0.217072
    C   C21  0.855792  0.006639  0.420177  0.206959
    C   C22  0.144208  0.993361  0.579823  0.207199
    C   C23  0.927886  0.003426  0.460161  -0.000749
    C   C24  0.072113  0.996574  0.539839  -0.001234
    C   C25  0.783212  0.997932  0.536036  -0.219466
    C   C26  0.216788  0.002069  0.463964  -0.219700
    C   C27  0.855363  0.994546  0.576055  0.206037
    C   C28  0.144637  0.005454  0.423946  0.206079
    C   C29  0.000218  0.006315  0.422222  -0.022300
    C   C30  0.999781  0.993685  0.577778  -0.021928
    C   C31  0.072331  0.002833  0.462046  0.000152
    C   C32  0.927669  0.997167  0.537954  -0.000130
    H   H3   0.873402  0.017952  0.193714  0.119511
    H   H4   0.126598  0.982048  0.806286  0.119464
    H   H5   0.799574  0.014113  0.310819  0.152712
    H   H6   0.200426  0.985887  0.689181  0.152739
    H   H7   0.201434  0.012468  0.316064  0.153033
    H   H8   0.798566  0.987533  0.683936  0.153006
    H   H9   0.726580  0.006309  0.427506  0.138779
    H   H10  0.273419  0.993691  0.572494  0.138693
    H   H11  0.726204  0.995938  0.565335  0.139511
    H   H12  0.273796  0.004063  0.434665  0.139573
    H   H13  0.128126  0.016930  0.196954  0.120496
    H   H14  0.871874  0.983070  0.803046  0.120580
    H   H15  0.421274  0.222552  0.059604  0.145263
    H   H16  0.578726  0.777449  0.940396  0.145346
    C   C33  0.757010  0.458342  0.997872  -0.307968
    C   C34  0.242990  0.541659  0.002128  -0.308095
    C   C35  0.757052  0.540642  0.997413  -0.307675
    C   C36  0.242947  0.459358  0.002587  -0.307804
    C   C37  0.676829  0.564039  0.997215  0.461923
    C   C38  0.323170  0.435962  0.002785  0.462162
    N   N3   0.627931  0.499538  0.998323  -0.586956
    N   N4   0.372068  0.500462  0.001677  -0.587151
    C   C39  0.676781  0.434999  0.998924  0.461262
    C   C40  0.323219  0.565002  0.001076  0.461456
    C   C41  0.651645  0.639819  0.994282  -0.289401
    C   C42  0.348355  0.360181  0.005718  -0.289517
    C   C43  0.565603  0.662596  0.987513  0.196231
    C   C44  0.434396  0.337404  0.012487  0.196238
    C   C45  0.541028  0.731981  0.960088  -0.229901
    C   C46  0.458971  0.268019  0.039912  -0.229752
    C   C47  0.457776  0.732280  0.961017  -0.216074
    C   C48  0.542223  0.267720  0.038983  -0.216132
    C   C49  0.434171  0.663050  0.988973  0.186340
    C   C50  0.565828  0.336950  0.011027  0.186254
    N   N5   0.500239  0.621400  0.006394  -0.159778
    N   N6   0.499760  0.378600  0.993606  -0.159762
    C   C51  0.348363  0.640681  0.997424  -0.282972
    C   C52  0.651637  0.359319  0.002576  -0.282939
    H   H17  0.810481  0.421115  0.998355  0.157822
    H   H18  0.189518  0.578885  0.001645  0.157921
    H   H19  0.810545  0.577870  0.996553  0.155866
    H   H20  0.189455  0.422130  0.003447  0.155983
    H   H21  0.419435  0.778055  0.942174  0.143142
    H   H22  0.580564  0.221946  0.057826  0.143167
    H   H23  0.500883  0.570618  0.033995  0.220004
    H   H24  0.499117  0.429383  0.966005  0.220008
    C   C53  0.254742  0.281858  0.075631  -0.204450
    C   C54  0.745257  0.718142  0.924369  -0.204561
    H   H25  0.273849  0.318064  0.129432  0.105885
    H   H26  0.726150  0.681936  0.870568  0.105906
    C   C55  0.197859  0.221110  0.075896  -0.056060
    C   C56  0.802141  0.778890  0.924104  -0.055988
    C   C57  0.172868  0.174874  0.007149  -0.111375
    C   C58  0.827131  0.825127  0.992851  -0.111479
    C   C59  0.205923  0.189683  0.938447  -0.061929
    C   C60  0.794077  0.810317  0.061553  -0.061848
    H   H27  0.187727  0.154373  0.883919  0.117165
    H   H28  0.812273  0.845627  0.116081  0.117127
    C   C61  0.263179  0.249831  0.938483  -0.264185
    C   C62  0.736820  0.750169  0.061517  -0.264250
    H   H29  0.288844  0.260870  0.884593  0.123378
    H   H30  0.711155  0.739131  0.115407  0.123383
    C   C63  0.287451  0.296325  0.006859  0.349012
    C   C64  0.712549  0.703675  0.993141  0.349114
    C   C65  0.745975  0.280423  0.072855  -0.201672
    C   C66  0.254024  0.719578  0.927145  -0.201739
    H   H31  0.727242  0.315849  0.126655  0.106592
    H   H32  0.272758  0.684151  0.873345  0.106578
    C   C67  0.802968  0.219951  0.073406  -0.057309
    C   C68  0.197031  0.780049  0.926594  -0.057301
    H   H33  0.828417  0.209087  0.128002  0.101010
    H   H34  0.171582  0.790914  0.871998  0.101055
    C   C69  0.827525  0.174640  0.004714  -0.108665
    C   C70  0.172474  0.825360  0.995286  -0.108564
    C   C71  0.793987  0.190236  0.935722  -0.060654
    C   C72  0.206012  0.809764  0.064278  -0.060662
    H   H35  0.811896  0.155706  0.881224  0.115963
    H   H36  0.188104  0.844295  0.118776  0.115953
    C   C73  0.736622  0.250169  0.935449  -0.262653
    C   C74  0.263378  0.749831  0.064551  -0.262688
    H   H37  0.710590  0.261809  0.881326  0.124121
    H   H38  0.289409  0.738192  0.118674  0.124108
    C   C75  0.712628  0.295592  0.003843  0.337317
    C   C76  0.287372  0.704408  0.996157  0.337357
