# generated using pymatgen
data_Cu3H8C48(O3F4)4
_symmetry_space_group_name_H-M   'P 1'
_cell_length_a   35.25168100
_cell_length_b   35.25168100
_cell_length_c   21.57835900
_cell_angle_alpha   90.00000000
_cell_angle_beta   90.00000000
_cell_angle_gamma   90.00000000
_symmetry_Int_Tables_number   1
_chemical_formula_structural   Cu3H8C48(O3F4)4
_chemical_formula_sum   'Cu12 H32 C192 O48 F64'
_cell_volume   26815.01702803
_cell_formula_units_Z   4
loop_
 _symmetry_equiv_pos_site_id
 _symmetry_equiv_pos_as_xyz
  1  'x, y, z'
loop_
 _atom_site_type_symbol
 _atom_site_label
 _atom_site_symmetry_multiplicity
 _atom_site_fract_x
 _atom_site_fract_y
 _atom_site_fract_z
 _atom_site_occupancy
  Cu  Cu1  1  0.00000000  0.46296100  0.50000000  1
  Cu  Cu2  1  0.46296100  0.00000000  0.50000000  1
  Cu  Cu3  1  0.00000000  0.53703900  0.50000000  1
  Cu  Cu4  1  0.53703900  0.00000000  0.50000000  1
  Cu  Cu5  1  0.50000000  0.96296100  0.00000000  1
  Cu  Cu6  1  0.96296100  0.50000000  0.00000000  1
  Cu  Cu7  1  0.50000000  0.03703900  0.00000000  1
  Cu  Cu8  1  0.03703900  0.50000000  0.00000000  1
  Cu  Cu9  1  0.50000000  0.50000000  0.43949400  1
  Cu  Cu10  1  0.50000000  0.50000000  0.56050600  1
  Cu  Cu11  1  0.00000000  0.00000000  0.93949400  1
  Cu  Cu12  1  0.00000000  0.00000000  0.06050600  1
  H  H1  1  0.94711200  0.54672500  0.36314300  1
  H  H2  1  0.54672500  0.05288800  0.36314300  1
  H  H3  1  0.05288800  0.45327500  0.36314300  1
  H  H4  1  0.45327500  0.94711200  0.36314300  1
  H  H5  1  0.05288800  0.54672500  0.63685700  1
  H  H6  1  0.45327500  0.05288800  0.63685700  1
  H  H7  1  0.94711200  0.45327500  0.63685700  1
  H  H8  1  0.54672500  0.94711200  0.63685700  1
  H  H9  1  0.44711200  0.04672500  0.86314300  1
  H  H10  1  0.04672500  0.55288800  0.86314300  1
  H  H11  1  0.55288800  0.95327500  0.86314300  1
  H  H12  1  0.95327500  0.44711200  0.86314300  1
  H  H13  1  0.55288800  0.04672500  0.13685700  1
  H  H14  1  0.95327500  0.55288800  0.13685700  1
  H  H15  1  0.44711200  0.95327500  0.13685700  1
  H  H16  1  0.04672500  0.44711200  0.13685700  1
  H  H17  1  0.38149700  0.52018200  0.59366400  1
  H  H18  1  0.52018200  0.61850300  0.59366400  1
  H  H19  1  0.61850300  0.47981800  0.59366400  1
  H  H20  1  0.47981800  0.38149700  0.59366400  1
  H  H21  1  0.61850300  0.52018200  0.40633600  1
  H  H22  1  0.47981800  0.61850300  0.40633600  1
  H  H23  1  0.38149700  0.47981800  0.40633600  1
  H  H24  1  0.52018200  0.38149700  0.40633600  1
  H  H25  1  0.88149700  0.02018200  0.09366400  1
  H  H26  1  0.02018200  0.11850300  0.09366400  1
  H  H27  1  0.11850300  0.97981800  0.09366400  1
  H  H28  1  0.97981800  0.88149700  0.09366400  1
  H  H29  1  0.11850300  0.02018200  0.90633600  1
  H  H30  1  0.97981800  0.11850300  0.90633600  1
  H  H31  1  0.88149700  0.97981800  0.90633600  1
  H  H32  1  0.02018200  0.88149700  0.90633600  1
  C  C1  1  0.07209900  0.50000000  0.50000000  1
  C  C2  1  0.50000000  0.92790200  0.50000000  1
  C  C3  1  0.92790100  0.50000000  0.50000000  1
  C  C4  1  0.50000000  0.07209900  0.50000000  1
  C  C5  1  0.57209900  0.00000000  0.00000000  1
  C  C6  1  0.00000000  0.42790100  0.00000000  1
  C  C7  1  0.42790100  0.00000000  0.00000000  1
  C  C8  1  0.00000000  0.57209900  0.00000000  1
  C  C9  1  0.00000000  0.50000000  0.38246000  1
  C  C10  1  0.50000000  0.00000000  0.38246000  1
  C  C11  1  0.00000000  0.50000000  0.61754000  1
  C  C12  1  0.50000000  0.00000000  0.61754000  1
  C  C13  1  0.50000000  0.00000000  0.88246000  1
  C  C14  1  0.00000000  0.50000000  0.88246000  1
  C  C15  1  0.50000000  0.00000000  0.11754000  1
  C  C16  1  0.00000000  0.50000000  0.11754000  1
  C  C17  1  0.94998200  0.54702500  0.31349700  1
  C  C18  1  0.54702500  0.05001800  0.31349700  1
  C  C19  1  0.05001800  0.45297500  0.31349700  1
  C  C20  1  0.45297500  0.94998200  0.31349700  1
  C  C21  1  0.05001800  0.54702500  0.68650300  1
  C  C22  1  0.45297500  0.05001800  0.68650300  1
  C  C23  1  0.94998200  0.45297500  0.68650300  1
  C  C24  1  0.54702500  0.94998200  0.68650300  1
  C  C25  1  0.44998200  0.04702500  0.81349700  1
  C  C26  1  0.04702500  0.55001800  0.81349700  1
  C  C27  1  0.55001800  0.95297500  0.81349700  1
  C  C28  1  0.95297500  0.44998200  0.81349700  1
  C  C29  1  0.55001800  0.04702500  0.18650300  1
  C  C30  1  0.95297500  0.55001800  0.18650300  1
  C  C31  1  0.44998200  0.95297500  0.18650300  1
  C  C32  1  0.04702500  0.44998200  0.18650300  1
  C  C33  1  0.92668800  0.57145800  0.28167200  1
  C  C34  1  0.57145800  0.07331200  0.28167200  1
  C  C35  1  0.07331200  0.42854200  0.28167200  1
  C  C36  1  0.42854200  0.92668800  0.28167200  1
  C  C37  1  0.07331200  0.57145800  0.71832800  1
  C  C38  1  0.42854200  0.07331200  0.71832800  1
  C  C39  1  0.92668800  0.42854200  0.71832800  1
  C  C40  1  0.57145800  0.92668800  0.71832800  1
  C  C41  1  0.42668800  0.07145800  0.78167200  1
  C  C42  1  0.07145800  0.57331200  0.78167200  1
  C  C43  1  0.57331200  0.92854200  0.78167200  1
  C  C44  1  0.92854200  0.42668800  0.78167200  1
  C  C45  1  0.57331200  0.07145800  0.21832800  1
  C  C46  1  0.92854200  0.57331200  0.21832800  1
  C  C47  1  0.42668800  0.92854200  0.21832800  1
  C  C48  1  0.07145800  0.42668800  0.21832800  1
  C  C49  1  0.97611900  0.52445700  0.21787600  1
  C  C50  1  0.52445700  0.02388100  0.21787600  1
  C  C51  1  0.02388100  0.47554300  0.21787600  1
  C  C52  1  0.47554300  0.97611900  0.21787600  1
  C  C53  1  0.02388100  0.52445700  0.78212400  1
  C  C54  1  0.47554300  0.02388100  0.78212400  1
  C  C55  1  0.97611900  0.47554300  0.78212400  1
  C  C56  1  0.52445700  0.97611900  0.78212400  1
  C  C57  1  0.47611900  0.02445700  0.71787600  1
  C  C58  1  0.02445700  0.52388100  0.71787600  1
  C  C59  1  0.52388100  0.97554300  0.71787600  1
  C  C60  1  0.97554300  0.47611900  0.71787600  1
  C  C61  1  0.52388100  0.02445700  0.28212400  1
  C  C62  1  0.97554300  0.52388100  0.28212400  1
  C  C63  1  0.47611900  0.97554300  0.28212400  1
  C  C64  1  0.02445700  0.47611900  0.28212400  1
  C  C65  1  0.00000000  0.50000000  0.18560300  1
  C  C66  1  0.50000000  0.00000000  0.18560300  1
  C  C67  1  0.00000000  0.50000000  0.81439700  1
  C  C68  1  0.50000000  0.00000000  0.81439700  1
  C  C69  1  0.50000000  0.00000000  0.68560300  1
  C  C70  1  0.00000000  0.50000000  0.68560300  1
  C  C71  1  0.50000000  0.00000000  0.31439700  1
  C  C72  1  0.00000000  0.50000000  0.31439700  1
  C  C73  1  0.32768000  0.51122900  0.55212400  1
  C  C74  1  0.51122900  0.67232000  0.55212400  1
  C  C75  1  0.67232000  0.48877100  0.55212400  1
  C  C76  1  0.48877100  0.32768000  0.55212400  1
  C  C77  1  0.67232000  0.51122900  0.44787600  1
  C  C78  1  0.48877100  0.67232000  0.44787600  1
  C  C79  1  0.32768000  0.48877100  0.44787600  1
  C  C80  1  0.51122900  0.32768000  0.44787600  1
  C  C81  1  0.82768000  0.01122900  0.05212400  1
  C  C82  1  0.01122900  0.17232000  0.05212400  1
  C  C83  1  0.17232000  0.98877100  0.05212400  1
  C  C84  1  0.98877100  0.82768000  0.05212400  1
  C  C85  1  0.17232000  0.01122900  0.94787600  1
  C  C86  1  0.98877100  0.17232000  0.94787600  1
  C  C87  1  0.82768000  0.98877100  0.94787600  1
  C  C88  1  0.01122900  0.82768000  0.94787600  1
  C  C89  1  0.36678500  0.51124500  0.55224200  1
  C  C90  1  0.51124500  0.63321500  0.55224200  1
  C  C91  1  0.63321500  0.48875500  0.55224200  1
  C  C92  1  0.48875500  0.36678500  0.55224200  1
  C  C93  1  0.63321500  0.51124500  0.44775800  1
  C  C94  1  0.48875500  0.63321500  0.44775800  1
  C  C95  1  0.36678500  0.48875500  0.44775800  1
  C  C96  1  0.51124500  0.36678500  0.44775800  1
  C  C97  1  0.86678500  0.01124500  0.05224200  1
  C  C98  1  0.01124500  0.13321500  0.05224200  1
  C  C99  1  0.13321500  0.98875500  0.05224200  1
  C  C100  1  0.98875500  0.86678500  0.05224200  1
  C  C101  1  0.13321500  0.01124500  0.94775800  1
  C  C102  1  0.98875500  0.13321500  0.94775800  1
  C  C103  1  0.86678500  0.98875500  0.94775800  1
  C  C104  1  0.01124500  0.86678500  0.94775800  1
  C  C105  1  0.38657400  0.50000000  0.50000000  1
  C  C106  1  0.50000000  0.61342600  0.50000000  1
  C  C107  1  0.61342600  0.50000000  0.50000000  1
  C  C108  1  0.50000000  0.38657400  0.50000000  1
  C  C109  1  0.88657400  0.00000000  0.00000000  1
  C  C110  1  0.00000000  0.11342600  0.00000000  1
  C  C111  1  0.11342600  0.00000000  0.00000000  1
  C  C112  1  0.00000000  0.88657400  0.00000000  1
  C  C113  1  0.30814100  0.50000000  0.50000000  1
  C  C114  1  0.50000000  0.69185900  0.50000000  1
  C  C115  1  0.69185900  0.50000000  0.50000000  1
  C  C116  1  0.50000000  0.30814100  0.50000000  1
  C  C117  1  0.80814100  0.00000000  0.00000000  1
  C  C118  1  0.00000000  0.19185900  0.00000000  1
  C  C119  1  0.19185900  0.00000000  0.00000000  1
  C  C120  1  0.00000000  0.80814100  0.00000000  1
  C  C121  1  0.26746100  0.50000000  0.50000000  1
  C  C122  1  0.50000000  0.73253900  0.50000000  1
  C  C123  1  0.73253900  0.50000000  0.50000000  1
  C  C124  1  0.50000000  0.26746100  0.50000000  1
  C  C125  1  0.76746100  0.00000000  0.00000000  1
  C  C126  1  0.00000000  0.23253900  0.00000000  1
  C  C127  1  0.23253900  0.00000000  0.00000000  1
  C  C128  1  0.00000000  0.76746100  0.00000000  1
  C  C129  1  0.23329400  0.50000000  0.50000000  1
  C  C130  1  0.50000000  0.76670600  0.50000000  1
  C  C131  1  0.76670600  0.50000000  0.50000000  1
  C  C132  1  0.50000000  0.23329400  0.50000000  1
  C  C133  1  0.73329400  0.00000000  0.00000000  1
  C  C134  1  0.00000000  0.26670600  0.00000000  1
  C  C135  1  0.26670600  0.00000000  0.00000000  1
  C  C136  1  0.00000000  0.73329400  0.00000000  1
  C  C137  1  0.17308500  0.52920100  0.52767900  1
  C  C138  1  0.52920100  0.82691500  0.52767900  1
  C  C139  1  0.82691500  0.47079900  0.52767900  1
  C  C140  1  0.47079900  0.17308500  0.52767900  1
  C  C141  1  0.82691500  0.52920100  0.47232100  1
  C  C142  1  0.47079900  0.82691500  0.47232100  1
  C  C143  1  0.17308500  0.47079900  0.47232100  1
  C  C144  1  0.52920100  0.17308500  0.47232100  1
  C  C145  1  0.67308500  0.02920100  0.02767900  1
  C  C146  1  0.02920100  0.32691500  0.02767900  1
  C  C147  1  0.32691500  0.97079900  0.02767900  1
  C  C148  1  0.97079900  0.67308500  0.02767900  1
  C  C149  1  0.32691500  0.02920100  0.97232100  1
  C  C150  1  0.97079900  0.32691500  0.97232100  1
  C  C151  1  0.67308500  0.97079900  0.97232100  1
  C  C152  1  0.02920100  0.67308500  0.97232100  1
  C  C153  1  0.13398400  0.52939400  0.52776900  1
  C  C154  1  0.52939400  0.86601600  0.52776900  1
  C  C155  1  0.86601600  0.47060600  0.52776900  1
  C  C156  1  0.47060600  0.13398400  0.52776900  1
  C  C157  1  0.86601600  0.52939400  0.47223100  1
  C  C158  1  0.47060600  0.86601600  0.47223100  1
  C  C159  1  0.13398400  0.47060600  0.47223100  1
  C  C160  1  0.52939400  0.13398400  0.47223100  1
  C  C161  1  0.63398400  0.02939400  0.02776900  1
  C  C162  1  0.02939400  0.36601600  0.02776900  1
  C  C163  1  0.36601600  0.97060600  0.02776900  1
  C  C164  1  0.97060600  0.63398400  0.02776900  1
  C  C165  1  0.36601600  0.02939400  0.97223100  1
  C  C166  1  0.97060600  0.36601600  0.97223100  1
  C  C167  1  0.63398400  0.97060600  0.97223100  1
  C  C168  1  0.02939400  0.63398400  0.97223100  1
  C  C169  1  0.11393000  0.50000000  0.50000000  1
  C  C170  1  0.50000000  0.88607000  0.50000000  1
  C  C171  1  0.88607000  0.50000000  0.50000000  1
  C  C172  1  0.50000000  0.11393000  0.50000000  1
  C  C173  1  0.61393000  0.00000000  0.00000000  1
  C  C174  1  0.00000000  0.38607000  0.00000000  1
  C  C175  1  0.38607000  0.00000000  0.00000000  1
  C  C176  1  0.00000000  0.61393000  0.00000000  1
  C  C177  1  0.19261500  0.50000000  0.50000000  1
  C  C178  1  0.50000000  0.80738500  0.50000000  1
  C  C179  1  0.80738500  0.50000000  0.50000000  1
  C  C180  1  0.50000000  0.19261500  0.50000000  1
  C  C181  1  0.69261500  0.00000000  0.00000000  1
  C  C182  1  0.00000000  0.30738500  0.00000000  1
  C  C183  1  0.30738500  0.00000000  0.00000000  1
  C  C184  1  0.00000000  0.69261500  0.00000000  1
  C  C185  1  0.50000000  0.57183700  0.50000000  1
  C  C186  1  0.57183700  0.50000000  0.50000000  1
  C  C187  1  0.50000000  0.42816300  0.50000000  1
  C  C188  1  0.42816300  0.50000000  0.50000000  1
  C  C189  1  0.00000000  0.07183700  0.00000000  1
  C  C190  1  0.07183700  0.00000000  0.00000000  1
  C  C191  1  0.00000000  0.92816300  0.00000000  1
  C  C192  1  0.92816300  0.00000000  0.00000000  1
  O  O1  1  0.05411900  0.46877700  0.48305200  1
  O  O2  1  0.46877700  0.94588100  0.48305200  1
  O  O3  1  0.94588100  0.53122300  0.48305200  1
  O  O4  1  0.53122300  0.05411900  0.48305200  1
  O  O5  1  0.94588100  0.46877700  0.51694800  1
  O  O6  1  0.53122300  0.94588100  0.51694800  1
  O  O7  1  0.05411900  0.53122300  0.51694800  1
  O  O8  1  0.46877700  0.05411900  0.51694800  1
  O  O9  1  0.55411900  0.96877700  0.98305200  1
  O  O10  1  0.96877700  0.44588100  0.98305200  1
  O  O11  1  0.44588100  0.03122300  0.98305200  1
  O  O12  1  0.03122300  0.55411900  0.98305200  1
  O  O13  1  0.44588100  0.96877700  0.01694800  1
  O  O14  1  0.03122300  0.44588100  0.01694800  1
  O  O15  1  0.55411900  0.03122300  0.01694800  1
  O  O16  1  0.96877700  0.55411900  0.01694800  1
  O  O17  1  0.98959800  0.46870200  0.41156800  1
  O  O18  1  0.46870200  0.01040200  0.41156800  1
  O  O19  1  0.01040200  0.53129800  0.41156800  1
  O  O20  1  0.53129800  0.98959800  0.41156800  1
  O  O21  1  0.01040200  0.46870200  0.58843200  1
  O  O22  1  0.53129800  0.01040200  0.58843200  1
  O  O23  1  0.98959800  0.53129800  0.58843200  1
  O  O24  1  0.46870200  0.98959800  0.58843200  1
  O  O25  1  0.48959800  0.96870200  0.91156800  1
  O  O26  1  0.96870200  0.51040200  0.91156800  1
  O  O27  1  0.51040200  0.03129800  0.91156800  1
  O  O28  1  0.03129800  0.48959800  0.91156800  1
  O  O29  1  0.51040200  0.96870200  0.08843200  1
  O  O30  1  0.03129800  0.51040200  0.08843200  1
  O  O31  1  0.48959800  0.03129800  0.08843200  1
  O  O32  1  0.96870200  0.48959800  0.08843200  1
  O  O33  1  0.48945400  0.55400300  0.44896700  1
  O  O34  1  0.55400300  0.51054600  0.44896700  1
  O  O35  1  0.51054600  0.44599700  0.44896700  1
  O  O36  1  0.44599700  0.48945400  0.44896700  1
  O  O37  1  0.51054600  0.55400300  0.55103300  1
  O  O38  1  0.44599700  0.51054600  0.55103300  1
  O  O39  1  0.48945400  0.44599700  0.55103300  1
  O  O40  1  0.55400300  0.48945400  0.55103300  1
  O  O41  1  0.98945400  0.05400300  0.94896700  1
  O  O42  1  0.05400300  0.01054600  0.94896700  1
  O  O43  1  0.01054600  0.94599700  0.94896700  1
  O  O44  1  0.94599700  0.98945400  0.94896700  1
  O  O45  1  0.01054600  0.05400300  0.05103300  1
  O  O46  1  0.94599700  0.01054600  0.05103300  1
  O  O47  1  0.98945400  0.94599700  0.05103300  1
  O  O48  1  0.05400300  0.98945400  0.05103300  1
  F  F1  1  0.09786000  0.40602100  0.31298000  1
  F  F2  1  0.40602100  0.90214000  0.31298000  1
  F  F3  1  0.90214000  0.59397900  0.31298000  1
  F  F4  1  0.59397900  0.09786000  0.31298000  1
  F  F5  1  0.90214000  0.40602100  0.68702000  1
  F  F6  1  0.59397900  0.90214000  0.68702000  1
  F  F7  1  0.09786000  0.59397900  0.68702000  1
  F  F8  1  0.40602100  0.09786000  0.68702000  1
  F  F9  1  0.59786000  0.90602100  0.81298000  1
  F  F10  1  0.90602100  0.40214000  0.81298000  1
  F  F11  1  0.40214000  0.09397900  0.81298000  1
  F  F12  1  0.09397900  0.59786000  0.81298000  1
  F  F13  1  0.40214000  0.90602100  0.18702000  1
  F  F14  1  0.09397900  0.40214000  0.18702000  1
  F  F15  1  0.59786000  0.09397900  0.18702000  1
  F  F16  1  0.90602100  0.59786000  0.18702000  1
  F  F17  1  0.30843100  0.52228300  0.60338400  1
  F  F18  1  0.52228300  0.69156900  0.60338400  1
  F  F19  1  0.69156900  0.47771700  0.60338400  1
  F  F20  1  0.47771700  0.30843100  0.60338400  1
  F  F21  1  0.69156900  0.52228300  0.39661600  1
  F  F22  1  0.47771700  0.69156900  0.39661600  1
  F  F23  1  0.30843100  0.47771700  0.39661600  1
  F  F24  1  0.52228300  0.30843100  0.39661600  1
  F  F25  1  0.80843100  0.02228300  0.10338400  1
  F  F26  1  0.02228300  0.19156900  0.10338400  1
  F  F27  1  0.19156900  0.97771700  0.10338400  1
  F  F28  1  0.97771700  0.80843100  0.10338400  1
  F  F29  1  0.19156900  0.02228300  0.89661600  1
  F  F30  1  0.97771700  0.19156900  0.89661600  1
  F  F31  1  0.80843100  0.97771700  0.89661600  1
  F  F32  1  0.02228300  0.80843100  0.89661600  1
  F  F33  1  0.19237000  0.55788600  0.55513700  1
  F  F34  1  0.55788600  0.80763000  0.55513700  1
  F  F35  1  0.80763000  0.44211400  0.55513700  1
  F  F36  1  0.44211400  0.19237000  0.55513700  1
  F  F37  1  0.80763000  0.55788600  0.44486300  1
  F  F38  1  0.44211400  0.80763000  0.44486300  1
  F  F39  1  0.19237000  0.44211400  0.44486300  1
  F  F40  1  0.55788600  0.19237000  0.44486300  1
  F  F41  1  0.69237000  0.05788600  0.05513700  1
  F  F42  1  0.05788600  0.30763000  0.05513700  1
  F  F43  1  0.30763000  0.94211400  0.05513700  1
  F  F44  1  0.94211400  0.69237000  0.05513700  1
  F  F45  1  0.30763000  0.05788600  0.94486300  1
  F  F46  1  0.94211400  0.30763000  0.94486300  1
  F  F47  1  0.69237000  0.94211400  0.94486300  1
  F  F48  1  0.05788600  0.69237000  0.94486300  1
  F  F49  1  0.11596500  0.55850500  0.55631700  1
  F  F50  1  0.55850500  0.88403500  0.55631700  1
  F  F51  1  0.88403500  0.44149500  0.55631700  1
  F  F52  1  0.44149500  0.11596500  0.55631700  1
  F  F53  1  0.88403500  0.55850500  0.44368300  1
  F  F54  1  0.44149500  0.88403500  0.44368300  1
  F  F55  1  0.11596500  0.44149500  0.44368300  1
  F  F56  1  0.55850500  0.11596500  0.44368300  1
  F  F57  1  0.61596500  0.05850500  0.05631700  1
  F  F58  1  0.05850500  0.38403500  0.05631700  1
  F  F59  1  0.38403500  0.94149500  0.05631700  1
  F  F60  1  0.94149500  0.61596500  0.05631700  1
  F  F61  1  0.38403500  0.05850500  0.94368300  1
  F  F62  1  0.94149500  0.38403500  0.94368300  1
  F  F63  1  0.61596500  0.94149500  0.94368300  1
  F  F64  1  0.05850500  0.61596500  0.94368300  1
