# generated using pymatgen
data_ZnH15C20N7O10
_symmetry_space_group_name_H-M   'P 1'
_cell_length_a   9.07047700
_cell_length_b   15.22815600
_cell_length_c   14.04400000
_cell_angle_alpha   90.00495300
_cell_angle_beta   97.81137900
_cell_angle_gamma   89.99782800
_symmetry_Int_Tables_number   1
_chemical_formula_structural   ZnH15C20N7O10
_chemical_formula_sum   'Zn2 H30 C40 N14 O20'
_cell_volume   1921.85037716
_cell_formula_units_Z   2
loop_
 _symmetry_equiv_pos_site_id
 _symmetry_equiv_pos_as_xyz
  1  'x, y, z'
loop_
 _atom_site_type_symbol
 _atom_site_label
 _atom_site_symmetry_multiplicity
 _atom_site_fract_x
 _atom_site_fract_y
 _atom_site_fract_z
 _atom_site_occupancy
  Zn  Zn1  1  0.47789100  0.50809000  0.60355200  1
  Zn  Zn2  1  0.46833000  0.50655600  0.38647900  1
  H  H1  1  0.29571700  0.06385700  0.57144900  1
  H  H2  1  0.42316600  0.95158500  0.33955700  1
  H  H3  1  0.52483000  0.63541100  0.24198200  1
  H  H4  1  0.28496900  0.44397400  0.73275500  1
  H  H5  1  0.51647900  0.64297300  0.06942000  1
  H  H6  1  0.26270300  0.44789500  0.90241500  1
  H  H7  1  0.85659400  0.46355200  0.25137000  1
  H  H8  1  0.00834600  0.41946100  0.31528700  1
  H  H9  1  0.91719800  0.40317800  0.72248200  1
  H  H10  1  0.92685400  0.35972600  0.61321900  1
  H  H11  1  0.07025600  0.18454700  0.62887900  1
  H  H12  1  0.19376500  0.22764200  0.71743700  1
  H  H13  1  0.22435100  0.70803500  0.23603500  1
  H  H14  1  0.16588200  0.75552500  0.33294500  1
  H  H15  1  0.76527300  0.26932100  0.28858000  1
  H  H16  1  0.88693700  0.20860200  0.36307000  1
  H  H17  1  0.64473400  0.77476200  0.80195700  1
  H  H18  1  0.73726400  0.80020900  0.70802000  1
  H  H19  1  0.74583000  0.01218500  0.27004400  1
  H  H20  1  0.56713800  0.04675000  0.25925500  1
  H  H21  1  0.46457000  0.99097100  0.79943500  1
  H  H22  1  0.32279700  0.95204200  0.72020300  1
  H  H23  1  0.44939300  0.26537900  0.93538300  1
  H  H24  1  0.59467800  0.30621000  0.01031300  1
  H  H25  1  0.89548800  0.52358400  0.04312400  1
  H  H26  1  0.78859500  0.57249900  0.11620400  1
  H  H27  1  0.31800900  0.22792400  0.19060200  1
  H  H28  1  0.46201600  0.24214500  0.27726200  1
  H  H29  1  0.91002700  0.52367800  0.82339800  1
  H  H30  1  0.94096400  0.62996600  0.79278100  1
  C  C1  1  0.47497900  0.33556000  0.49960700  1
  C  C2  1  0.46840900  0.68036300  0.49084600  1
  C  C3  1  0.18084600  0.50687700  0.47636000  1
  C  C4  1  0.76511500  0.50723700  0.51338200  1
  C  C5  1  0.01624300  0.51434400  0.46003600  1
  C  C6  1  0.92969600  0.50396700  0.53004100  1
  C  C7  1  0.37650100  0.10151400  0.53883600  1
  C  C8  1  0.44775300  0.91582800  0.40615900  1
  C  C9  1  0.37295600  0.19194300  0.54091600  1
  C  C10  1  0.43288400  0.82553200  0.40616500  1
  C  C11  1  0.47728000  0.23932200  0.49825900  1
  C  C12  1  0.46036800  0.77839200  0.49221700  1
  C  C13  1  0.58115600  0.19559100  0.45073700  1
  C  C14  1  0.48690100  0.82645000  0.57866000  1
  C  C15  1  0.57478200  0.10429600  0.44258300  1
  C  C16  1  0.49287800  0.91745000  0.57684700  1
  C  C17  1  0.47594400  0.05794000  0.48989400  1
  C  C18  1  0.47751200  0.96181400  0.49073400  1
  C  C19  1  0.42738600  0.43051100  0.09088400  1
  C  C20  1  0.59525200  0.54642700  0.90764800  1
  C  C21  1  0.41594500  0.43101100  0.18851900  1
  C  C22  1  0.59934200  0.54960400  0.80883700  1
  C  C23  1  0.49558500  0.57713400  0.20000400  1
  C  C24  1  0.37217000  0.47448800  0.78149100  1
  C  C25  1  0.49524600  0.58078600  0.10195000  1
  C  C26  1  0.36213500  0.47390600  0.87844400  1
  C  C27  1  0.46834700  0.50602900  0.04693800  1
  C  C28  1  0.47594300  0.50800400  0.94288700  1
  C  C29  1  0.94950200  0.53654500  0.36194600  1
  C  C30  1  0.99620700  0.48461400  0.62866200  1
  C  C31  1  0.25406400  0.23513700  0.58551300  1
  C  C32  1  0.37577700  0.78421600  0.31404200  1
  C  C33  1  0.70450200  0.24614300  0.41812300  1
  C  C34  1  0.51521500  0.78538600  0.67413200  1
  C  C35  1  0.67942800  0.05381100  0.39302200  1
  C  C36  1  0.51566200  0.96775100  0.66717100  1
  C  C37  1  0.39455200  0.35061100  0.03358500  1
  C  C38  1  0.71563400  0.58465500  0.97546000  1
  C  C39  1  0.35685900  0.35300500  0.23139000  1
  C  C40  1  0.72625400  0.59271500  0.77294300  1
  N  N1  1  0.45794300  0.50284000  0.24298800  1
  N  N2  1  0.48784300  0.51279400  0.74696100  1
  N  N3  1  0.96387400  0.47776400  0.28477400  1
  N  N4  1  0.98317100  0.39877000  0.66736700  1
  N  N5  1  0.18325500  0.18918500  0.65533500  1
  N  N6  1  0.25519800  0.72336700  0.30846200  1
  N  N7  1  0.77420300  0.21808600  0.33842700  1
  N  N8  1  0.64156700  0.81243200  0.73960100  1
  N  N9  1  0.67530300  0.06045600  0.29125400  1
  N  N10  1  0.43613100  0.94516500  0.74469900  1
  N  N11  1  0.49376300  0.32246200  0.96910500  1
  N  N12  1  0.78544300  0.53401300  0.05445400  1
  N  N13  1  0.41042300  0.26752100  0.21239000  1
  N  N14  1  0.87208900  0.58815000  0.82567200  1
  O  O1  1  0.47568700  0.37645200  0.58211100  1
  O  O2  1  0.46991800  0.63817800  0.40911000  1
  O  O3  1  0.47380300  0.37655100  0.41735900  1
  O  O4  1  0.47369400  0.63793000  0.57211300  1
  O  O5  1  0.25442800  0.50638600  0.56386300  1
  O  O6  1  0.69184600  0.50819000  0.42586500  1
  O  O7  1  0.24864500  0.50693700  0.39963700  1
  O  O8  1  0.69749100  0.50633600  0.59017200  1
  O  O9  1  0.88364500  0.60594400  0.34607800  1
  O  O10  1  0.06075700  0.54224400  0.67807200  1
  O  O11  1  0.20845100  0.30763100  0.55908400  1
  O  O12  1  0.41818500  0.81019300  0.24026100  1
  O  O13  1  0.75139100  0.31190500  0.46154900  1
  O  O14  1  0.41987000  0.74011500  0.70332500  1
  O  O15  1  0.75767900  0.99811000  0.43706000  1
  O  O16  1  0.59989100  0.03053600  0.67541700  1
  O  O17  1  0.27765900  0.31162300  0.03569700  1
  O  O18  1  0.75358900  0.66065200  0.96600900  1
  O  O19  1  0.25726300  0.36083300  0.28085700  1
  O  O20  1  0.70613200  0.63727800  0.70059600  1
