# generated using pymatgen
data_Fe2H21C50ClO16
_symmetry_space_group_name_H-M   'P 1'
_cell_length_a   14.38205700
_cell_length_b   15.62480500
_cell_length_c   13.44979800
_cell_angle_alpha   94.26935700
_cell_angle_beta   92.96946400
_cell_angle_gamma   64.33274300
_symmetry_Int_Tables_number   1
_chemical_formula_structural   Fe2H21C50ClO16
_chemical_formula_sum   'Fe2 H21 C50 Cl1 O16'
_cell_volume   2715.95770447
_cell_formula_units_Z   1
loop_
 _symmetry_equiv_pos_site_id
 _symmetry_equiv_pos_as_xyz
  1  'x, y, z'
loop_
 _atom_site_type_symbol
 _atom_site_label
 _atom_site_symmetry_multiplicity
 _atom_site_fract_x
 _atom_site_fract_y
 _atom_site_fract_z
 _atom_site_occupancy
  Fe  Fe1  1  0.50430300  0.00271600  0.16277200  1
  Fe  Fe2  1  0.50624200  0.00272300  0.73483200  1
  H  H1  1  0.20247600  0.91282000  0.74877700  1
  H  H2  1  0.07568300  0.90065800  0.84573500  1
  H  H3  1  0.94172600  0.04587000  0.87148700  1
  H  H4  1  0.78571600  0.04816200  0.79818900  1
  H  H5  1  0.28198300  0.95721600  0.17413600  1
  H  H6  1  0.15261800  0.94816700  0.26923100  1
  H  H7  1  0.99371800  0.94534000  0.28369700  1
  H  H8  1  0.83595800  0.95091200  0.21553900  1
  H  H9  1  0.42844200  0.09835800  0.45095500  1
  H  H10  1  0.18446600  0.30237400  0.28937500  1
  H  H11  1  0.19034300  0.33010000  0.60852000  1
  H  H12  1  0.95127900  0.62179800  0.33322800  1
  H  H13  1  0.84616000  0.49887600  0.54797800  1
  H  H14  1  0.01420700  0.36310100  0.55162700  1
  H  H15  1  0.76605800  0.65565200  0.28178500  1
  H  H16  1  0.54949900  0.89242100  0.45371200  1
  H  H17  1  0.79736600  0.67495400  0.59920600  1
  H  H18  1  0.06299900  0.51496900  0.18903500  1
  H  H19  1  0.19796700  0.53082100  0.09880200  1
  H  H20  1  0.37845200  0.49574900  0.36686500  1
  H  H21  1  0.24343400  0.48133300  0.45821100  1
  C  C1  1  0.27704800  0.95576400  0.87169900  1
  C  C2  1  0.20367500  0.92919300  0.82814700  1
  C  C3  1  0.12791600  0.92566800  0.88376000  1
  C  C4  1  0.90051300  0.01729600  0.91291100  1
  C  C5  1  0.28171300  0.96586400  0.97568200  1
  C  C6  1  0.20572800  0.95924100  0.03150700  1
  C  C7  1  0.12076900  0.95155500  0.98494200  1
  C  C8  1  0.03675200  0.96064800  0.04244700  1
  C  C9  1  0.80824000  0.02363600  0.87255400  1
  C  C10  1  0.74786300  0.99477100  0.92408100  1
  C  C11  1  0.93726500  0.97728200  0.00400600  1
  C  C12  1  0.86719500  0.96537200  0.06327400  1
  C  C13  1  0.77288300  0.97191900  0.02233400  1
  C  C14  1  0.21480600  0.95909500  0.13427300  1
  C  C15  1  0.14132100  0.95230000  0.18933400  1
  C  C16  1  0.05263600  0.95431300  0.14456100  1
  C  C17  1  0.97983400  0.95090800  0.20416000  1
  C  C18  1  0.88961700  0.95308200  0.16402400  1
  C  C19  1  0.69542100  0.96209400  0.08235600  1
  C  C20  1  0.60264900  0.82883700  0.26732300  1
  C  C21  1  0.35789900  0.99408100  0.02736500  1
  C  C22  1  0.35172100  0.13158400  0.27667300  1
  C  C23  1  0.64167700  0.84844800  0.62591900  1
  C  C24  1  0.65988000  0.98622800  0.87238000  1
  C  C25  1  0.36265800  0.16312900  0.63280600  1
  C  C26  1  0.34946400  0.96717400  0.80516700  1
  C  C27  1  0.31455400  0.19842100  0.36269400  1
  C  C28  1  0.22396400  0.28040700  0.36005700  1
  C  C29  1  0.18044200  0.33020900  0.44846000  1
  C  C30  1  0.22567400  0.29390100  0.53923200  1
  C  C31  1  0.31603200  0.21095100  0.54099300  1
  C  C32  1  0.36058700  0.16553400  0.45235500  1
  C  C33  1  0.06239400  0.48885800  0.38391500  1
  C  C34  1  0.96472000  0.56312000  0.37861600  1
  C  C35  1  0.88687000  0.56760100  0.43763900  1
  C  C36  1  0.90632900  0.49620000  0.50114000  1
  C  C37  1  0.00208200  0.41998800  0.50409400  1
  C  C38  1  0.08101900  0.41534700  0.44611500  1
  C  C39  1  0.73586200  0.69076200  0.35311200  1
  C  C40  1  0.64909700  0.77700300  0.35721800  1
  C  C41  1  0.61413700  0.82298400  0.44889800  1
  C  C42  1  0.66597500  0.78567200  0.53561800  1
  C  C43  1  0.75293500  0.70049900  0.53155400  1
  C  C44  1  0.78790300  0.65241400  0.44056200  1
  C  C45  1  0.14509500  0.49478900  0.32926500  1
  C  C46  1  0.13216100  0.51051600  0.22863300  1
  C  C47  1  0.20811300  0.51922600  0.17765400  1
  C  C48  1  0.29679600  0.51343900  0.22714500  1
  C  C49  1  0.30939800  0.49927000  0.32778100  1
  C  C50  1  0.23364800  0.49036100  0.37886200  1
  Cl  Cl1  1  0.39286200  0.52516800  0.16249200  1
  O  O1  1  0.59774900  0.02360100  0.07471500  1
  O  O2  1  0.61685500  0.78496000  0.17845900  1
  O  O3  1  0.72240200  0.88990500  0.13873300  1
  O  O4  1  0.55617300  0.92215900  0.27853700  1
  O  O5  1  0.43562400  0.93345700  0.07956000  1
  O  O6  1  0.33980700  0.08411700  0.03253400  1
  O  O7  1  0.41993800  0.13571900  0.21835100  1
  O  O8  1  0.34858700  0.04961000  0.28201000  1
  O  O9  1  0.55444100  0.87083200  0.67071000  1
  O  O10  1  0.68678200  0.90566000  0.63961300  1
  O  O11  1  0.60873300  0.04418900  0.80280100  1
  O  O12  1  0.63981400  0.91374200  0.88666500  1
  O  O13  1  0.34501400  0.94723000  0.70904200  1
  O  O14  1  0.45419800  0.09109700  0.62564800  1
  O  O15  1  0.41560300  0.00015300  0.83937700  1
  O  O16  1  0.30961600  0.18192600  0.71454100  1
