# generated using pymatgen
data_ZnH10C16SNO4
_symmetry_space_group_name_H-M   'P 1'
_cell_length_a   13.10157500
_cell_length_b   13.48447500
_cell_length_c   8.56419700
_cell_angle_alpha   90.00000000
_cell_angle_beta   93.37811100
_cell_angle_gamma   90.00000000
_symmetry_Int_Tables_number   1
_chemical_formula_structural   ZnH10C16SNO4
_chemical_formula_sum   'Zn2 H20 C32 S2 N2 O8'
_cell_volume   1510.38935905
_cell_formula_units_Z   2
loop_
 _symmetry_equiv_pos_site_id
 _symmetry_equiv_pos_as_xyz
  1  'x, y, z'
loop_
 _atom_site_type_symbol
 _atom_site_label
 _atom_site_symmetry_multiplicity
 _atom_site_fract_x
 _atom_site_fract_y
 _atom_site_fract_z
 _atom_site_occupancy
  Zn  Zn1  1  0.49680100  0.11175500  0.50524700  1
  Zn  Zn2  1  0.48952700  0.88735700  0.50144400  1
  H  H1  1  0.83840700  0.02158100  0.78560400  1
  H  H2  1  0.99591600  0.05592700  0.16307100  1
  H  H3  1  0.98902300  0.95434000  0.84268500  1
  H  H4  1  0.14601800  0.98821900  0.22073900  1
  H  H5  1  0.83436100  0.02596600  0.28519300  1
  H  H6  1  0.56544100  0.95849400  0.00652600  1
  H  H7  1  0.15067700  0.98137100  0.72094800  1
  H  H8  1  0.42288600  0.03248500  0.00070100  1
  H  H9  1  0.64856100  0.75439300  0.51449500  1
  H  H10  1  0.65789000  0.24971700  0.52037800  1
  H  H11  1  0.24336100  0.40894300  0.47721400  1
  H  H12  1  0.24034000  0.58321200  0.48120500  1
  H  H13  1  0.66104400  0.57848300  0.51714900  1
  H  H14  1  0.66406200  0.42639700  0.51990300  1
  H  H15  1  0.23520500  0.18729900  0.75182500  1
  H  H16  1  0.21843400  0.31728700  0.70612700  1
  H  H17  1  0.34462300  0.26885100  0.75982700  1
  H  H18  1  0.22888900  0.80940100  0.20888600  1
  H  H19  1  0.21244000  0.67894600  0.24900300  1
  H  H20  1  0.33868200  0.72857500  0.22170300  1
  C  C1  1  0.69236800  0.99647900  0.15928200  1
  C  C2  1  0.79577000  0.01564700  0.17128100  1
  C  C3  1  0.85068100  0.01605800  0.03800400  1
  C  C4  1  0.79908100  0.01090100  0.89159700  1
  C  C5  1  0.69519700  0.99278500  0.88113200  1
  C  C6  1  0.64486500  0.97816800  0.01517000  1
  C  C7  1  0.96261500  0.02356600  0.05630000  1
  C  C8  1  0.02247300  0.98699900  0.94912500  1
  C  C9  1  0.18963100  0.98951200  0.83504300  1
  C  C10  1  0.29400100  0.00265000  0.84752700  1
  C  C11  1  0.34244200  0.01737800  0.99176100  1
  C  C12  1  0.29103500  0.00688700  0.12547100  1
  C  C13  1  0.18607000  0.99567600  0.11478300  1
  C  C14  1  0.13454000  0.99189200  0.96812900  1
  C  C15  1  0.62965600  0.99848500  0.29460700  1
  C  C16  1  0.35228000  0.00354400  0.27373800  1
  C  C17  1  0.35646500  0.00051100  0.71214800  1
  C  C18  1  0.63366300  0.99563900  0.73298200  1
  C  C19  1  0.40071600  0.70448500  0.49167900  1
  C  C20  1  0.40839200  0.29253300  0.49975800  1
  C  C21  1  0.57900400  0.71112400  0.50822400  1
  C  C22  1  0.58694900  0.29084400  0.51441300  1
  C  C23  1  0.58533400  0.60922000  0.50986600  1
  C  C24  1  0.58948700  0.39313900  0.51377100  1
  C  C25  1  0.49710900  0.55196700  0.50284200  1
  C  C26  1  0.49917000  0.44772500  0.50473800  1
  C  C27  1  0.40397000  0.60139700  0.49390200  1
  C  C28  1  0.40793300  0.39554600  0.49696700  1
  C  C29  1  0.31610900  0.44630900  0.48650400  1
  C  C30  1  0.31418300  0.54779400  0.48667700  1
  C  C31  1  0.27000400  0.25263500  0.69713400  1
  C  C32  1  0.26339900  0.74386200  0.26942900  1
  S  S1  1  0.28983700  0.22582500  0.49320100  1
  S  S2  1  0.28116600  0.76914800  0.47755800  1
  N  N1  1  0.48797100  0.75728100  0.49924800  1
  N  N2  1  0.49750600  0.24191800  0.50758100  1
  O  O1  1  0.59323700  0.91336700  0.34212600  1
  O  O2  1  0.60091700  0.08575200  0.34639600  1
  O  O3  1  0.39011400  0.08668500  0.32958200  1
  O  O4  1  0.38273500  0.91698400  0.32765000  1
  O  O5  1  0.39316400  0.08543700  0.66498500  1
  O  O6  1  0.38485300  0.91342300  0.65986500  1
  O  O7  1  0.59565200  0.91227100  0.67752000  1
  O  O8  1  0.60352700  0.08230200  0.67870300  1
