data_DB0-m3_o12_o23_f0_pcu.sym.39_repeat
_audit_creation_date              2024-02-23
_audit_creation_method            'Materials Studio'
_symmetry_space_group_name_H-M    'P1'
_symmetry_Int_Tables_number       1
_symmetry_cell_setting            triclinic
loop_
_symmetry_equiv_pos_as_xyz
  x,y,z
_cell_length_a                    10.0153
_cell_length_b                    11.3478
_cell_length_c                    15.9564
_cell_angle_alpha                 89.9818
_cell_angle_beta                  80.7085
_cell_angle_gamma                 92.4275
loop_
_atom_site_label
_atom_site_type_symbol
_atom_site_fract_x
_atom_site_fract_y
_atom_site_fract_z
_atom_site_U_iso_or_equiv
_atom_site_adp_type
_atom_site_occupancy
O1     O     0.42160   0.68977   0.50827   0.00000  Uiso   1.00
O2     O     0.65179   0.66124   0.48301   0.00000  Uiso   1.00
C1     C     0.54837   0.72983   0.49445   0.00000  Uiso   1.00
O3     O     0.38742   0.51519   0.63649   0.00000  Uiso   1.00
O4     O     0.61747   0.48700   0.61138   0.00000  Uiso   1.00
C2     C     0.50317   0.50104   0.66277   0.00000  Uiso   1.00
Zn1    Zn    0.34743   0.52039   0.51612   0.00000  Uiso   1.00
Zn2    Zn    0.65047   0.48279   0.48276   0.00000  Uiso   1.00
O5     O     0.34646   0.34161   0.51585   0.00000  Uiso   1.00
O6     O     0.57580   0.31391   0.49065   0.00000  Uiso   1.00
O7     O     0.38045   0.51628   0.38749   0.00000  Uiso   1.00
O8     O     0.61051   0.48813   0.36239   0.00000  Uiso   1.00
C3     C     0.45005   0.27256   0.50440   0.00000  Uiso   1.00
C4     C     0.49478   0.50240   0.33610   0.00000  Uiso   1.00
C5     C     0.39271   0.58265   0.96152   0.00000  Uiso   1.00
C6     C     0.63731   0.54840   0.93913   0.00000  Uiso   1.00
C7     C     0.63573   0.54411   0.03424   0.00000  Uiso   1.00
H1     H     0.41655   0.67545   0.07613   0.00000  Uiso   1.00
H2     H     0.41828   0.67334   0.93638   0.00000  Uiso   1.00
H3     H     0.71912   0.49362   0.90686   0.00000  Uiso   1.00
H4     H     0.65685   0.64069   0.91605   0.00000  Uiso   1.00
H5     H     0.66155   0.63331   0.05687   0.00000  Uiso   1.00
H6     H     0.71204   0.48236   0.04866   0.00000  Uiso   1.00
C8     C     0.49363   0.50263   0.24629   0.00000  Uiso   1.00
C9     C     0.50148   0.50176   0.92005   0.00000  Uiso   1.00
C10    C     0.39106   0.58443   0.05684   0.00000  Uiso   1.00
C11    C     0.49615   0.50245   0.07885   0.00000  Uiso   1.00
C12    C     0.46372   0.37849   0.05047   0.00000  Uiso   1.00
C13    C     0.47656   0.37661   0.95464   0.00000  Uiso   1.00
C14    C     0.49418   0.50262   0.17072   0.00000  Uiso   1.00
C15    C     0.50368   0.50123   0.82816   0.00000  Uiso   1.00
C16    C     0.50433   0.50100   0.75258   0.00000  Uiso   1.00
H7     H     0.38383   0.33514   0.93578   0.00000  Uiso   1.00
H8     H     0.56338   0.32298   0.92832   0.00000  Uiso   1.00
H9     H     0.35900   0.35034   0.07937   0.00000  Uiso   1.00
H10    H     0.28982   0.55721   0.09211   0.00000  Uiso   1.00
H11    H     0.53527   0.31670   0.07094   0.00000  Uiso   1.00
H12    H     0.37828   0.90903   0.51235   0.00000  Uiso   1.00
C17    C     0.57970   0.85711   0.49119   0.00000  Uiso   1.00
C18    C     0.48436   0.93743   0.50120   0.00000  Uiso   1.00
H13    H     0.31798   0.11111   0.51833   0.00000  Uiso   1.00
C19    C     0.42275   0.14349   0.50735   0.00000  Uiso   1.00
C20    C     0.52105   0.06527   0.49724   0.00000  Uiso   1.00
H14    H     0.68604   0.88371   0.47990   0.00000  Uiso   1.00
H15    H     0.11604   0.43337   0.44306   0.00000  Uiso   1.00
H16    H     0.88183   0.56936   0.55581   0.00000  Uiso   1.00
N1     N     0.84934   0.45687   0.46026   0.00000  Uiso   1.00
C21    C     0.92576   0.51046   0.50642   0.00000  Uiso   1.00
H17    H     0.10071   0.60074   0.58419   0.00000  Uiso   1.00
N2     N     0.14845   0.54582   0.53866   0.00000  Uiso   1.00
C22    C     0.07207   0.49221   0.49249   0.00000  Uiso   1.00
H18    H     0.89704   0.40194   0.41472   0.00000  Uiso   1.00
N3     N     0.26051   0.54593   0.94137   0.00000  Uiso   1.00
H19    H     0.22122   0.47274   0.97830   0.00000  Uiso   1.00
H20    H     0.19584   0.61503   0.95758   0.00000  Uiso   1.00
N4     N     0.66049   0.10471   0.48285   0.00000  Uiso   1.00
H21    H     0.70737   0.07294   0.53171   0.00000  Uiso   1.00
H22    H     0.70683   0.07305   0.42435   0.00000  Uiso   1.00
