# generated using pymatgen
data_Cu2H3C20O8F9
_symmetry_space_group_name_H-M   'P 1'
_cell_length_a   30.24339300
_cell_length_b   21.41394800
_cell_length_c   21.42950300
_cell_angle_alpha   90.00000000
_cell_angle_beta   134.88199600
_cell_angle_gamma   90.00000000
_symmetry_Int_Tables_number   1
_chemical_formula_structural   Cu2H3C20O8F9
_chemical_formula_sum   'Cu12 H18 C120 O48 F54'
_cell_volume   9833.70040539
_cell_formula_units_Z   6
loop_
 _symmetry_equiv_pos_site_id
 _symmetry_equiv_pos_as_xyz
  1  'x, y, z'
loop_
 _atom_site_type_symbol
 _atom_site_label
 _atom_site_symmetry_multiplicity
 _atom_site_fract_x
 _atom_site_fract_y
 _atom_site_fract_z
 _atom_site_occupancy
  Cu  Cu1  1  0.00101900  0.50096500  0.06421400  1
  Cu  Cu2  1  0.49999400  0.00038400  0.06216300  1
  Cu  Cu3  1  0.00121600  0.50128200  0.93998300  1
  Cu  Cu4  1  0.50049400  0.99912900  0.93827900  1
  Cu  Cu5  1  0.93760100  0.00049100  0.93815400  1
  Cu  Cu6  1  0.43673500  0.50012900  0.93623300  1
  Cu  Cu7  1  0.06199100  0.00182100  0.06156700  1
  Cu  Cu8  1  0.56116900  0.49942400  0.06017200  1
  Cu  Cu9  1  0.50056300  0.56237400  0.49915100  1
  Cu  Cu10  1  0.50124000  0.43784900  0.50022700  1
  Cu  Cu11  1  0.00067000  0.06244300  0.50086900  1
  Cu  Cu12  1  0.99941900  0.93793100  0.49836800  1
  H  H1  1  0.90829600  0.78878700  0.96397900  1
  H  H2  1  0.90506800  0.21332200  0.95825200  1
  H  H3  1  0.40281200  0.28753000  0.95138400  1
  H  H4  1  0.40848000  0.71211600  0.96603700  1
  H  H5  1  0.90955100  0.71263700  0.85660000  1
  H  H6  1  0.90760400  0.29013500  0.85260300  1
  H  H7  1  0.40895000  0.21116800  0.84914400  1
  H  H8  1  0.40710100  0.78853100  0.85622300  1
  H  H9  1  0.28869700  0.40721500  0.34461400  1
  H  H10  1  0.28941200  0.59315600  0.34249400  1
  H  H11  1  0.78817600  0.92238900  0.36107600  1
  H  H12  1  0.78764300  0.10415200  0.32124100  1
  H  H13  1  0.78683300  0.50121700  0.89569700  1
  H  H14  1  0.28698600  0.02273600  0.89202000  1
  H  H15  1  0.07745800  0.92748400  0.28880600  1
  H  H16  1  0.02675200  0.10635300  0.23869400  1
  H  H17  1  0.54622400  0.40261800  0.25687300  1
  H  H18  1  0.55929500  0.58806200  0.26934900  1
  C  C1  1  0.12088300  0.50047600  0.12154500  1
  C  C2  1  0.62003300  0.00082000  0.11999700  1
  C  C3  1  0.00221000  0.62095400  0.00350300  1
  C  C4  1  0.00038300  0.38133100  0.00106400  1
  C  C5  1  0.49952700  0.11957300  0.99880800  1
  C  C6  1  0.50131800  0.87994400  0.00200300  1
  C  C7  1  0.88141600  0.50221600  0.88275600  1
  C  C8  1  0.38051000  0.99881800  0.88055100  1
  C  C9  1  0.05171800  0.73119000  0.02484900  1
  C  C10  1  0.04943600  0.27119300  0.02187800  1
  C  C11  1  0.54977600  0.22974200  0.02240300  1
  C  C12  1  0.54985500  0.76971000  0.02137400  1
  C  C13  1  0.00177800  0.77158500  0.94628900  1
  C  C14  1  0.99976700  0.23103600  0.94284900  1
  C  C15  1  0.50121500  0.27010900  0.94292700  1
  C  C16  1  0.49914600  0.72945800  0.94324900  1
  C  C17  1  0.00112900  0.81201600  0.00319700  1
  C  C18  1  0.99842800  0.19029100  0.99883000  1
  C  C19  1  0.49796100  0.31064200  0.99709000  1
  C  C20  1  0.49989900  0.68891100  0.00145900  1
  C  C21  1  0.05106100  0.77170300  0.08184200  1
  C  C22  1  0.04809600  0.23042000  0.07794900  1
  C  C23  1  0.54651500  0.27033400  0.07663500  1
  C  C24  1  0.55060900  0.72910700  0.07968600  1
  C  C25  1  0.00100900  0.73088000  0.05998800  1
  C  C26  1  0.99783900  0.27112000  0.05561400  1
  C  C27  1  0.49526500  0.22962600  0.05138200  1
  C  C28  1  0.50134500  0.76994700  0.05998300  1
  C  C29  1  0.95034100  0.77152500  0.98110300  1
  C  C30  1  0.94740700  0.23066700  0.97623600  1
  C  C31  1  0.44592700  0.27023500  0.97151700  1
  C  C32  1  0.44991500  0.72939900  0.98156100  1
  C  C33  1  0.95101000  0.73042500  0.92324500  1
  C  C34  1  0.94876100  0.27213000  0.91928400  1
  C  C35  1  0.44921900  0.22898500  0.91643400  1
  C  C36  1  0.44916500  0.77061900  0.92236100  1
  C  C37  1  0.00166900  0.69038300  0.00308700  1
  C  C38  1  0.99918900  0.31192400  0.99963400  1
  C  C39  1  0.49851300  0.18899700  0.99722700  1
  C  C40  1  0.50061500  0.81053200  0.00177600  1
  C  C41  1  0.23082800  0.44926900  0.20349700  1
  C  C42  1  0.23126500  0.54907000  0.20241800  1
  C  C43  1  0.73044100  0.94672200  0.21324700  1
  C  C44  1  0.73022800  0.04429200  0.19194900  1
  C  C45  1  0.27163500  0.49856600  0.21477800  1
  C  C46  1  0.77106100  0.98953500  0.21540100  1
  C  C47  1  0.31185400  0.49926800  0.31250500  1
  C  C48  1  0.81098900  0.00190600  0.31171400  1
  C  C49  1  0.27164300  0.44898300  0.30224000  1
  C  C50  1  0.27204400  0.55077400  0.30106800  1
  C  C51  1  0.77091400  0.95819600  0.31073000  1
  C  C52  1  0.77075000  0.05770000  0.28900700  1
  C  C53  1  0.23099900  0.50048200  0.28875400  1
  C  C54  1  0.72983900  0.01367800  0.28600500  1
  C  C55  1  0.19030100  0.49978500  0.19081700  1
  C  C56  1  0.68944500  0.00138100  0.18947500  1
  C  C57  1  0.77168800  0.55158400  0.74396900  1
  C  C58  1  0.77225600  0.45199800  0.74404900  1
  C  C59  1  0.27087500  0.04072000  0.73159500  1
  C  C60  1  0.27068500  0.94360900  0.75362500  1
  C  C61  1  0.73177300  0.50170900  0.67425800  1
  C  C62  1  0.23025400  0.98566100  0.67367900  1
  C  C63  1  0.69003300  0.50118300  0.68956500  1
  C  C64  1  0.18913900  0.99858900  0.68859800  1
  C  C65  1  0.73008600  0.55094100  0.75943000  1
  C  C66  1  0.73065900  0.45160400  0.75951600  1
  C  C67  1  0.22988700  0.05349800  0.74661500  1
  C  C68  1  0.22963800  0.95664400  0.76859800  1
  C  C69  1  0.77087100  0.50135600  0.83057900  1
  C  C70  1  0.27052900  0.01175200  0.82781600  1
  C  C71  1  0.81205900  0.50187700  0.81364900  1
  C  C72  1  0.31115300  0.99865400  0.81142100  1
  C  C73  1  0.99936200  0.00011600  0.87970500  1
  C  C74  1  0.49897900  0.50091300  0.87854700  1
  C  C75  1  0.00059400  0.88140200  0.00249700  1
  C  C76  1  0.99903000  0.12090600  0.99926900  1
  C  C77  1  0.49831900  0.38003200  0.99765900  1
  C  C78  1  0.49960900  0.61953000  0.00074100  1
  C  C79  1  0.00019600  0.00206100  0.11998500  1
  C  C80  1  0.49891200  0.49932000  0.11785700  1
  C  C81  1  0.49969800  0.49968200  0.37884100  1
  C  C82  1  0.99954100  0.00134900  0.37946400  1
  C  C83  1  0.38120800  0.49946800  0.38142400  1
  C  C84  1  0.88033900  0.00135300  0.38085800  1
  C  C85  1  0.49987400  0.50051200  0.61833300  1
  C  C86  1  0.99908200  0.99902600  0.61833300  1
  C  C87  1  0.62060100  0.50078500  0.62001800  1
  C  C88  1  0.11974400  0.99902000  0.61963400  1
  C  C89  1  0.02120800  0.05242300  0.79096300  1
  C  C90  1  0.03433400  0.95336500  0.80472100  1
  C  C91  1  0.52877200  0.55039900  0.79818600  1
  C  C92  1  0.52752900  0.45048500  0.79704900  1
  C  C93  1  0.55726100  0.50003200  0.78597300  1
  C  C94  1  0.05640200  0.00645900  0.78555100  1
  C  C95  1  0.49985800  0.50071300  0.68764000  1
  C  C96  1  0.99929000  0.99853900  0.68785600  1
  C  C97  1  0.47136700  0.55107800  0.69985200  1
  C  C98  1  0.47011900  0.45116600  0.69871800  1
  C  C99  1  0.96407800  0.04452200  0.69328800  1
  C  C100  1  0.97722900  0.94545900  0.70701100  1
  C  C101  1  0.94199800  0.99148000  0.71237900  1
  C  C102  1  0.44162300  0.50152700  0.71087400  1
  C  C103  1  0.99911700  0.99938500  0.81012400  1
  C  C104  1  0.49902500  0.50084500  0.80925200  1
  C  C105  1  0.04218000  0.96113700  0.27105500  1
  C  C106  1  0.01444600  0.05911200  0.24369300  1
  C  C107  1  0.52467400  0.44635800  0.25281300  1
  C  C108  1  0.53180500  0.54790700  0.25962700  1
  C  C109  1  0.55618600  0.49527200  0.32472400  1
  C  C110  1  0.05494800  0.01760500  0.32483900  1
  C  C111  1  0.49923500  0.49945600  0.30902900  1
  C  C112  1  0.99967300  0.00177400  0.31027900  1
  C  C113  1  0.46707800  0.45156500  0.23663400  1
  C  C114  1  0.47409300  0.55112400  0.24329900  1
  C  C115  1  0.98602300  0.94611200  0.25576400  1
  C  C116  1  0.95876300  0.04214100  0.22892900  1
  C  C117  1  0.94490900  0.98646700  0.17440100  1
  C  C118  1  0.44176200  0.50324000  0.17089200  1
  C  C119  1  0.00045000  0.00231200  0.18956400  1
  C  C120  1  0.49904400  0.49907100  0.18731700  1
  O  O1  1  0.09171300  0.49798300  0.14615700  1
  O  O2  1  0.59069400  0.00376900  0.14433000  1
  O  O3  1  0.09190400  0.49821500  0.03888900  1
  O  O4  1  0.59119200  0.99717700  0.03746300  1
  O  O5  1  0.99931500  0.59176800  0.05426200  1
  O  O6  1  0.99800800  0.41022300  0.05263200  1
  O  O7  1  0.49679500  0.09107600  0.05012700  1
  O  O8  1  0.49851500  0.90953600  0.05271400  1
  O  O9  1  0.99952600  0.59205400  0.94700700  1
  O  O10  1  0.99815100  0.41048800  0.94503000  1
  O  O11  1  0.49755700  0.08995600  0.94330100  1
  O  O12  1  0.49863300  0.90838600  0.94524600  1
  O  O13  1  0.91029300  0.49927400  0.96541100  1
  O  O14  1  0.40929200  0.00205200  0.96315000  1
  O  O15  1  0.91045700  0.49958800  0.85781900  1
  O  O16  1  0.40974500  0.99605600  0.85590600  1
  O  O17  1  0.94562700  0.99758500  0.85541700  1
  O  O18  1  0.44511700  0.49807400  0.85386000  1
  O  O19  1  0.05331800  0.00334300  0.96221400  1
  O  O20  1  0.55284800  0.49804900  0.96113900  1
  O  O21  1  0.94652500  0.90976300  0.94510800  1
  O  O22  1  0.94551800  0.09132100  0.94335400  1
  O  O23  1  0.44459900  0.40930200  0.94145600  1
  O  O24  1  0.44575100  0.59085800  0.94326800  1
  O  O25  1  0.05408100  0.91096000  0.05239500  1
  O  O26  1  0.05307100  0.09251100  0.04946400  1
  O  O27  1  0.55231000  0.40871300  0.04812000  1
  O  O28  1  0.55319400  0.59026400  0.05087700  1
  O  O29  1  0.94640300  0.99836700  0.03759300  1
  O  O30  1  0.44513300  0.49741900  0.03529400  1
  O  O31  1  0.05381800  0.00530100  0.14413500  1
  O  O32  1  0.55265400  0.49619800  0.14236900  1
  O  O33  1  0.50265200  0.55368200  0.41053500  1
  O  O34  1  0.50364800  0.44594200  0.41188000  1
  O  O35  1  0.00306800  0.05495100  0.41244900  1
  O  O36  1  0.00187400  0.94717600  0.41020100  1
  O  O37  1  0.40989800  0.55339900  0.40681400  1
  O  O38  1  0.41047900  0.44582500  0.40735100  1
  O  O39  1  0.90987600  0.05488800  0.40794700  1
  O  O40  1  0.90880100  0.94732000  0.40577400  1
  O  O41  1  0.50308800  0.55420700  0.59239600  1
  O  O42  1  0.50329800  0.44664400  0.59295800  1
  O  O43  1  0.00278000  0.05304500  0.59358400  1
  O  O44  1  0.00169800  0.94549400  0.59143200  1
  O  O45  1  0.59133000  0.55447000  0.58709000  1
  O  O46  1  0.59192700  0.44672900  0.58841500  1
  O  O47  1  0.09129700  0.05319500  0.58888100  1
  O  O48  1  0.09024000  0.94542400  0.58663100  1
  F  F1  1  0.00273700  0.79404100  0.88679200  1
  F  F2  1  0.00124400  0.20901300  0.88373600  1
  F  F3  1  0.50484500  0.29241300  0.88614300  1
  F  F4  1  0.49852000  0.70715000  0.88211800  1
  F  F5  1  0.20915600  0.50153900  0.32767700  1
  F  F6  1  0.70763500  0.02648800  0.32307700  1
  F  F7  1  0.71180300  0.50193300  0.59310900  1
  F  F8  1  0.20933000  0.97204500  0.59338600  1
  F  F9  1  0.79361200  0.60470500  0.73647100  1
  F  F10  1  0.79475900  0.39939400  0.73663500  1
  F  F11  1  0.29283000  0.08555000  0.71259400  1
  F  F12  1  0.29255300  0.88540300  0.75815500  1
  F  F13  1  0.70762100  0.60375600  0.76653800  1
  F  F14  1  0.70882800  0.39825100  0.76676200  1
  F  F15  1  0.20841800  0.11195400  0.74216600  1
  F  F16  1  0.20746200  0.91159300  0.78701500  1
  F  F17  1  0.61818500  0.49925400  0.82550900  1
  F  F18  1  0.11669600  0.01427000  0.82408500  1
  F  F19  1  0.04441400  0.10882000  0.83511500  1
  F  F20  1  0.07136800  0.90525500  0.86341800  1
  F  F21  1  0.55966100  0.60275900  0.85055000  1
  F  F22  1  0.55711700  0.39740800  0.84818600  1
  F  F23  1  0.44168600  0.60420900  0.64886100  1
  F  F24  1  0.43911900  0.39875600  0.64650700  1
  F  F25  1  0.92696100  0.09264500  0.63467100  1
  F  F26  1  0.95396600  0.88896100  0.66309200  1
  F  F27  1  0.88144700  0.98359000  0.67284500  1
  F  F28  1  0.38043800  0.50232600  0.67032400  1
  F  F29  1  0.61659900  0.49105900  0.40689600  1
  F  F30  1  0.11299600  0.03402800  0.40543200  1
  F  F31  1  0.10449900  0.70987000  0.04710500  1
  F  F32  1  0.10258300  0.29257800  0.04519600  1
  F  F33  1  0.60387100  0.20833400  0.04843900  1
  F  F34  1  0.60188000  0.79099100  0.04157700  1
  F  F35  1  0.43241700  0.40180300  0.22413700  1
  F  F36  1  0.44667200  0.60542300  0.23751400  1
  F  F37  1  0.97005800  0.88722900  0.26090200  1
  F  F38  1  0.91451000  0.08366400  0.20673800  1
  F  F39  1  0.88639300  0.96982800  0.09469400  1
  F  F40  1  0.38089800  0.50745300  0.08935700  1
  F  F41  1  0.10318000  0.79325900  0.16503100  1
  F  F42  1  0.09986500  0.20865700  0.16122700  1
  F  F43  1  0.59717600  0.29193200  0.16065600  1
  F  F44  1  0.60348600  0.70744800  0.16225800  1
  F  F45  1  0.00112500  0.70929900  0.12088700  1
  F  F46  1  0.99740800  0.29235000  0.11609100  1
  F  F47  1  0.49266800  0.20824800  0.10959800  1
  F  F48  1  0.50305800  0.79147100  0.12246900  1
  F  F49  1  0.29379500  0.49754900  0.17629100  1
  F  F50  1  0.79352600  0.97683800  0.17867000  1
  F  F51  1  0.20881700  0.39677200  0.15121800  1
  F  F52  1  0.20968200  0.60080700  0.14899400  1
  F  F53  1  0.70889600  0.88912100  0.17228400  1
  F  F54  1  0.70851300  0.08857900  0.12874600  1
