# generated using pymatgen
data_Zn2H20C31(NO4)2
_symmetry_space_group_name_H-M   'P 1'
_cell_length_a   9.77993700
_cell_length_b   10.94598400
_cell_length_c   13.62351500
_cell_angle_alpha   89.99618400
_cell_angle_beta   74.56785300
_cell_angle_gamma   90.00396900
_symmetry_Int_Tables_number   1
_chemical_formula_structural   Zn2H20C31(NO4)2
_chemical_formula_sum   'Zn2 H20 C31 N2 O8'
_cell_volume   1405.83016848
_cell_formula_units_Z   1
loop_
 _symmetry_equiv_pos_site_id
 _symmetry_equiv_pos_as_xyz
  1  'x, y, z'
loop_
 _atom_site_type_symbol
 _atom_site_label
 _atom_site_symmetry_multiplicity
 _atom_site_fract_x
 _atom_site_fract_y
 _atom_site_fract_z
 _atom_site_occupancy
  Zn  Zn1  1  0.34774500  0.49679600  0.50233800  1
  Zn  Zn2  1  0.65897500  0.49910100  0.50100900  1
  H  H1  1  0.82174200  0.40329700  0.18081400  1
  H  H2  1  0.78783800  0.33016300  0.85426900  1
  H  H3  1  0.86695100  0.35259700  0.00151800  1
  H  H4  1  0.42026800  0.54754000  0.18167300  1
  H  H5  1  0.19031700  0.59707800  0.81537100  1
  H  H6  1  0.28571500  0.60029700  0.09661400  1
  H  H7  1  0.12904900  0.64387400  0.99543400  1
  H  H8  1  0.61876200  0.36307100  0.76010700  1
  H  H9  1  0.72293500  0.88502800  0.49449600  1
  H  H10  1  0.72487600  0.10570200  0.49987700  1
  H  H11  1  0.28362600  0.11084600  0.50994800  1
  H  H12  1  0.28163900  0.89017700  0.50452800  1
  H  H13  1  0.90772100  0.36412600  0.39310500  1
  H  H14  1  0.09555200  0.63031400  0.61152700  1
  H  H15  1  0.84358000  0.63885500  0.61483300  1
  H  H16  1  0.13142700  0.23739600  0.38303300  1
  H  H17  1  0.28891400  0.32466300  0.37000500  1
  H  H18  1  0.13076400  0.44469000  0.24242000  1
  H  H19  1  0.29606600  0.20502000  0.19764600  1
  H  H20  1  0.24618600  0.31122600  0.10478300  1
  C  C1  1  0.50107600  0.73711700  0.49733200  1
  C  C2  1  0.42748000  0.50227700  0.70156400  1
  C  C3  1  0.50557200  0.25870100  0.50671400  1
  C  C4  1  0.57939600  0.49243200  0.30224100  1
  C  C5  1  0.76883900  0.39771100  0.03955200  1
  C  C6  1  0.61602500  0.47821500  0.19119600  1
  C  C7  1  0.26164000  0.56883600  0.85952400  1
  C  C8  1  0.22732800  0.59683000  0.96110900  1
  C  C9  1  0.31930200  0.57057500  0.01881000  1
  C  C10  1  0.44650500  0.50943900  0.97682600  1
  C  C11  1  0.47845200  0.47654800  0.87397400  1
  C  C12  1  0.54269900  0.48061500  0.03455000  1
  C  C13  1  0.66849800  0.42192800  0.98752000  1
  C  C14  1  0.69352100  0.38239500  0.88885000  1
  C  C15  1  0.59781100  0.40548300  0.83385700  1
  C  C16  1  0.51711700  0.50656200  0.13833300  1
  C  C17  1  0.74383000  0.42707000  0.14073400  1
  C  C18  1  0.38839200  0.51199700  0.81389400  1
  C  C19  1  0.62559000  0.93350400  0.49778800  1
  C  C20  1  0.62683700  0.05940800  0.50112800  1
  C  C21  1  0.50450100  0.12464600  0.50558600  1
  C  C22  1  0.38094600  0.06233400  0.50665100  1
  C  C23  1  0.37968200  0.93643100  0.50332600  1
  C  C24  1  0.50204700  0.87118200  0.49878800  1
  C  C25  1  0.94964800  0.42412400  0.44102900  1
  C  C26  1  0.09145900  0.41935900  0.43763500  1
  C  C27  1  0.05548600  0.57077600  0.56230000  1
  C  C28  1  0.91357800  0.57595000  0.56412400  1
  C  C29  1  0.17935000  0.32931000  0.36515600  1
  C  C30  1  0.18122200  0.36162900  0.25844600  1
  C  C31  1  0.24523200  0.28821800  0.18233100  1
  N  N1  1  0.14399300  0.49260600  0.49953400  1
  N  N2  1  0.86262100  0.50236700  0.50315800  1
  O  O1  1  0.38190200  0.67956200  0.50037000  1
  O  O2  1  0.61956500  0.68029900  0.49611000  1
  O  O3  1  0.32581400  0.50204800  0.65455300  1
  O  O4  1  0.56229600  0.50389900  0.65211000  1
  O  O5  1  0.38785500  0.31570400  0.50730300  1
  O  O6  1  0.62391600  0.31644300  0.50450000  1
  O  O7  1  0.44478100  0.49464600  0.35118800  1
  O  O8  1  0.68081200  0.49350200  0.34887800  1
