# Generated by REPEAT Assigner based on pymatgen
data_DB0-m3_o1490_o22_f0_fsc.sym.74
_audit_creation_date              2022-05-24
_audit_creation_method            REPEAT_Assigner
_cell_length_a                    8.554048
_cell_length_b                    9.110656
_cell_length_c                    10.731800
_cell_angle_alpha                 97.854154
_cell_angle_beta                  90.008404
_cell_angle_gamma                 90.095549
_cell_volume                      828.514222
_symmetry_space_group_name_H-M    P1
_symmetry_Int_Tables_number       1
loop_
    _symmetry_equiv_pos_site_id
    _symmetry_equiv_pos_as_xyz
    1  x,y,z
loop_
    _atom_site_type_symbol
    _atom_site_label
    _atom_site_fract_x
    _atom_site_fract_y
    _atom_site_fract_z
    _atom_type_partial_charge
    C   C1   0.999467  0.939057  0.308577  -0.028415
    C   C2   0.859851  0.957199  0.249668  -0.031249
    C   C3   0.857753  0.983516  0.127021  -0.097933
    C   C4   0.138473  0.957024  0.248311  -0.334085
    C   C5   0.137636  0.975765  0.122096  0.675952
    C   C6   0.996408  0.984783  0.059355  -0.342292
    C   C7   0.997452  0.003540  0.932550  0.436531
    C   C8   0.860148  0.004681  0.862883  -0.356161
    C   C9   0.864194  0.036373  0.741647  -0.009983
    N   N1   0.273809  0.986532  0.061170  -0.657385
    C   C10  0.277319  0.005137  0.938843  0.297430
    C   C11  0.139826  0.015612  0.872745  -0.207006
    C   C12  0.142906  0.039718  0.747654  -0.106356
    C   C13  0.004997  0.059251  0.686170  -0.098256
    H   H1   0.000067  0.923389  0.406324  0.100136
    H   H2   0.007859  0.078664  0.589340  0.099628
    H   H3   0.745142  0.006460  0.089944  0.119005
    H   H4   0.747116  0.978676  0.897634  0.179291
    H   H5   0.389147  0.014489  0.893795  0.050607
    O   O1   0.667454  0.103618  0.365939  -0.573659
    O   O2   0.661831  0.850664  0.363877  -0.631798
    C   C14  0.717262  0.970083  0.324449  0.625009
    O   O3   0.669976  0.891407  0.624316  -0.677611
    O   O4   0.667588  0.145043  0.626447  -0.716748
    C   C15  0.722753  0.024649  0.664771  0.812550
    O   O5   0.333073  0.892098  0.627483  -0.670297
    O   O6   0.340065  0.146508  0.630725  -0.699964
    C   C16  0.285022  0.026517  0.670869  0.812703
    O   O7   0.330896  0.104515  0.368955  -0.664191
    O   O8   0.334671  0.850352  0.365715  -0.637607
    C   C17  0.280684  0.970445  0.325590  0.783739
    Zn  Zn1  0.499557  0.833690  0.497292  0.965433
    Zn  Zn2  0.501334  0.162513  0.496185  0.947334
    C   C18  0.586914  0.600997  0.603279  -0.009661
    H   H6   0.550594  0.670283  0.691578  0.031303
    H   H7   0.713444  0.616926  0.586999  0.008132
    C   C19  0.558586  0.440142  0.618013  0.069440
    H   H8   0.669659  0.398321  0.651067  0.024343
    H   H9   0.469534  0.433758  0.692188  0.012477
    H   H10  0.296802  0.611348  0.606205  0.060439
    H   H11  0.261102  0.364543  0.543257  0.032399
    C   C20  0.341260  0.579113  0.509318  -0.213451
    C   C21  0.567250  0.562190  0.383853  -0.104283
    N   N2   0.497312  0.640155  0.497844  0.240857
    H   H12  0.491832  0.573452  0.301642  0.038445
    H   H13  0.684441  0.607051  0.369997  0.085776
    N   N3   0.503397  0.356741  0.499723  0.059319
    C   C22  0.345913  0.410837  0.481277  0.109122
    C   C23  0.593241  0.399835  0.394750  0.448552
    H   H14  0.552222  0.333296  0.306432  -0.005264
    H   H15  0.259590  0.621014  0.442470  0.074148
    H   H16  0.310916  0.378632  0.382249  0.014953
    N   N4   0.758549  0.375995  0.409161  -0.798300
    C   C24  0.844580  0.372508  0.303117  0.863085
    O   O9   0.786993  0.409065  0.208043  -0.622069
    C   C25  0.012026  0.329760  0.302158  -0.601581
    H   H17  0.802693  0.324916  0.481178  0.338147
    H   H18  0.046053  0.297228  0.394126  0.139475
    H   H19  0.082985  0.425513  0.281686  0.146248
    H   H20  0.031364  0.235810  0.227064  0.193596
