# generated using pymatgen
data_ZnH7C18N3O4
_symmetry_space_group_name_H-M   'P 1'
_cell_length_a   14.06991900
_cell_length_b   14.06636800
_cell_length_c   15.20101800
_cell_angle_alpha   89.98855500
_cell_angle_beta   90.00487500
_cell_angle_gamma   85.32336500
_symmetry_Int_Tables_number   1
_chemical_formula_structural   ZnH7C18N3O4
_chemical_formula_sum   'Zn2 H14 C36 N6 O8'
_cell_volume   2998.45774973
_cell_formula_units_Z   2
loop_
 _symmetry_equiv_pos_site_id
 _symmetry_equiv_pos_as_xyz
  1  'x, y, z'
loop_
 _atom_site_type_symbol
 _atom_site_label
 _atom_site_symmetry_multiplicity
 _atom_site_fract_x
 _atom_site_fract_y
 _atom_site_fract_z
 _atom_site_occupancy
  Zn  Zn1  1  0.60819300  0.50029300  0.50205100  1
  Zn  Zn2  1  0.39197500  0.49693600  0.50034600  1
  H  H1  1  0.64983500  0.45262200  0.06131300  1
  H  H2  1  0.35844000  0.45174200  0.94114000  1
  H  H3  1  0.65167700  0.45608300  0.22022500  1
  H  H4  1  0.35590800  0.45532800  0.78224700  1
  H  H5  1  0.35324200  0.54224600  0.22215300  1
  H  H6  1  0.63969400  0.54317400  0.78023600  1
  H  H7  1  0.35205600  0.54527100  0.06357600  1
  H  H8  1  0.64043200  0.54608300  0.93879400  1
  H  H9  1  0.07196800  0.41533000  0.38178900  1
  H  H10  1  0.92467900  0.62922000  0.57646300  1
  H  H11  1  0.23742800  0.57562100  0.61390600  1
  H  H12  1  0.76613300  0.37725500  0.42966400  1
  H  H13  1  0.06640300  0.57445500  0.62264000  1
  H  H14  1  0.93795600  0.36685900  0.43160000  1
  C  C1  1  0.50283200  0.49871400  0.32904500  1
  C  C2  1  0.49745500  0.49888000  0.67335900  1
  C  C3  1  0.51897600  0.31225300  0.50147200  1
  C  C4  1  0.48104800  0.68496300  0.50076600  1
  C  C5  1  0.47214800  0.78730200  0.50062000  1
  C  C6  1  0.52792800  0.20991300  0.50176100  1
  C  C7  1  0.46046400  0.97582400  0.50033500  1
  C  C8  1  0.53970100  0.02138800  0.50235500  1
  C  C9  1  0.53375600  0.12395700  0.50203400  1
  C  C10  1  0.46637700  0.87325700  0.50050500  1
  C  C11  1  0.58445300  0.47468500  0.09549500  1
  C  C12  1  0.42004700  0.47420000  0.90693800  1
  C  C13  1  0.58552800  0.47578700  0.18623000  1
  C  C14  1  0.41873500  0.47535700  0.81620500  1
  C  C15  1  0.50259500  0.49909600  0.23265200  1
  C  C16  1  0.49765300  0.49921900  0.76975500  1
  C  C17  1  0.41885400  0.52243800  0.18736800  1
  C  C18  1  0.57744900  0.52299100  0.81501800  1
  C  C19  1  0.41809200  0.52324000  0.09672200  1
  C  C20  1  0.57812400  0.52371600  0.90566600  1
  C  C21  1  0.50075700  0.49879900  0.04974100  1
  C  C22  1  0.49964000  0.49879100  0.95266900  1
  C  C23  1  0.10562900  0.44969400  0.43555100  1
  C  C24  1  0.89279500  0.57088300  0.54501700  1
  C  C25  1  0.20377000  0.44705900  0.43568600  1
  C  C26  1  0.79480800  0.57129600  0.54699800  1
  C  C27  1  0.20031500  0.53958800  0.56319000  1
  C  C28  1  0.80178100  0.43236300  0.46262300  1
  C  C29  1  0.10234100  0.54013800  0.56703300  1
  C  C30  1  0.90005800  0.42764000  0.46261800  1
  C  C31  1  0.05295800  0.49611100  0.50187900  1
  C  C32  1  0.94743900  0.49823700  0.50309000  1
  C  C33  1  0.63143600  0.96824300  0.50486600  1
  C  C34  1  0.36874100  0.02899000  0.49790000  1
  C  C35  1  0.25526700  0.39231500  0.36888400  1
  C  C36  1  0.74193600  0.64446900  0.59668100  1
  N  N1  1  0.25000500  0.49363000  0.49812700  1
  N  N2  1  0.75018000  0.50340900  0.50441800  1
  N  N3  1  0.70526400  0.92555000  0.50689200  1
  N  N4  1  0.29492300  0.07170900  0.49594600  1
  N  N5  1  0.29616000  0.34765100  0.31495400  1
  N  N6  1  0.69996100  0.70357000  0.63718400  1
  O  O1  1  0.58470500  0.49865500  0.37055000  1
  O  O2  1  0.41573200  0.49717400  0.63184200  1
  O  O3  1  0.42065500  0.49870900  0.36978900  1
  O  O4  1  0.57949700  0.50049100  0.63263100  1
  O  O5  1  0.59685800  0.35759800  0.50224200  1
  O  O6  1  0.40314300  0.63964700  0.50140300  1
  O  O7  1  0.43286300  0.35548700  0.50047400  1
  O  O8  1  0.56716200  0.64170900  0.50027100  1
