# generated using pymatgen
data_Cu3H19C23O12
_symmetry_space_group_name_H-M   'P 1'
_cell_length_a   18.93115000
_cell_length_b   18.68711800
_cell_length_c   18.91241100
_cell_angle_alpha   108.77866900
_cell_angle_beta   110.43704100
_cell_angle_gamma   108.97430700
_symmetry_Int_Tables_number   1
_chemical_formula_structural   Cu3H19C23O12
_chemical_formula_sum   'Cu6 H38 C46 O24'
_cell_volume   5163.63270170
_cell_formula_units_Z   2
loop_
 _symmetry_equiv_pos_site_id
 _symmetry_equiv_pos_as_xyz
  1  'x, y, z'
loop_
 _atom_site_type_symbol
 _atom_site_label
 _atom_site_symmetry_multiplicity
 _atom_site_fract_x
 _atom_site_fract_y
 _atom_site_fract_z
 _atom_site_occupancy
  Cu  Cu1  1  0.49706600  0.42943700  0.43190800  1
  Cu  Cu2  1  0.49912200  0.54895600  0.55766200  1
  Cu  Cu3  1  0.94448900  0.43472400  0.00803700  1
  Cu  Cu4  1  0.06446200  0.55756800  0.00690400  1
  Cu  Cu5  1  0.94119800  0.99679400  0.45058500  1
  Cu  Cu6  1  0.06412500  0.99122800  0.56304200  1
  H  H1  1  0.12157400  0.45924600  0.26673100  1
  H  H2  1  0.28860300  0.60006300  0.39454400  1
  H  H3  1  0.30529900  0.63613700  0.26551700  1
  H  H4  1  0.37902500  0.52805600  0.24123000  1
  H  H5  1  0.19521500  0.35030300  0.24241800  1
  H  H6  1  0.74422500  0.73736100  0.37022100  1
  H  H7  1  0.84243600  0.80090000  0.56486400  1
  H  H8  1  0.65229700  0.60398000  0.37102800  1
  H  H9  1  0.70582900  0.74525700  0.54757500  1
  H  H10  1  0.88921700  0.62421900  0.85371200  1
  H  H11  1  0.75039600  0.44148800  0.79053400  1
  H  H12  1  0.75150500  0.62361800  0.76257200  1
  H  H13  1  0.70278400  0.43534800  0.65429400  1
  H  H14  1  0.15990000  0.18488800  0.44641200  1
  H  H15  1  0.34738400  0.38305400  0.62078500  1
  H  H16  1  0.29648300  0.23232100  0.45190200  1
  H  H17  1  0.99254800  0.73312700  0.37190900  1
  H  H18  1  0.97250200  0.81271400  0.25256600  1
  H  H19  1  0.95059000  0.60351200  0.23623700  1
  H  H20  1  0.04451600  0.74858400  0.20680500  1
  H  H21  1  0.87519000  0.11685600  0.64275400  1
  H  H22  1  0.07237200  0.21601200  0.76058700  1
  H  H23  1  0.88328100  0.21266900  0.77850500  1
  H  H24  1  0.05644500  0.33598700  0.80817000  1
  H  H25  1  0.25032300  0.19816600  0.66529700  1
  H  H26  1  0.40977600  0.37190600  0.74435200  1
  H  H27  1  0.40193100  0.26784800  0.68845800  1
  H  H28  1  0.39008400  0.29516900  0.78262400  1
  H  H29  1  0.27592000  0.38110800  0.71047000  1
  H  H30  1  0.26471000  0.32669000  0.77275100  1
  H  H31  1  0.17526300  0.28469800  0.66666667  1
  H  H32  1  0.20756800  0.39943500  0.04879900  1
  H  H33  1  0.27625500  0.31223700  0.14719400  1
  H  H34  1  0.33548400  0.38969400  0.12326600  1
  H  H35  1  0.24968300  0.28272600  0.03667300  1
  H  H36  1  0.11527400  0.25514200  0.08158200  1
  H  H37  1  0.09780600  0.24725800  0.97862400  1
  H  H38  1  0.06792400  0.31338600  0.04122000  1
  C  C1  1  0.60915000  0.61012900  0.49211900  1
  C  C2  1  0.37582000  0.48963400  0.38041000  1
  C  C3  1  0.38748900  0.36834700  0.49829400  1
  C  C4  1  0.62327700  0.49155100  0.60882800  1
  C  C5  1  0.27046500  0.55153900  0.32976300  1
  C  C6  1  0.18048900  0.47444100  0.26123000  1
  C  C7  1  0.19189300  0.49412300  0.19316700  1
  C  C8  1  0.28078100  0.57119400  0.26070000  1
  C  C9  1  0.31943800  0.51180100  0.24555400  1
  C  C10  1  0.22962700  0.43518200  0.17814400  1
  C  C11  1  0.21899600  0.41480000  0.24622200  1
  C  C12  1  0.30781900  0.49211600  0.31345700  1
  C  C13  1  0.75446500  0.73942300  0.43107000  1
  C  C14  1  0.82704700  0.80313300  0.50506800  1
  C  C15  1  0.69037400  0.66715000  0.42886600  1
  C  C16  1  0.67392900  0.68039600  0.49356200  1
  C  C17  1  0.82714700  0.56488100  0.81215600  1
  C  C18  1  0.81491000  0.49673100  0.82474800  1
  C  C19  1  0.75403200  0.56383100  0.74889700  1
  C  C20  1  0.69494500  0.49225800  0.67266100  1
  C  C21  1  0.25603700  0.24767700  0.57680100  1
  C  C22  1  0.17963600  0.18288000  0.50653600  1
  C  C23  1  0.31240800  0.31676700  0.56847200  1
  C  C24  1  0.32632400  0.29897600  0.50180200  1
  C  C25  1  0.00566800  0.61359800  0.12572500  1
  C  C26  1  0.12376600  0.49494700  0.12456000  1
  C  C27  1  0.00326300  0.37914700  0.88864400  1
  C  C28  1  0.88467700  0.49769500  0.89112500  1
  C  C29  1  0.00702500  0.10597200  0.62970400  1
  C  C30  1  0.89079800  0.87403000  0.50619500  1
  C  C31  1  0.99509100  0.87892200  0.38394600  1
  C  C32  1  0.11549400  0.11441600  0.50839200  1
  C  C33  1  0.98820300  0.73989600  0.31596900  1
  C  C34  1  0.98635800  0.80935500  0.31167500  1
  C  C35  1  0.97780300  0.66801600  0.24369600  1
  C  C36  1  0.00931400  0.68282300  0.19378300  1
  C  C37  1  0.93774000  0.16861400  0.69835200  1
  C  C38  1  0.01005500  0.17015000  0.70192000  1
  C  C39  1  0.93956300  0.23181800  0.77097600  1
  C  C40  1  0.00429700  0.31386500  0.82107600  1
  C  C41  1  0.27916500  0.26044300  0.66641500  1
  C  C42  1  0.37652500  0.30180600  0.72378600  1
  C  C43  1  0.24680200  0.31707100  0.70665700  1
  C  C44  1  0.20609100  0.36848400  0.08979000  1
  C  C45  1  0.27112100  0.33630900  0.10012800  1
  C  C46  1  0.11609400  0.29136100  0.04530000  1
  O  O1  1  0.57908800  0.52905900  0.43621400  1
  O  O2  1  0.58525400  0.63233800  0.54907400  1
  O  O3  1  0.40174600  0.43488200  0.35363200  1
  O  O4  1  0.40275500  0.53737500  0.46240700  1
  O  O5  1  0.41005200  0.34606400  0.43984600  1
  O  O6  1  0.41816500  0.44948900  0.55436100  1
  O  O7  1  0.58842200  0.43558300  0.52716200  1
  O  O8  1  0.59134800  0.53996700  0.63596200  1
  O  O9  1  0.95574400  0.53177800  0.10003000  1
  O  O10  1  0.05933100  0.63783700  0.09867800  1
  O  O11  1  0.04300200  0.44448600  0.09904200  1
  O  O12  1  0.14695800  0.54585100  0.09308900  1
  O  O13  1  0.95425700  0.35441200  0.92051600  1
  O  O14  1  0.05819300  0.46067100  0.91980300  1
  O  O15  1  0.86210400  0.44652200  0.92207300  1
  O  O16  1  0.96557800  0.54767200  0.91596000  1
  O  O17  1  0.93743800  0.06315100  0.55160500  1
  O  O18  1  0.07536700  0.09492800  0.64638100  1
  O  O19  1  0.86570000  0.88942200  0.44081400  1
  O  O20  1  0.97074200  0.91933100  0.57298200  1
  O  O21  1  0.96398200  0.92914000  0.36720800  1
  O  O22  1  0.03319500  0.88811200  0.46213800  1
  O  O23  1  0.03606400  0.10324800  0.47789700  1
  O  O24  1  0.13821400  0.06408300  0.53550200  1
