# generated using pymatgen
data_Fe2H20C42O17
_symmetry_space_group_name_H-M   'P 1'
_cell_length_a   15.70797300
_cell_length_b   14.35203900
_cell_length_c   13.27876600
_cell_angle_alpha   87.06122900
_cell_angle_beta   87.07910500
_cell_angle_gamma   114.19386200
_symmetry_Int_Tables_number   1
_chemical_formula_structural   Fe2H20C42O17
_chemical_formula_sum   'Fe2 H20 C42 O17'
_cell_volume   2718.52508412
_cell_formula_units_Z   1
loop_
 _symmetry_equiv_pos_site_id
 _symmetry_equiv_pos_as_xyz
  1  'x, y, z'
loop_
 _atom_site_type_symbol
 _atom_site_label
 _atom_site_symmetry_multiplicity
 _atom_site_fract_x
 _atom_site_fract_y
 _atom_site_fract_z
 _atom_site_occupancy
  Fe  Fe1  1  0.50782500  0.99881200  0.16713500  1
  Fe  Fe2  1  0.50270600  0.99244700  0.71816600  1
  H  H1  1  0.91238200  0.98742700  0.78620300  1
  H  H2  1  0.16893500  0.96927900  0.78958500  1
  H  H3  1  0.02210600  0.95726600  0.82905000  1
  H  H4  1  0.77155700  0.98753100  0.74070700  1
  H  H5  1  0.22576800  0.97368300  0.14947600  1
  H  H6  1  0.07126500  0.96257600  0.18992100  1
  H  H7  1  0.92332600  0.96257900  0.23026900  1
  H  H8  1  0.77993400  0.96456700  0.18354500  1
  H  H9  1  0.48942700  0.35166300  0.25641600  1
  H  H10  1  0.51001700  0.36105300  0.57677300  1
  H  H11  1  0.46340500  0.61161700  0.62947100  1
  H  H12  1  0.43007300  0.61099500  0.31147900  1
  H  H13  1  0.51696200  0.10926400  0.42468800  1
  H  H14  1  0.44189700  0.86456000  0.47227300  1
  H  H15  1  0.41776100  0.44750400  0.54314000  1
  H  H16  1  0.67339200  0.53040500  0.31170000  1
  H  H17  1  0.64590100  0.58241400  0.42411300  1
  H  H18  1  0.65303100  0.73385600  0.32012000  1
  H  H19  1  0.76163100  0.71863800  0.30389800  1
  H  H20  1  0.67931600  0.68190000  0.20719000  1
  C  C1  1  0.86175200  0.97703800  0.84796200  1
  C  C2  1  0.26931100  0.98002100  0.89662700  1
  C  C3  1  0.18265000  0.97038500  0.86847600  1
  C  C4  1  0.11352900  0.96537800  0.93964400  1
  C  C5  1  0.02978200  0.96141600  0.90870800  1
  C  C6  1  0.96051600  0.96252300  0.97813100  1
  C  C7  1  0.78022900  0.97969800  0.82043900  1
  C  C8  1  0.70944000  0.96846500  0.89135900  1
  C  C9  1  0.87656200  0.96514500  0.94908800  1
  C  C10  1  0.80742000  0.96005700  0.02251900  1
  C  C11  1  0.72190700  0.95894800  0.99385200  1
  C  C12  1  0.28491200  0.98130100  0.99940800  1
  C  C13  1  0.21336700  0.97150200  0.07014300  1
  C  C14  1  0.12865500  0.96573800  0.04023800  1
  C  C15  1  0.05952900  0.96229700  0.11041200  1
  C  C16  1  0.97640100  0.96138400  0.07956800  1
  C  C17  1  0.91014600  0.96149900  0.15114000  1
  C  C18  1  0.82687300  0.96095300  0.12347500  1
  C  C19  1  0.64687100  0.95267500  0.06970800  1
  C  C20  1  0.44539600  0.80682000  0.28746700  1
  C  C21  1  0.37626600  0.99995100  0.03719900  1
  C  C22  1  0.48821300  0.16296700  0.24782900  1
  C  C23  1  0.46961400  0.80057400  0.64890300  1
  C  C24  1  0.62300300  0.96588000  0.85252700  1
  C  C25  1  0.51597800  0.17409300  0.60709700  1
  C  C26  1  0.33965000  0.98477300  0.81611000  1
  C  C27  1  0.50552100  0.22660400  0.33290500  1
  C  C28  1  0.49884400  0.31933100  0.32808500  1
  C  C29  1  0.50127600  0.36910300  0.41524600  1
  C  C30  1  0.50793800  0.32342100  0.50796300  1
  C  C31  1  0.51530200  0.23036000  0.51185500  1
  C  C32  1  0.51565000  0.18396500  0.42362100  1
  C  C33  1  0.49855800  0.47068200  0.40594900  1
  C  C34  1  0.45104100  0.49859800  0.47621200  1
  C  C35  1  0.45273000  0.64700200  0.56024700  1
  C  C36  1  0.44830300  0.74085700  0.56057500  1
  C  C37  1  0.43974000  0.78838500  0.47158900  1
  C  C38  1  0.43622300  0.74374500  0.38149100  1
  C  C39  1  0.43571200  0.64704100  0.38169100  1
  C  C40  1  0.44620700  0.59924800  0.47127300  1
  C  C41  1  0.63894900  0.57816800  0.34160000  1
  C  C42  1  0.68637500  0.68528600  0.28974300  1
  O  O1  1  0.60313300  0.01306200  0.05691800  1
  O  O2  1  0.42353400  0.76574000  0.20116400  1
  O  O3  1  0.62055500  0.88377100  0.14694100  1
  O  O4  1  0.48558800  0.90688900  0.29129300  1
  O  O5  1  0.38230500  0.93807400  0.11025100  1
  O  O6  1  0.44794400  0.08767700  0.01153200  1
  O  O7  1  0.55699000  0.14209800  0.21072200  1
  O  O8  1  0.40171100  0.09750000  0.24002300  1
  O  O9  1  0.42319700  0.85690300  0.66722600  1
  O  O10  1  0.55139900  0.82358200  0.68475000  1
  O  O11  1  0.62888200  0.01719200  0.76572100  1
  O  O12  1  0.54087500  0.90141800  0.89423700  1
  O  O13  1  0.31804600  0.97668600  0.72182100  1
  O  O14  1  0.53807900  0.09545900  0.60097700  1
  O  O15  1  0.42322300  0.99484000  0.83766100  1
  O  O16  1  0.48280300  0.19199400  0.69309400  1
  O  O17  1  0.54444700  0.53568800  0.32237700  1
