# generated using pymatgen
data_ZnH15C31(NO2)2
_symmetry_space_group_name_H-M   'P 1'
_cell_length_a   8.53238800
_cell_length_b   12.98766100
_cell_length_c   17.47656900
_cell_angle_alpha   90.95620800
_cell_angle_beta   90.08883700
_cell_angle_gamma   95.33546600
_symmetry_Int_Tables_number   1
_chemical_formula_structural   ZnH15C31(NO2)2
_chemical_formula_sum   'Zn2 H30 C62 N4 O8'
_cell_volume   1928.01044347
_cell_formula_units_Z   2
loop_
 _symmetry_equiv_pos_site_id
 _symmetry_equiv_pos_as_xyz
  1  'x, y, z'
loop_
 _atom_site_type_symbol
 _atom_site_label
 _atom_site_symmetry_multiplicity
 _atom_site_fract_x
 _atom_site_fract_y
 _atom_site_fract_z
 _atom_site_occupancy
  Zn  Zn1  1  0.55721400  0.51584700  0.90435300  1
  Zn  Zn2  1  0.55367200  0.50017600  0.07436500  1
  H  H1  1  0.62095300  0.18078800  0.99257600  1
  H  H2  1  0.59817000  0.99379400  0.00023900  1
  H  H3  1  0.06551400  0.58002700  0.01906500  1
  H  H4  1  0.35507000  0.85666500  0.98015900  1
  H  H5  1  0.24181600  0.01213300  0.97634800  1
  H  H6  1  0.71160400  0.83525600  0.00011800  1
  H  H7  1  0.26418200  0.16784400  0.99831300  1
  H  H8  1  0.04055300  0.43544900  0.95704500  1
  H  H9  1  0.54514000  0.35946700  0.79815800  1
  H  H10  1  0.54121100  0.26158200  0.68199100  1
  H  H11  1  0.53671700  0.16313100  0.56520400  1
  H  H12  1  0.53698800  0.15435600  0.42655100  1
  H  H13  1  0.57584000  0.86177600  0.55212400  1
  H  H14  1  0.57501800  0.85294000  0.41349500  1
  H  H15  1  0.56953100  0.75445500  0.29671100  1
  H  H16  1  0.56499900  0.65651800  0.18054000  1
  H  H17  1  0.57550900  0.68300000  0.79838200  1
  H  H18  1  0.53798200  0.33304800  0.18038200  1
  H  H19  1  0.48300600  0.80079500  0.72467900  1
  H  H20  1  0.62644700  0.92812800  0.79919200  1
  H  H21  1  0.88468500  0.00816600  0.84010300  1
  H  H22  1  0.12353000  0.96762600  0.77187400  1
  H  H23  1  0.10309700  0.84793000  0.66118400  1
  H  H24  1  0.84835700  0.76912100  0.61827800  1
  H  H25  1  0.63388200  0.21618100  0.25505200  1
  H  H26  1  0.49328800  0.09579300  0.17458900  1
  H  H27  1  0.23677700  0.01984800  0.12834200  1
  H  H28  1  0.99486300  0.05671600  0.19559300  1
  H  H29  1  0.01071500  0.16882700  0.31054800  1
  H  H30  1  0.26428700  0.24374200  0.35857600  1
  C  C1  1  0.00854400  0.14293100  0.98778700  1
  C  C2  1  0.87330300  0.19552700  0.98691100  1
  C  C3  1  0.72692500  0.14128900  0.99252600  1
  C  C4  1  0.71373100  0.03517200  0.99654200  1
  C  C5  1  0.84596800  0.98173200  0.99403400  1
  C  C6  1  0.99425600  0.03463500  0.98951800  1
  C  C7  1  0.82829300  0.87480800  0.99582300  1
  C  C8  1  0.95869000  0.81932800  0.99516400  1
  C  C9  1  0.10682000  0.87118800  0.98939500  1
  C  C10  1  0.12407200  0.97739900  0.98448700  1
  C  C11  1  0.94424100  0.71277100  0.00186700  1
  C  C12  1  0.07708200  0.66177000  0.00934400  1
  C  C13  1  0.22390300  0.71195800  0.99932900  1
  C  C14  1  0.23925100  0.81695200  0.98776000  1
  C  C15  1  0.15490100  0.20051100  0.98867500  1
  C  C16  1  0.16515100  0.30522700  0.97739100  1
  C  C17  1  0.03136000  0.35393700  0.96766500  1
  C  C18  1  0.88605100  0.30216200  0.97851000  1
  C  C19  1  0.79405300  0.64910700  0.99736600  1
  C  C20  1  0.75261000  0.36549500  0.98259300  1
  C  C21  1  0.31549500  0.36827700  0.98157000  1
  C  C22  1  0.35750800  0.64956600  0.99588900  1
  C  C23  1  0.55143600  0.43041400  0.76642600  1
  C  C24  1  0.56654600  0.61134700  0.76586400  1
  C  C25  1  0.54545800  0.33221900  0.64989900  1
  C  C26  1  0.55142000  0.42642400  0.68778500  1
  C  C27  1  0.55703000  0.51653300  0.64730100  1
  C  C28  1  0.56326700  0.61024400  0.68626900  1
  C  C29  1  0.56743100  0.70101400  0.64511400  1
  C  C30  1  0.54060900  0.23390200  0.53328700  1
  C  C31  1  0.54550400  0.32807400  0.57110000  1
  C  C32  1  0.55062100  0.41807200  0.53016500  1
  C  C33  1  0.54090100  0.22935100  0.45452200  1
  C  C34  1  0.54540700  0.31936100  0.41295800  1
  C  C35  1  0.55633000  0.51241000  0.56834300  1
  C  C36  1  0.56165100  0.60243700  0.52757300  1
  C  C37  1  0.56699300  0.69674200  0.56575500  1
  C  C38  1  0.57153900  0.78675100  0.52417700  1
  C  C39  1  0.55020000  0.41364600  0.45114600  1
  C  C40  1  0.55533400  0.50367100  0.41037800  1
  C  C41  1  0.56098100  0.59800300  0.44855200  1
  C  C42  1  0.56594700  0.68799000  0.40760700  1
  C  C43  1  0.57119800  0.78217300  0.44541500  1
  C  C44  1  0.54566000  0.31516300  0.33360900  1
  C  C45  1  0.54903800  0.40587900  0.29246900  1
  C  C46  1  0.55457000  0.49955400  0.33142300  1
  C  C47  1  0.55965500  0.58962400  0.29092600  1
  C  C48  1  0.56553400  0.68382800  0.32880600  1
  C  C49  1  0.54589200  0.40471300  0.21287500  1
  C  C50  1  0.55928100  0.58559200  0.21228100  1
  C  C51  1  0.71821300  0.84135000  0.70698200  1
  C  C52  1  0.73063100  0.90931300  0.76884200  1
  C  C53  1  0.87587300  0.95455800  0.79202300  1
  C  C54  1  0.00969900  0.93205600  0.75367900  1
  C  C55  1  0.99815600  0.86486200  0.69169300  1
  C  C56  1  0.85305600  0.81981600  0.66798400  1
  C  C57  1  0.39758200  0.17681400  0.26876800  1
  C  C58  1  0.38783700  0.11298000  0.20456900  1
  C  C59  1  0.24349400  0.07002100  0.17838300  1
  C  C60  1  0.10800000  0.09052800  0.21614600  1
  C  C61  1  0.11696500  0.15348900  0.28051700  1
  C  C62  1  0.26116800  0.19635500  0.30713000  1
  N  N1  1  0.55926200  0.52185400  0.80418800  1
  N  N2  1  0.55193400  0.49414900  0.17453000  1
  N  N3  1  0.56760100  0.79785600  0.68303500  1
  N  N4  1  0.54697100  0.21850600  0.29560100  1
  O  O1  1  0.73857500  0.60638100  0.06033500  1
  O  O2  1  0.73648900  0.62351200  0.92917000  1
  O  O3  1  0.71033000  0.40870000  0.91945300  1
  O  O4  1  0.70135100  0.39149400  0.05049700  1
  O  O5  1  0.37172500  0.41008200  0.91834600  1
  O  O6  1  0.37434100  0.39259500  0.04965300  1
  O  O7  1  0.40003600  0.60699800  0.05931500  1
  O  O8  1  0.40967500  0.62452900  0.92806700  1
