data_DB0-m3_o11_o29_f0_pcu.sym.106_repeat
_audit_creation_date              2024-02-20
_audit_creation_method            'Materials Studio'
_symmetry_space_group_name_H-M    'P1'
_symmetry_Int_Tables_number       1
_symmetry_cell_setting            triclinic
loop_
_symmetry_equiv_pos_as_xyz
  x,y,z
_cell_length_a                    27.6528
_cell_length_b                    11.1372
_cell_length_c                    9.9053
_cell_angle_alpha                 89.9974
_cell_angle_beta                  89.9930
_cell_angle_gamma                 89.9936
loop_
_atom_site_label
_atom_site_type_symbol
_atom_site_fract_x
_atom_site_fract_y
_atom_site_fract_z
_atom_site_U_iso_or_equiv
_atom_site_adp_type
_atom_site_occupancy
O1     O     0.50198   0.32283   0.61457   0.00000  Uiso   1.00
O2     O     0.49988   0.32343   0.38206   0.00000  Uiso   1.00
C1     C     0.50098   0.26708   0.49849   0.00000  Uiso   1.00
O3     O     0.42919   0.49968   0.62526   0.00000  Uiso   1.00
O4     O     0.42713   0.50126   0.39281   0.00000  Uiso   1.00
C2     C     0.40549   0.49999   0.51052   0.00000  Uiso   1.00
Zn1    Zn    0.50167   0.50088   0.65541   0.00000  Uiso   1.00
Zn2    Zn    0.49862   0.50300   0.34835   0.00000  Uiso   1.00
O5     O     0.50076   0.68031   0.62201   0.00000  Uiso   1.00
O6     O     0.49892   0.68141   0.38858   0.00000  Uiso   1.00
O7     O     0.57320   0.50290   0.61133   0.00000  Uiso   1.00
O8     O     0.57113   0.50382   0.37813   0.00000  Uiso   1.00
C3     C     0.49954   0.73679   0.50566   0.00000  Uiso   1.00
C4     C     0.59479   0.50375   0.49323   0.00000  Uiso   1.00
C5     C     0.17675   0.40658   0.44913   0.00000  Uiso   1.00
O9     O     0.20189   0.31899   0.38758   0.00000  Uiso   1.00
N1     N     0.20050   0.49361   0.51648   0.00000  Uiso   1.00
C6     C     0.17573   0.58023   0.58162   0.00000  Uiso   1.00
C7     C     0.27688   0.50238   0.39505   0.00000  Uiso   1.00
C8     C     0.32669   0.50387   0.39352   0.00000  Uiso   1.00
C9     C     0.32767   0.49240   0.63425   0.00000  Uiso   1.00
C10    C     0.27776   0.49073   0.63547   0.00000  Uiso   1.00
C11    C     0.25214   0.49552   0.51584   0.00000  Uiso   1.00
C12    C     0.10074   0.49363   0.51033   0.00000  Uiso   1.00
C13    C     0.12673   0.40567   0.44521   0.00000  Uiso   1.00
C14    C     0.10265   0.31789   0.37477   0.00000  Uiso   1.00
C15    C     0.12567   0.58117   0.57934   0.00000  Uiso   1.00
C16    C     0.35243   0.49879   0.51310   0.00000  Uiso   1.00
H1     H     0.34688   0.48798   0.72911   0.00000  Uiso   1.00
H2     H     0.25884   0.48419   0.73072   0.00000  Uiso   1.00
H3     H     0.12202   0.24912   0.32004   0.00000  Uiso   1.00
C17    C     0.64785   0.50411   0.49050   0.00000  Uiso   1.00
C18    C     0.97529   0.40015   0.44238   0.00000  Uiso   1.00
C19    C     0.97451   0.59099   0.55603   0.00000  Uiso   1.00
C20    C     0.94983   0.49581   0.49679   0.00000  Uiso   1.00
C21    C     0.94925   0.30298   0.39284   0.00000  Uiso   1.00
C22    C     0.89965   0.30234   0.39026   0.00000  Uiso   1.00
C23    C     0.87382   0.40048   0.43848   0.00000  Uiso   1.00
C24    C     0.89938   0.49638   0.49212   0.00000  Uiso   1.00
C25    C     0.87403   0.59347   0.54167   0.00000  Uiso   1.00
C26    C     0.82415   0.59479   0.53786   0.00000  Uiso   1.00
N2     N     0.79971   0.50120   0.48630   0.00000  Uiso   1.00
C27    C     0.82322   0.40482   0.43698   0.00000  Uiso   1.00
C28    C     0.72348   0.50731   0.60826   0.00000  Uiso   1.00
C29    C     0.67366   0.50771   0.61008   0.00000  Uiso   1.00
C30    C     0.67256   0.50018   0.36911   0.00000  Uiso   1.00
C31    C     0.72247   0.49924   0.36765   0.00000  Uiso   1.00
C32    C     0.74810   0.50274   0.48723   0.00000  Uiso   1.00
O10    O     0.79677   0.31280   0.38980   0.00000  Uiso   1.00
C33    C     0.02595   0.40274   0.43994   0.00000  Uiso   1.00
C34    C     0.05042   0.49426   0.50611   0.00000  Uiso   1.00
C35    C     0.02498   0.58659   0.56780   0.00000  Uiso   1.00
C36    C     0.05304   0.31640   0.37157   0.00000  Uiso   1.00
H4     H     0.65540   0.51072   0.70646   0.00000  Uiso   1.00
H5     H     0.74319   0.50903   0.70250   0.00000  Uiso   1.00
H6     H     0.96589   0.22154   0.35802   0.00000  Uiso   1.00
H7     H     0.03742   0.24726   0.30980   0.00000  Uiso   1.00
O11    O     0.19988   0.66811   0.64562   0.00000  Uiso   1.00
C37    C     0.10047   0.66929   0.64613   0.00000  Uiso   1.00
H8     H     0.34499   0.50950   0.29736   0.00000  Uiso   1.00
H9     H     0.25729   0.50782   0.30080   0.00000  Uiso   1.00
H10    H     0.11891   0.73766   0.70386   0.00000  Uiso   1.00
C38    C     0.94799   0.68944   0.60079   0.00000  Uiso   1.00
C39    C     0.89853   0.69021   0.59378   0.00000  Uiso   1.00
O12    O     0.79969   0.69063   0.58408   0.00000  Uiso   1.00
C40    C     0.05088   0.67199   0.64105   0.00000  Uiso   1.00
H11    H     0.96406   0.77052   0.63871   0.00000  Uiso   1.00
H12    H     0.65333   0.49740   0.27421   0.00000  Uiso   1.00
H13    H     0.87960   0.76862   0.63024   0.00000  Uiso   1.00
H14    H     0.74142   0.49661   0.27222   0.00000  Uiso   1.00
H15    H     0.03419   0.74148   0.70012   0.00000  Uiso   1.00
C41    C     0.49934   0.93418   0.39549   0.00000  Uiso   1.00
C42    C     0.49924   0.86837   0.50893   0.00000  Uiso   1.00
H16    H     0.49930   0.88899   0.29864   0.00000  Uiso   1.00
H17    H     0.49877   0.90870   0.60792   0.00000  Uiso   1.00
C43    C     0.49910   0.06729   0.39273   0.00000  Uiso   1.00
C44    C     0.50159   0.13566   0.50353   0.00000  Uiso   1.00
H18    H     0.49698   0.11016   0.29471   0.00000  Uiso   1.00
H19    H     0.50419   0.09716   0.60316   0.00000  Uiso   1.00
C45    C     0.52051   0.58550   0.92921   0.00000  Uiso   1.00
N3     N     0.50467   0.49805   0.85715   0.00000  Uiso   1.00
H20    H     0.53329   0.66648   0.88020   0.00000  Uiso   1.00
H21    H     0.49874   0.41806   0.90599   0.00000  Uiso   1.00
C46    C     0.52438   0.57581   0.07783   0.00000  Uiso   1.00
N4     N     0.49634   0.50698   0.14657   0.00000  Uiso   1.00
H22    H     0.55031   0.63202   0.13015   0.00000  Uiso   1.00
H23    H     0.46812   0.46741   0.09594   0.00000  Uiso   1.00
C47    C     0.87726   0.19614   0.33633   0.00000  Uiso   1.00
N5     N     0.85947   0.11042   0.29281   0.00000  Uiso   1.00
