# Generated by REPEAT Assigner based on pymatgen
data_DB0-m3_o3_o10_f0_pcu.sym.74
_audit_creation_date              2022-05-24
_audit_creation_method            REPEAT_Assigner
_cell_length_a                    8.935216
_cell_length_b                    19.481478
_cell_length_c                    18.244066
_cell_angle_alpha                 89.989132
_cell_angle_beta                  97.757779
_cell_angle_gamma                 90.010513
_cell_volume                      3146.700813
_symmetry_space_group_name_H-M    P1
_symmetry_Int_Tables_number       1
loop_
    _symmetry_equiv_pos_site_id
    _symmetry_equiv_pos_as_xyz
    1  x,y,z
loop_
    _atom_site_type_symbol
    _atom_site_label
    _atom_site_fract_x
    _atom_site_fract_y
    _atom_site_fract_z
    _atom_type_partial_charge
    O   O1   0.497878  0.395210  0.559363  -0.683567
    O   O2   0.502320  0.604816  0.440732  -0.683488
    O   O3   0.495779  0.400411  0.433276  -0.678349
    O   O4   0.504419  0.599615  0.566819  -0.678256
    C   C1   0.494585  0.365339  0.494572  0.790803
    C   C2   0.505613  0.634687  0.505522  0.790584
    O   O5   0.276255  0.498772  0.549801  -0.680853
    O   O6   0.723942  0.501254  0.450294  -0.680905
    O   O7   0.273899  0.504023  0.423408  -0.710531
    O   O8   0.726299  0.496004  0.576687  -0.710957
    C   C3   0.204583  0.501714  0.482269  0.850540
    C   C4   0.795615  0.498312  0.517826  0.851104
    Zn  Zn1  0.501792  0.496816  0.583333  1.048318
    Zn  Zn2  0.498406  0.503211  0.416762  1.048555
    C   C5   0.039050  0.501900  0.471362  -0.253002
    C   C6   0.961148  0.498126  0.528733  -0.253419
    H   H1   0.980895  0.504897  0.415360  0.133774
    H   H2   0.019303  0.495129  0.584734  0.133952
    C   C7   0.468196  0.745518  0.442258  -0.017465
    C   C8   0.531982  0.254508  0.557840  -0.016990
    H   H3   0.436842  0.718026  0.391070  0.092966
    H   H4   0.563319  0.282002  0.609029  0.092855
    C   C9   0.466479  0.816090  0.440227  -0.196492
    C   C10  0.533700  0.183937  0.559872  -0.196895
    H   H5   0.437871  0.841643  0.387649  0.107716
    H   H6   0.562293  0.158384  0.612450  0.107801
    C   C11  0.503953  0.853354  0.504190  0.085803
    C   C12  0.496245  0.146673  0.495908  0.085915
    C   C13  0.543895  0.819319  0.570324  -0.235172
    C   C14  0.456324  0.180706  0.429772  -0.234642
    H   H7   0.565628  0.850080  0.619692  0.127352
    H   H8   0.434605  0.149943  0.380405  0.127211
    C   C15  0.548920  0.747926  0.573167  0.180521
    C   C16  0.451302  0.252099  0.426927  0.179608
    C   C17  0.507743  0.710516  0.508072  -0.254555
    C   C18  0.492457  0.289510  0.492023  -0.254490
    C   C19  0.609665  0.966170  0.546796  -0.168305
    C   C20  0.390532  0.033857  0.453303  -0.168693
    H   H9   0.699162  0.940567  0.582252  0.112666
    H   H10  0.301038  0.059461  0.417845  0.112866
    C   C21  0.607737  0.036932  0.544839  -0.142352
    C   C22  0.392458  0.963095  0.455260  -0.142293
    H   H11  0.695547  0.064927  0.578875  0.110804
    H   H12  0.304646  0.935101  0.421225  0.110791
    C   C23  0.498297  0.071284  0.498000  0.102292
    C   C24  0.501900  0.928743  0.502099  0.102377
    C   C25  0.612676  0.528357  0.736397  -0.041791
    C   C26  0.387520  0.471670  0.263698  -0.041325
    H   H13  0.698415  0.555813  0.711749  0.141402
    H   H14  0.301780  0.444214  0.288346  0.141198
    C   C27  0.614189  0.529798  0.812018  -0.127597
    C   C28  0.386005  0.470230  0.188077  -0.127860
    H   H15  0.703447  0.557235  0.845681  0.097324
    H   H16  0.296746  0.442794  0.154413  0.097318
    C   C29  0.504297  0.495250  0.843769  0.115559
    C   C30  0.495897  0.504778  0.156325  0.115920
    C   C31  0.395474  0.459144  0.798361  -0.150219
    C   C32  0.604722  0.540883  0.201733  -0.150778
    H   H17  0.305554  0.432741  0.820823  0.113592
    H   H18  0.694640  0.567286  0.179271  0.113717
    C   C33  0.397081  0.458990  0.722843  -0.027115
    C   C34  0.603117  0.541036  0.277251  -0.026486
    H   H19  0.310164  0.431752  0.687340  0.142595
    H   H20  0.690035  0.568274  0.312754  0.142500
    N   N1   0.504590  0.493554  0.693085  -0.028169
    N   N2   0.495607  0.506473  0.307010  -0.028940
    C   C35  0.455960  0.441209  0.961088  -0.145915
    C   C36  0.544232  0.558820  0.039006  -0.146243
    H   H21  0.425039  0.393973  0.931921  0.121037
    H   H22  0.575153  0.606055  0.068173  0.121043
    C   C37  0.453832  0.443584  0.036481  -0.123705
    C   C38  0.546360  0.556444  0.963613  -0.123179
    H   H23  0.421513  0.398063  0.064291  0.116034
    H   H24  0.578679  0.601965  0.935803  0.115941
    C   C39  0.497861  0.502420  0.075980  0.064828
    C   C40  0.502331  0.497608  0.924114  0.064380
    C   C41  0.600414  0.711941  0.645220  -0.042518
    C   C42  0.669629  0.759653  0.704393  -0.085954
    C   C43  0.608620  0.768213  0.766422  -0.412782
    H   H25  0.689073  0.674114  0.636612  0.069417
    H   H26  0.502827  0.685540  0.664355  0.086537
    H   H27  0.771634  0.787416  0.696898  0.100876
    H   H28  0.506798  0.741031  0.775421  0.148686
    H   H29  0.661188  0.802965  0.808654  0.145250
    C   C44  0.399838  0.288083  0.354870  -0.041800
    C   C45  0.330662  0.240369  0.295689  -0.086204
    C   C46  0.391705  0.231815  0.233669  -0.412561
    H   H30  0.497433  0.314488  0.335748  0.086446
    H   H31  0.311164  0.325906  0.363466  0.069318
    H   H32  0.228655  0.212601  0.303170  0.100881
    H   H33  0.493529  0.259002  0.224683  0.148649
    H   H34  0.339164  0.197061  0.191431  0.145192
