# generated using pymatgen
data_Fe2H11C34I(NO8)2
_symmetry_space_group_name_H-M   'P 1'
_cell_length_a   15.29766900
_cell_length_b   9.21261400
_cell_length_c   15.50066700
_cell_angle_alpha   84.94671900
_cell_angle_beta   104.04950400
_cell_angle_gamma   111.89824000
_symmetry_Int_Tables_number   1
_chemical_formula_structural   Fe2H11C34I(NO8)2
_chemical_formula_sum   'Fe2 H11 C34 I1 N2 O16'
_cell_volume   1966.27380269
_cell_formula_units_Z   1
loop_
 _symmetry_equiv_pos_site_id
 _symmetry_equiv_pos_as_xyz
  1  'x, y, z'
loop_
 _atom_site_type_symbol
 _atom_site_label
 _atom_site_symmetry_multiplicity
 _atom_site_fract_x
 _atom_site_fract_y
 _atom_site_fract_z
 _atom_site_occupancy
  Fe  Fe1  1  0.50910300  0.04824100  0.84376800  1
  Fe  Fe2  1  0.48553000  0.94589900  0.15860600  1
  H  H1  1  0.79291700  0.87361300  0.22632100  1
  H  H2  1  0.94507300  0.89688400  0.19131700  1
  H  H3  1  0.85450800  0.06774100  0.93318900  1
  H  H4  1  0.05211800  0.10685700  0.81193200  1
  H  H5  1  0.20373200  0.12755800  0.77670900  1
  H  H6  1  0.14217400  0.93570000  0.07014900  1
  H  H7  1  0.46674100  0.47410200  0.19226600  1
  H  H8  1  0.49446500  0.16697800  0.41052700  1
  H  H9  1  0.52970300  0.51960000  0.80769700  1
  H  H10  1  0.48682100  0.74684600  0.44263900  1
  H  H11  1  0.50982800  0.24560700  0.55513300  1
  C  C1  1  0.80724300  0.91910700  0.16241900  1
  C  C2  1  0.89272300  0.93185000  0.14276500  1
  C  C3  1  0.91045100  0.98353300  0.06049400  1
  C  C4  1  0.84248000  0.02703200  0.99831400  1
  C  C5  1  0.75624100  0.01531100  0.01775300  1
  C  C6  1  0.73888700  0.96086400  0.10100500  1
  C  C7  1  0.10424400  0.07139700  0.86048300  1
  C  C8  1  0.18940500  0.08264400  0.84069600  1
  C  C9  1  0.25736000  0.03980400  0.90202100  1
  C  C10  1  0.24002300  0.98616500  0.98536900  1
  C  C11  1  0.15417600  0.97606700  0.00497200  1
  C  C12  1  0.08648700  0.02022700  0.94281400  1
  C  C13  1  0.50743700  0.27692900  0.71792600  1
  C  C14  1  0.35000300  0.07106500  0.87921500  1
  C  C15  1  0.68191300  0.04413800  0.94564800  1
  C  C16  1  0.52254000  0.80169200  0.76843300  1
  C  C17  1  0.47655800  0.19337000  0.23372900  1
  C  C18  1  0.31400700  0.95623900  0.05736300  1
  C  C19  1  0.64591500  0.92748800  0.12361100  1
  C  C20  1  0.48935400  0.71672800  0.28202100  1
  C  C21  1  0.48119200  0.56168100  0.31925200  1
  C  C22  1  0.47251400  0.44804700  0.26230000  1
  C  C23  1  0.47871900  0.30730500  0.29483400  1
  C  C24  1  0.48993600  0.27749800  0.38481800  1
  C  C25  1  0.49443300  0.38814500  0.44204900  1
  C  C26  1  0.49069100  0.53069100  0.40976500  1
  C  C27  1  0.50345100  0.35569200  0.53179000  1
  C  C28  1  0.50734500  0.46436800  0.59038500  1
  C  C29  1  0.50434600  0.60805000  0.55822200  1
  C  C30  1  0.49461800  0.63921200  0.46805900  1
  C  C31  1  0.51625200  0.43275800  0.68083900  1
  C  C32  1  0.52482800  0.54651300  0.73783100  1
  C  C33  1  0.52002800  0.68870000  0.70595000  1
  C  C34  1  0.51024600  0.72026800  0.61583800  1
  I  I1  1  0.51006200  0.94266700  0.56703800  1
  N  N1  1  0.99662000  0.98553600  0.04107900  1
  N  N2  1  0.00040500  0.01869100  0.96220800  1
  O  O1  1  0.55782800  0.26428800  0.79822400  1
  O  O2  1  0.39481800  0.20980200  0.84899900  1
  O  O3  1  0.43630500  0.15315400  0.67925000  1
  O  O4  1  0.38303200  0.95873900  0.87810300  1
  O  O5  1  0.59998500  0.03970200  0.95997200  1
  O  O6  1  0.69432400  0.06294300  0.86397200  1
  O  O7  1  0.49909000  0.92351000  0.73967000  1
  O  O8  1  0.54423100  0.77735400  0.85434000  1
  O  O9  1  0.49439700  0.06732000  0.26376000  1
  O  O10  1  0.45937700  0.21915800  0.14776400  1
  O  O11  1  0.39469600  0.95591100  0.04255400  1
  O  O12  1  0.30249900  0.94051700  0.13930400  1
  O  O13  1  0.56117900  0.84082700  0.31952300  1
  O  O14  1  0.61179400  0.03845400  0.12477100  1
  O  O15  1  0.43734200  0.72859000  0.20255900  1
  O  O16  1  0.60180000  0.78811500  0.15352300  1
