# Generated by REPEAT Assigner based on pymatgen
data_DB0-m3_o540_o159_f0_fsc.sym.1_sqe
_audit_creation_date              2022-05-24
_audit_creation_method            REPEAT_Assigner
_cell_length_a                    13.414224
_cell_length_b                    8.546848
_cell_length_c                    23.296961
_cell_angle_alpha                 90.000000
_cell_angle_beta                  93.894933
_cell_angle_gamma                 90.000000
_cell_volume                      2664.811767
_symmetry_space_group_name_H-M    P1
_symmetry_Int_Tables_number       1
loop_
    _symmetry_equiv_pos_site_id
    _symmetry_equiv_pos_as_xyz
    1  x,y,z
loop_
    _atom_site_type_symbol
    _atom_site_label
    _atom_site_fract_x
    _atom_site_fract_y
    _atom_site_fract_z
    _atom_type_partial_charge
    C   C1   0.927564  0.083309  0.787823  0.434168
    C   C2   0.061479  0.907919  0.792655  0.453836
    O   O1   0.859363  0.167120  0.756081  -0.493755
    O   O2   0.129688  0.825184  0.765831  -0.491278
    N   N1   0.994393  0.995902  0.761483  -0.181151
    C   C3   0.000809  0.859627  0.670177  -0.294607
    C   C4   0.999975  0.140316  0.671306  -0.293385
    C   C5   0.016449  0.861986  0.612360  0.009755
    C   C6   0.016426  0.141171  0.613444  -0.032670
    C   C7   0.997264  0.998885  0.700394  0.347398
    C   C8   0.996049  0.996028  0.879921  0.133548
    C   C9   0.927624  0.084272  0.847276  -0.116300
    C   C10  0.063004  0.906825  0.852025  -0.138185
    C   C11  0.858887  0.172143  0.874129  -0.034645
    C   C12  0.132831  0.819152  0.883511  -0.024650
    C   C13  0.029851  0.002355  0.585338  -0.148512
    H   H1   0.994336  0.249994  0.693937  0.157175
    H   H2   0.991606  0.749025  0.691694  0.147916
    H   H3   0.802970  0.239885  0.849549  0.119840
    H   H4   0.187304  0.749987  0.862673  0.115156
    C   C14  0.969133  0.997855  0.413666  -0.152706
    C   C15  0.935713  0.097834  0.027154  0.036998
    C   C16  0.066441  0.903475  0.031768  0.027338
    C   C17  0.002107  0.001702  0.059075  0.022106
    C   C18  0.876153  0.199958  0.056483  -0.178181
    C   C19  0.128721  0.804487  0.065555  -0.176381
    C   C20  0.878931  0.200502  0.115464  -0.029914
    C   C21  0.129549  0.807465  0.124509  -0.040086
    C   C22  0.942017  0.101374  0.146845  -0.148313
    C   C23  0.067616  0.907314  0.151460  -0.124997
    C   C24  0.004022  0.003584  0.118879  0.136496
    C   C25  0.068390  0.909774  0.210921  0.443773
    C   C26  0.942788  0.099655  0.206198  0.467490
    N   N2   0.005622  0.004484  0.237421  -0.194459
    C   C27  0.000209  0.140350  0.329075  -0.303179
    C   C28  0.997872  0.859730  0.327578  -0.296844
    C   C29  0.983047  0.138105  0.386695  0.019747
    C   C30  0.982387  0.859057  0.385552  -0.029608
    C   C31  0.002242  0.001246  0.298570  0.352377
    O   O3   0.877610  0.189005  0.232804  -0.495071
    O   O4   0.133541  0.819981  0.242447  -0.497547
    C   C32  0.930950  0.091203  0.966994  0.065212
    C   C33  0.066749  0.905544  0.971681  0.076251
    C   C34  0.997864  0.997481  0.939723  -0.003214
    C   C35  0.859974  0.175250  0.933100  -0.206693
    C   C36  0.135123  0.818546  0.942474  -0.210331
    H   H5   0.011478  0.251008  0.308006  0.152151
    H   H6   0.001634  0.749692  0.305006  0.160195
    H   H7   0.831128  0.281166  0.136418  0.116385
    H   H8   0.178921  0.728523  0.148969  0.121332
    H   H9   0.827336  0.285139  0.035679  0.127831
    H   H10  0.177002  0.718933  0.048360  0.127600
    H   H11  0.801650  0.243189  0.950213  0.146958
    H   H12  0.194061  0.750325  0.963378  0.147461
    H   H13  0.044051  0.003829  0.540454  0.134738
    H   H14  0.954833  0.996408  0.458536  0.134639
    O   O5   0.093328  0.670820  0.555863  -0.760679
    O   O6   0.093561  0.332560  0.557040  -0.741142
    O   O7   0.922377  0.664623  0.561459  -0.745183
    O   O8   0.922655  0.338593  0.562644  -0.683948
    C   C37  0.011159  0.720410  0.577273  0.894556
    C   C38  0.011496  0.283913  0.578925  0.846166
    O   O9   0.905451  0.667682  0.441961  -0.727772
    O   O10  0.905765  0.329086  0.443199  -0.747800
    O   O11  0.076666  0.661893  0.436389  -0.669417
    O   O12  0.077001  0.335455  0.437518  -0.728041
    C   C39  0.987593  0.716313  0.420081  0.825012
    C   C40  0.988129  0.279668  0.421773  0.867649
    Zn  Zn1  0.888667  0.499944  0.501340  1.054928
    Zn  Zn2  0.110411  0.500225  0.497633  1.050100
    C   C41  0.289084  0.500627  0.447887  -0.257172
    N   N3   0.241005  0.500350  0.496674  0.160629
    C   C42  0.292777  0.499709  0.548111  -0.108940
    C   C43  0.395548  0.499449  0.552096  -0.185926
    C   C44  0.447617  0.499905  0.502641  0.045644
    C   C45  0.392449  0.500290  0.450134  0.257826
    C   C46  0.612932  0.500513  0.554755  -0.151746
    C   C47  0.552193  0.499997  0.503941  0.047759
    C   C48  0.598429  0.499651  0.452629  0.222514
    C   C49  0.542469  0.499714  0.400779  -0.220705
    C   C50  0.439923  0.500300  0.399525  -0.238612
    C   C51  0.715440  0.500506  0.553122  -0.167833
    N   N4   0.758132  0.499819  0.502625  0.166508
    C   C52  0.701411  0.499337  0.452777  -0.210737
    H   H15  0.253480  0.499415  0.587084  0.162376
    H   H16  0.737033  0.498826  0.412530  0.168361
    H   H17  0.578854  0.499479  0.360776  0.156875
    H   H18  0.396872  0.500713  0.358579  0.162267
    H   H19  0.431068  0.498683  0.594796  0.146261
    H   H20  0.584538  0.501176  0.596744  0.141961
    H   H21  0.246474  0.501018  0.406799  0.186117
    H   H22  0.761729  0.501074  0.592951  0.182942
