# Generated by REPEAT Assigner based on pymatgen
data_DB0-m29_o90_o172_f0_pts.sym.48
_audit_creation_date              2022-05-24
_audit_creation_method            REPEAT_Assigner
_cell_length_a                    16.928520
_cell_length_b                    20.732670
_cell_length_c                    20.932725
_cell_angle_alpha                 101.869001
_cell_angle_beta                  104.588173
_cell_angle_gamma                 67.238140
_cell_volume                      6507.865273
_symmetry_space_group_name_H-M    P1
_symmetry_Int_Tables_number       1
loop_
    _symmetry_equiv_pos_site_id
    _symmetry_equiv_pos_as_xyz
    1  x,y,z
loop_
    _atom_site_type_symbol
    _atom_site_label
    _atom_site_fract_x
    _atom_site_fract_y
    _atom_site_fract_z
    _atom_type_partial_charge
    C   C1   0.305341  0.989855  0.978463  0.000073
    C   C2   0.233840  0.990407  0.999187  0.004775
    H   H1   0.230805  0.005551  0.051323  0.065900
    C   C3   0.164792  0.977066  0.954382  -0.437762
    C   C4   0.171558  0.957030  0.887733  0.191856
    C   C5   0.242071  0.958485  0.866780  -0.182986
    H   H2   0.245817  0.943884  0.814767  0.161666
    C   C6   0.308616  0.976158  0.911068  0.084521
    N   N1   0.005693  0.010140  0.938754  -0.260109
    N   N2   0.934254  0.022982  0.961581  -0.285512
    C   C7   0.939848  0.017099  0.025532  0.804520
    N   N3   0.018623  0.998405  0.065977  -0.276783
    N   N4   0.090027  0.985127  0.043022  -0.270497
    C   C8   0.084806  0.989547  0.978763  0.831176
    C   C9   0.867147  0.028139  0.117671  0.089593
    H   H3   0.926425  0.026930  0.152911  0.035141
    C   C10  0.797657  0.028674  0.140846  -0.125279
    H   H4   0.804838  0.028399  0.193558  0.128735
    C   C11  0.721773  0.026772  0.097504  0.016134
    C   C12  0.714663  0.028310  0.030047  -0.093694
    C   C13  0.783757  0.030208  0.007375  0.100461
    H   H5   0.778692  0.027454  0.954469  0.075202
    C   C14  0.861526  0.027309  0.050610  -0.445111
    O   O1   0.574020  0.030387  0.089362  -0.539040
    C   C15  0.652875  0.020713  0.124679  0.531759
    O   O2   0.584511  0.862762  0.110044  -0.503427
    O   O3   0.670922  0.004290  0.185284  -0.542541
    O   O4   0.556352  0.939505  0.203442  -0.516563
    C   C16  0.589799  0.874998  0.174717  0.588575
    Fe  Fe1  0.503101  0.008462  0.137994  1.455474
    O   O5   0.426529  0.963486  0.070264  -0.559694
    O   O6   0.373965  0.072658  0.037281  -0.508743
    C   C17  0.372379  0.008668  0.029253  0.647555
    O   O7   0.449182  0.102863  0.188166  -0.602542
    O   O8   0.379818  0.038464  0.211058  -0.540689
    C   C18  0.390300  0.098894  0.216096  0.581624
    O   O9   0.561201  0.926362  0.817807  -0.560051
    O   O10  0.671750  0.968253  0.837087  -0.518604
    C   C19  0.640907  0.917233  0.813305  0.595338
    O   O11  0.593086  0.061285  0.938318  -0.685552
    O   O12  0.631221  0.955385  0.974376  -0.541627
    C   C20  0.642251  0.015802  0.980494  0.863122
    O   O13  0.369324  0.978903  0.819585  -0.513111
    O   O14  0.455213  0.091185  0.809579  -0.559158
    C   C21  0.380065  0.134751  0.824478  0.664907
    O   O15  0.445192  0.995710  0.923233  -0.473750
    C   C22  0.378425  0.981476  0.884098  0.512448
    O   O16  0.357024  0.130177  0.878184  -0.540678
    Fe  Fe2  0.512081  0.019273  0.872090  1.421829
    C   C23  0.874429  0.616699  0.430671  -0.055057
    C   C24  0.864729  0.686681  0.454225  0.021947
    C   C25  0.778368  0.641807  0.543570  -0.203032
    C   C26  0.866821  0.611155  0.567441  0.187047
    C   C27  0.923828  0.556093  0.531625  -0.132897
    C   C28  0.923129  0.558028  0.465010  0.167936
    C   C29  0.980448  0.496499  0.562277  -0.031249
    C   C30  0.034190  0.438427  0.527035  -0.051031
    C   C31  0.027282  0.439214  0.459281  0.098554
    C   C32  0.973723  0.499061  0.430098  -0.184962
    C   C33  0.099070  0.383645  0.560945  0.080222
    C   C34  0.183814  0.354187  0.550109  -0.137126
    C   C35  0.075296  0.312217  0.421940  -0.063546
    C   C36  0.067490  0.380122  0.417571  -0.033396
    H   H6   0.971130  0.499496  0.378241  0.150693
    C   C37  0.125319  0.262512  0.379976  -0.198943
    C   C38  0.156765  0.291364  0.342603  0.086254
    S   S1   0.116012  0.385752  0.352971  0.003022
    S   S2   0.078948  0.338005  0.615870  0.056496
    C   C39  0.192475  0.284242  0.626113  -0.053064
    C   C40  0.235330  0.297661  0.584517  -0.057446
    C   C41  0.735939  0.695449  0.587547  -0.158663
    C   C42  0.791283  0.707955  0.645499  0.098420
    S   S3   0.902706  0.652119  0.648032  0.025294
    S   S4   0.817402  0.605916  0.346615  -0.013939
    C   C43  0.775179  0.700000  0.351341  0.122588
    C   C44  0.806772  0.733045  0.410754  -0.254212
    C   C45  0.219347  0.251019  0.304725  -0.024376
    C   C46  0.230450  0.242558  0.678164  0.040445
    C   C47  0.764853  0.758299  0.698112  -0.085631
    C   C48  0.721960  0.735707  0.297910  -0.080016
    S   S5   0.259879  0.156617  0.295230  0.070988
    C   C49  0.332898  0.161592  0.249498  0.010538
    C   C50  0.323763  0.229053  0.243350  -0.159948
    C   C51  0.259621  0.279466  0.274159  -0.121446
    C   C52  0.701804  0.701719  0.235362  -0.067533
    C   C53  0.654358  0.747381  0.188882  -0.197006
    C   C54  0.635511  0.817004  0.215167  0.003970
    S   S6   0.677287  0.830141  0.302457  0.097996
    S   S7   0.653258  0.812436  0.700937  0.113177
    C   C55  0.694768  0.851608  0.780393  0.006116
    C   C56  0.784364  0.822477  0.800146  -0.141590
    C   C57  0.823358  0.770304  0.754090  -0.056605
    C   C58  0.178471  0.239740  0.722839  -0.130329
    C   C59  0.228994  0.206165  0.777020  -0.112429
    C   C60  0.317167  0.181924  0.777266  -0.111651
    S   S8   0.345566  0.200924  0.708091  0.134333
    H   H7   0.141206  0.206808  0.380005  0.189537
    H   H8   0.666459  0.724027  0.576975  0.172019
    H   H9   0.793680  0.789069  0.420562  0.207295
    H   H10  0.361530  0.241383  0.216134  0.179704
    H   H11  0.244385  0.335155  0.274533  0.155924
    H   H12  0.723016  0.645250  0.222430  0.153529
    H   H13  0.634715  0.730056  0.137018  0.170720
    H   H14  0.892946  0.742181  0.762169  0.141488
    H   H15  0.108090  0.259800  0.715288  0.161647
    H   H16  0.201400  0.196850  0.814007  0.161461
    H   H17  0.744789  0.624243  0.496146  0.145209
    H   H18  0.207707  0.372752  0.516880  0.150816
    H   H19  0.046853  0.298606  0.455655  0.102171
    C   C61  0.322948  0.255491  0.570857  0.668989
    O   O17  0.349563  0.191428  0.567355  -0.496481
    O   O18  0.370951  0.287868  0.552803  -0.592779
    H   H20  0.427480  0.251325  0.541585  0.418172
    C   C62  0.835469  0.841100  0.864285  0.708468
    O   O19  0.914271  0.823991  0.870797  -0.530742
    O   O20  0.796249  0.872855  0.919241  -0.521581
    H   H21  0.841812  0.878701  0.959535  0.368425
    C   C63  0.109012  0.930120  0.838462  0.453392
    O   O21  0.095340  0.938639  0.780210  -0.478280
    O   O22  0.071597  0.889059  0.856501  -0.491247
    H   H22  0.032828  0.873133  0.816270  0.407596
    C   C64  0.920407  0.710762  0.512459  0.638444
    O   O23  0.896991  0.772542  0.535968  -0.521505
    O   O24  0.002674  0.664918  0.537900  -0.565587
    H   H23  0.032790  0.690621  0.576555  0.402459
    C   C65  0.982882  0.494610  0.632414  0.773507
    O   O25  0.919543  0.493664  0.649449  -0.559776
    O   O26  0.057336  0.494254  0.679828  -0.593450
    H   H24  0.048130  0.492969  0.725403  0.392663
