# generated using pymatgen
data_ZnH8C22N3O4F3
_symmetry_space_group_name_H-M   'P 1'
_cell_length_a   17.53515100
_cell_length_b   8.55473900
_cell_length_c   14.91811600
_cell_angle_alpha   90.00000000
_cell_angle_beta   91.00225000
_cell_angle_gamma   90.00000000
_symmetry_Int_Tables_number   1
_chemical_formula_structural   ZnH8C22N3O4F3
_chemical_formula_sum   'Zn2 H16 C44 N6 O8 F6'
_cell_volume   2237.50392420
_cell_formula_units_Z   2
loop_
 _symmetry_equiv_pos_site_id
 _symmetry_equiv_pos_as_xyz
  1  'x, y, z'
loop_
 _atom_site_type_symbol
 _atom_site_label
 _atom_site_symmetry_multiplicity
 _atom_site_fract_x
 _atom_site_fract_y
 _atom_site_fract_z
 _atom_site_occupancy
  Zn  Zn1  1  0.91567400  0.50007700  0.48262900  1
  Zn  Zn2  1  0.08432600  0.50007700  0.51737100  1
  H  H1  1  0.96018000  0.00008000  0.55757600  1
  H  H2  1  0.03982000  0.00008000  0.44242400  1
  H  H3  1  0.99462300  0.25062900  0.80012800  1
  H  H4  1  0.00537500  0.74951700  0.19987700  1
  H  H5  1  0.00537800  0.25062900  0.19987200  1
  H  H6  1  0.99462500  0.74951700  0.80012300  1
  H  H7  1  0.71239700  0.50122900  0.69632900  1
  H  H8  1  0.28760300  0.50122900  0.30367100  1
  H  H9  1  0.33793200  0.49866100  0.74590100  1
  H  H10  1  0.66206800  0.49866100  0.25409900  1
  H  H11  1  0.46649700  0.49830100  0.73117400  1
  H  H12  1  0.53350300  0.49830100  0.26882600  1
  H  H13  1  0.58040700  0.50166800  0.71746300  1
  H  H14  1  0.41959300  0.50166800  0.28253700  1
  H  H15  1  0.81653400  0.50032400  0.60545800  1
  H  H16  1  0.18346600  0.50032400  0.39454200  1
  C  C1  1  0.97707600  0.13952900  0.67389000  1
  C  C2  1  0.02292200  0.86062700  0.32611200  1
  C  C3  1  0.02292400  0.13952900  0.32611000  1
  C  C4  1  0.97707800  0.86062700  0.67388800  1
  C  C5  1  0.98800900  0.14024800  0.76564700  1
  C  C6  1  0.01198900  0.85990000  0.23435600  1
  C  C7  1  0.01199100  0.14024800  0.23435300  1
  C  C8  1  0.98801100  0.85990000  0.76564400  1
  C  C9  1  0.99032400  0.00007300  0.81231000  1
  C  C10  1  0.00967600  0.00007300  0.18769000  1
  C  C11  1  0.96810600  0.00007900  0.62934800  1
  C  C12  1  0.03189400  0.00007900  0.37065200  1
  C  C13  1  0.00353200  0.00007000  0.08960600  1
  C  C14  1  0.99646800  0.00007000  0.91039300  1
  C  C15  1  0.98430800  0.71886600  0.62029800  1
  C  C16  1  0.01569500  0.28129500  0.37969800  1
  C  C17  1  0.01569200  0.71886600  0.37970200  1
  C  C18  1  0.98430500  0.28129500  0.62030200  1
  C  C19  1  0.78264600  0.50024000  0.54466500  1
  C  C20  1  0.21735400  0.50024000  0.45533400  1
  C  C21  1  0.77067600  0.49981800  0.38839200  1
  C  C22  1  0.22932400  0.49981800  0.61160800  1
  C  C23  1  0.65786200  0.50002000  0.47979900  1
  C  C24  1  0.34213800  0.50002000  0.52020000  1
  C  C25  1  0.70499300  0.50031000  0.55355800  1
  C  C26  1  0.29500700  0.50031000  0.44644200  1
  C  C27  1  0.67520100  0.50078000  0.63777200  1
  C  C28  1  0.32479900  0.50078000  0.36222800  1
  C  C29  1  0.69079900  0.49971100  0.39646100  1
  C  C30  1  0.30920100  0.49971100  0.60353900  1
  C  C31  1  0.46869100  0.49983500  0.58521200  1
  C  C32  1  0.53130900  0.49983500  0.41478800  1
  C  C33  1  0.45195400  0.50019700  0.42469700  1
  C  C34  1  0.54804600  0.50019700  0.57530300  1
  C  C35  1  0.42115700  0.50001900  0.51006800  1
  C  C36  1  0.57884400  0.50001900  0.48993100  1
  C  C37  1  0.43510300  0.49916400  0.66895100  1
  C  C38  1  0.56489700  0.49916400  0.33104900  1
  C  C39  1  0.35738400  0.49919200  0.67799500  1
  C  C40  1  0.64261600  0.49919200  0.32200500  1
  C  C41  1  0.59790200  0.50083500  0.64902500  1
  C  C42  1  0.40209900  0.50083500  0.35097500  1
  C  C43  1  0.80229700  0.49969100  0.29499200  1
  C  C44  1  0.19770300  0.49969100  0.70500800  1
  N  N1  1  0.99814900  0.86411600  0.95570700  1
  N  N2  1  0.00185100  0.13602300  0.04429300  1
  N  N3  1  0.00185100  0.86411600  0.04429300  1
  N  N4  1  0.99814900  0.13602300  0.95570700  1
  N  N5  1  0.81620800  0.50007500  0.46388300  1
  N  N6  1  0.18379200  0.50007500  0.53611700  1
  O  O1  1  0.05343700  0.66952700  0.60331100  1
  O  O2  1  0.94656400  0.33063400  0.39668400  1
  O  O3  1  0.94656300  0.66952700  0.39668900  1
  O  O4  1  0.05343600  0.33063400  0.60331600  1
  O  O5  1  0.92300900  0.66373600  0.57973300  1
  O  O6  1  0.07699500  0.33643000  0.42026000  1
  O  O7  1  0.07699100  0.66373600  0.42026700  1
  O  O8  1  0.92300500  0.33643000  0.57974000  1
  F  F1  1  0.88020900  0.50014500  0.29316200  1
  F  F2  1  0.77713000  0.63174600  0.24990300  1
  F  F3  1  0.77749500  0.36707700  0.25017600  1
  F  F4  1  0.11979100  0.50014500  0.70683800  1
  F  F5  1  0.22287000  0.63174600  0.75009700  1
  F  F6  1  0.22250500  0.36707700  0.74982400  1
