# generated using pymatgen
data_FeH11C25NO8
_symmetry_space_group_name_H-M   'P 1'
_cell_length_a   13.15610200
_cell_length_b   9.50959100
_cell_length_c   17.98673300
_cell_angle_alpha   85.93984300
_cell_angle_beta   98.98924200
_cell_angle_gamma   111.86947100
_symmetry_Int_Tables_number   1
_chemical_formula_structural   FeH11C25NO8
_chemical_formula_sum   'Fe2 H22 C50 N2 O16'
_cell_volume   2062.51652332
_cell_formula_units_Z   2
loop_
 _symmetry_equiv_pos_site_id
 _symmetry_equiv_pos_as_xyz
  1  'x, y, z'
loop_
 _atom_site_type_symbol
 _atom_site_label
 _atom_site_symmetry_multiplicity
 _atom_site_fract_x
 _atom_site_fract_y
 _atom_site_fract_z
 _atom_site_occupancy
  Fe  Fe1  1  0.47714500  0.99298700  0.17038700  1
  Fe  Fe2  1  0.48852500  0.99252700  0.86182000  1
  H  H1  1  0.08619700  0.93834300  0.83208400  1
  H  H2  1  0.90448100  0.93384000  0.82115200  1
  H  H3  1  0.75481800  0.95126500  0.87509300  1
  H  H4  1  0.21243500  0.02874500  0.15867400  1
  H  H5  1  0.06855100  0.05071500  0.21314600  1
  H  H6  1  0.47678800  0.27559700  0.65241500  1
  H  H7  1  0.48650300  0.72774400  0.62433100  1
  H  H8  1  0.45937500  0.24870200  0.41178700  1
  H  H9  1  0.46914200  0.70094000  0.38049300  1
  H  H10  1  0.47582100  0.45182900  0.19340600  1
  H  H11  1  0.45965700  0.58228300  0.88636500  1
  H  H12  1  0.56544600  0.57202100  0.00885000  1
  H  H13  1  0.75076200  0.62630900  0.07899000  1
  H  H14  1  0.90623000  0.65069300  0.01244300  1
  H  H15  1  0.87593800  0.62232200  0.87520300  1
  H  H16  1  0.69500300  0.57178400  0.80407400  1
  H  H17  1  0.90442100  0.98232100  0.25470700  1
  H  H18  1  0.02001100  0.15149900  0.34669700  1
  H  H19  1  0.13556400  0.41285200  0.38139000  1
  H  H20  1  0.13121700  0.62335300  0.29497200  1
  H  H21  1  0.00958000  0.57160300  0.17365500  1
  H  H22  1  0.89299600  0.31311700  0.13809300  1
  C  C1  1  0.19756300  0.96478600  0.93497600  1
  C  C2  1  0.09801300  0.95303900  0.89223600  1
  C  C3  1  0.01295400  0.96224000  0.92515300  1
  C  C4  1  0.91522300  0.95180600  0.88100200  1
  C  C5  1  0.82998800  0.96339700  0.91247200  1
  C  C6  1  0.20989600  0.98154700  0.01240600  1
  C  C7  1  0.12411400  0.99251100  0.04526800  1
  C  C8  1  0.02572100  0.98366800  0.00143200  1
  C  C9  1  0.94051200  0.99759000  0.03350600  1
  C  C10  1  0.84210400  0.98815400  0.98906700  1
  C  C11  1  0.75531500  0.99676300  0.02174900  1
  C  C12  1  0.13726400  0.01815000  0.12154600  1
  C  C13  1  0.05331600  0.03213900  0.15335900  1
  C  C14  1  0.95395400  0.02071400  0.10995000  1
  C  C15  1  0.86815800  0.03088700  0.14259400  1
  C  C16  1  0.76718300  0.01314700  0.09928700  1
  C  C17  1  0.67366700  0.00673300  0.13733400  1
  C  C18  1  0.47078800  0.71929100  0.22956900  1
  C  C19  1  0.31637600  0.00478100  0.05867500  1
  C  C20  1  0.46294600  0.19472600  0.26914600  1
  C  C21  1  0.49975800  0.78547100  0.76782200  1
  C  C22  1  0.64873900  0.97477200  0.97515200  1
  C  C23  1  0.48702800  0.25818900  0.80339200  1
  C  C24  1  0.28841000  0.96578500  0.89592200  1
  C  C25  1  0.48701400  0.38840600  0.75405900  1
  C  C26  1  0.48124400  0.37857000  0.67698400  1
  C  C27  1  0.48037900  0.50035600  0.63062900  1
  C  C28  1  0.48606500  0.63227100  0.66084700  1
  C  C29  1  0.48955000  0.64232400  0.73717000  1
  C  C30  1  0.49141000  0.52126600  0.78431000  1
  C  C31  1  0.47397500  0.49140100  0.55065400  1
  C  C32  1  0.46935900  0.48541800  0.48347300  1
  C  C33  1  0.46272500  0.34448800  0.37476100  1
  C  C34  1  0.46827300  0.33661900  0.29951500  1
  C  C35  1  0.47363400  0.46039300  0.25267200  1
  C  C36  1  0.47061100  0.59097700  0.28071300  1
  C  C37  1  0.46833200  0.59900900  0.35695300  1
  C  C38  1  0.46589300  0.47636300  0.40379500  1
  C  C39  1  0.61536100  0.56821400  0.90166100  1
  C  C40  1  0.63350700  0.58468500  0.97887300  1
  C  C41  1  0.73757700  0.61426000  0.01856000  1
  C  C42  1  0.82461400  0.62769300  0.98133300  1
  C  C43  1  0.80747700  0.61151900  0.90439100  1
  C  C44  1  0.70348600  0.58179600  0.86431800  1
  C  C45  1  0.95002100  0.21271900  0.23941000  1
  C  C46  1  0.01750200  0.24288100  0.30802100  1
  C  C47  1  0.08264800  0.39002300  0.32779000  1
  C  C48  1  0.08024500  0.50798900  0.27938400  1
  C  C49  1  0.01219200  0.47886500  0.21131900  1
  C  C50  1  0.94693100  0.33185000  0.19123700  1
  N  N1  1  0.50673000  0.53633600  0.86332500  1
  N  N2  1  0.88328900  0.06105100  0.22018900  1
  O  O1  1  0.58831800  0.03444100  0.10119300  1
  O  O2  1  0.47840900  0.71138800  0.15821500  1
  O  O3  1  0.67243500  0.96577300  0.20846800  1
  O  O4  1  0.46514700  0.84323300  0.25410500  1
  O  O5  1  0.32785200  0.90237600  0.10877100  1
  O  O6  1  0.39837300  0.13535000  0.05505000  1
  O  O7  1  0.52225600  0.19735800  0.21635200  1
  O  O8  1  0.39484100  0.06502100  0.29245200  1
  O  O9  1  0.43364500  0.78775200  0.81479400  1
  O  O10  1  0.57754500  0.91159900  0.75009000  1
  O  O11  1  0.64010100  0.07300000  0.92165200  1
  O  O12  1  0.56262300  0.85173600  0.98413300  1
  O  O13  1  0.27914500  0.98066400  0.82234000  1
  O  O14  1  0.50393200  0.14355900  0.77861300  1
  O  O15  1  0.38098400  0.95964500  0.93296400  1
  O  O16  1  0.46622300  0.25188200  0.87278500  1
