# generated using pymatgen
data_CuH5C12NO4
_symmetry_space_group_name_H-M   'P 1'
_cell_length_a   8.46217200
_cell_length_b   8.80807500
_cell_length_c   14.19573200
_cell_angle_alpha   90.34825300
_cell_angle_beta   92.87558700
_cell_angle_gamma   83.01034100
_symmetry_Int_Tables_number   1
_chemical_formula_structural   CuH5C12NO4
_chemical_formula_sum   'Cu2 H10 C24 N2 O8'
_cell_volume   1048.89924533
_cell_formula_units_Z   2
loop_
 _symmetry_equiv_pos_site_id
 _symmetry_equiv_pos_as_xyz
  1  'x, y, z'
loop_
 _atom_site_type_symbol
 _atom_site_label
 _atom_site_symmetry_multiplicity
 _atom_site_fract_x
 _atom_site_fract_y
 _atom_site_fract_z
 _atom_site_occupancy
  Cu  Cu1  1  0.99153300  0.01835600  0.90758100  1
  Cu  Cu2  1  0.00846700  0.98164400  0.09241900  1
  H  H1  1  0.23942600  0.83465000  0.46131900  1
  H  H2  1  0.76057400  0.16535100  0.53868100  1
  H  H3  1  0.23145800  0.11203600  0.56348600  1
  H  H4  1  0.76854200  0.88796400  0.43651400  1
  H  H5  1  0.99593100  0.75171300  0.57253300  1
  H  H6  1  0.00406900  0.24828700  0.42746700  1
  H  H7  1  0.49246900  0.10682600  0.04513600  1
  H  H8  1  0.50753100  0.89317500  0.95486400  1
  H  H9  1  0.17358900  0.51133500  0.99547500  1
  H  H10  1  0.82641100  0.48866500  0.00452400  1
  C  C1  1  0.75781600  0.21213600  0.01325500  1
  C  C2  1  0.24218500  0.78786400  0.98674500  1
  C  C3  1  0.80830100  0.79289700  0.98398300  1
  C  C4  1  0.19169900  0.20710300  0.01601700  1
  C  C5  1  0.12667100  0.06075000  0.53340000  1
  C  C6  1  0.87332900  0.93925000  0.46659900  1
  C  C7  1  0.13084200  0.90998600  0.48011900  1
  C  C8  1  0.86915800  0.09001500  0.51988100  1
  C  C9  1  0.00203200  0.13580000  0.46176900  1
  C  C10  1  0.99796800  0.86420000  0.53823100  1
  C  C11  1  0.00611800  0.98522500  0.41027500  1
  C  C12  1  0.99388200  0.01477500  0.58972500  1
  C  C13  1  0.01171500  0.97191900  0.30754200  1
  C  C14  1  0.98828500  0.02808100  0.69245800  1
  C  C15  1  0.60231100  0.30536900  0.01922600  1
  C  C16  1  0.39768900  0.69463100  0.98077300  1
  C  C17  1  0.47378600  0.22860600  0.03331300  1
  C  C18  1  0.52621400  0.77139500  0.96668700  1
  C  C19  1  0.32110800  0.30146700  0.02264700  1
  C  C20  1  0.67889300  0.69853300  0.97735300  1
  C  C21  1  0.29453800  0.45627700  0.00516000  1
  C  C22  1  0.70546200  0.54372300  0.99483900  1
  C  C23  1  0.42265000  0.53814200  0.99752200  1
  C  C24  1  0.57735100  0.46185900  0.00247700  1
  N  N1  1  0.01438100  0.96581700  0.22613900  1
  N  N2  1  0.98561900  0.03418400  0.77386000  1
  O  O1  1  0.81206600  0.17616400  0.92975600  1
  O  O2  1  0.18793400  0.82383600  0.07024400  1
  O  O3  1  0.82246800  0.13916100  0.08879800  1
  O  O4  1  0.17753200  0.86084000  0.91120200  1
  O  O5  1  0.84445500  0.86411700  0.90862800  1
  O  O6  1  0.15554500  0.13588400  0.09137100  1
  O  O7  1  0.86541900  0.82726000  0.06798500  1
  O  O8  1  0.13458100  0.17274000  0.93201500  1
