# Generated by REPEAT Assigner based on pymatgen
data_DB0-m3_o24_o153_f0_fsc.sym.64
_audit_creation_date              2022-05-24
_audit_creation_method            REPEAT_Assigner
_cell_length_a                    8.509362
_cell_length_b                    9.200282
_cell_length_c                    13.078722
_cell_angle_alpha                 90.586592
_cell_angle_beta                  86.480741
_cell_angle_gamma                 93.205181
_cell_volume                      1020.360645
_symmetry_space_group_name_H-M    P1
_symmetry_Int_Tables_number       1
loop_
    _symmetry_equiv_pos_site_id
    _symmetry_equiv_pos_as_xyz
    1  x,y,z
loop_
    _atom_site_type_symbol
    _atom_site_label
    _atom_site_fract_x
    _atom_site_fract_y
    _atom_site_fract_z
    _atom_type_partial_charge
    C   C1   0.982311  0.027928  0.135774  0.101988
    C   C2   0.114557  0.020819  0.192960  0.029462
    C   C3   0.263650  0.021401  0.144794  -0.076690
    C   C4   0.282761  0.022091  0.039801  -0.352141
    C   C5   0.153495  0.021121  0.981470  0.284236
    C   C6   0.002815  0.025156  0.028454  0.031373
    C   C7   0.176808  0.015074  0.875669  -0.320182
    C   C8   0.050015  0.013939  0.814959  -0.036477
    C   C9   0.899553  0.018102  0.861439  0.350907
    C   C10  0.876247  0.021632  0.966441  -0.387231
    C   C11  0.069144  0.011452  0.708580  0.104778
    C   C12  0.939404  0.024348  0.653419  -0.244355
    C   C13  0.790364  0.024288  0.698817  0.007467
    C   C14  0.769426  0.019071  0.803367  -0.393991
    C   C15  0.833816  0.037619  0.187886  -0.240180
    C   C16  0.818335  0.023242  0.292922  0.075990
    C   C17  0.948030  0.999288  0.345027  -0.151082
    C   C18  0.096194  0.008939  0.298445  -0.126328
    H   H1   0.367242  0.018052  0.188278  0.107544
    H   H2   0.400106  0.019999  0.003326  0.165299
    H   H3   0.956775  0.036579  0.572814  0.143688
    H   H4   0.651580  0.019256  0.839288  0.141208
    H   H5   0.756052  0.020067  0.996433  0.185095
    H   H6   0.294985  0.012178  0.840658  0.129515
    H   H7   0.727373  0.054309  0.150631  0.122609
    H   H8   0.932380  0.976216  0.424552  0.107294
    O   O1   0.604706  0.896601  0.598876  -0.736785
    O   O2   0.608627  0.148135  0.604670  -0.767068
    C   C19  0.657455  0.023082  0.633858  0.930362
    O   O3   0.621507  0.149516  0.391689  -0.751025
    O   O4   0.606489  0.898882  0.386998  -0.571807
    C   C20  0.667573  0.024731  0.353632  0.728462
    O   O5   0.280960  0.136429  0.400631  -0.719110
    O   O6   0.277487  0.886159  0.394681  -0.591270
    C   C21  0.228624  0.010453  0.364793  0.816317
    O   O7   0.264594  0.884567  0.608195  -0.613551
    O   O8   0.279838  0.135519  0.613267  -0.717810
    C   C22  0.219845  0.009574  0.647439  0.730813
    Zn  Zn1  0.448246  0.179255  0.501015  1.037526
    Zn  Zn2  0.437369  0.854321  0.498549  0.867852
    C   C23  0.369642  0.462721  0.579153  -0.122730
    C   C24  0.303667  0.552285  0.499200  0.046488
    H   H9   0.305974  0.416183  0.648852  0.081608
    N   N1   0.434670  0.662708  0.495678  0.233394
    C   C25  0.502146  0.578681  0.575821  0.015782
    C   C26  0.583485  0.477925  0.500650  -0.237378
    C   C27  0.514863  0.566568  0.421448  -0.005428
    C   C28  0.382734  0.452755  0.423494  -0.072725
    N   N2   0.450544  0.370333  0.503343  0.384533
    H   H10  0.553108  0.631515  0.643727  0.061336
    H   H11  0.706693  0.444418  0.500260  0.137321
    H   H12  0.332049  0.399996  0.355474  0.057357
    C   C29  0.608485  0.611604  0.323220  0.098452
    C   C30  0.508282  0.687799  0.253825  -0.010155
    C   C31  0.570078  0.739146  0.164697  -0.493836
    H   H13  0.647625  0.511600  0.283547  0.011135
    H   H14  0.716386  0.678132  0.340062  0.005804
    H   H15  0.384122  0.697351  0.274339  0.050576
    H   H16  0.693871  0.727604  0.143266  0.180837
    H   H17  0.496590  0.792086  0.113187  0.164635
    C   C32  0.131135  0.586472  0.499444  0.020584
    C   C33  0.073976  0.636833  0.603112  -0.033808
    C   C34  0.928128  0.680631  0.618437  -0.518710
    H   H18  0.061012  0.485898  0.479877  0.022399
    H   H19  0.113882  0.669795  0.441537  0.023526
    H   H20  0.150124  0.636338  0.666541  0.079254
    H   H21  0.851215  0.681112  0.555402  0.229665
    H   H22  0.886234  0.716414  0.693989  0.187379
