# Generated by REPEAT Assigner based on pymatgen
data_DB0-m29_o83_o87_f0_pts.sym.31
_audit_creation_date              2022-05-24
_audit_creation_method            REPEAT_Assigner
_cell_length_a                    16.348275
_cell_length_b                    8.643042
_cell_length_c                    10.983704
_cell_angle_alpha                 77.905739
_cell_angle_beta                  89.233333
_cell_angle_gamma                 102.288486
_cell_volume                      1480.035502
_symmetry_space_group_name_H-M    P1
_symmetry_Int_Tables_number       1
loop_
    _symmetry_equiv_pos_site_id
    _symmetry_equiv_pos_as_xyz
    1  x,y,z
loop_
    _atom_site_type_symbol
    _atom_site_label
    _atom_site_fract_x
    _atom_site_fract_y
    _atom_site_fract_z
    _atom_type_partial_charge
    C   C1   0.284962  0.045084  0.075665  0.082870
    C   C2   0.266196  0.985216  0.968908  -0.074434
    C   C3   0.184117  0.961367  0.933326  -0.146334
    C   C4   0.223789  0.091016  0.138492  -0.215638
    C   C5   0.141464  0.062617  0.104451  0.198457
    C   C6   0.119763  0.994470  0.002683  0.007293
    C   C7   0.034774  0.962989  0.972744  0.109936
    C   C8   0.009257  0.893105  0.872483  -0.189948
    C   C9   0.927092  0.866484  0.843059  -0.214515
    C   C10  0.080283  0.098055  0.175037  -0.215557
    C   C11  0.998491  0.069650  0.145427  -0.136954
    C   C12  0.973466  0.000506  0.045281  0.033358
    C   C13  0.888630  0.969471  0.015922  0.029836
    C   C14  0.867410  0.904770  0.913073  0.253448
    C   C15  0.786231  0.878830  0.877518  -0.295322
    C   C16  0.823827  0.999442  0.086507  -0.155887
    C   C17  0.741783  0.974578  0.050705  -0.109748
    C   C18  0.724177  0.918405  0.942267  0.144510
    H   H1   0.173331  0.918127  0.849189  0.110008
    H   H2   0.050543  0.856347  0.813014  0.153370
    H   H3   0.909672  0.814091  0.763447  0.147047
    H   H4   0.093024  0.146540  0.257242  0.105335
    H   H5   0.956879  0.105002  0.205256  0.150895
    H   H6   0.771523  0.833588  0.794005  0.167356
    H   H7   0.834000  0.039711  0.171959  0.137018
    O   O1   0.595405  0.947959  0.111003  -0.596211
    C   C19  0.674463  0.997493  0.132983  0.691042
    O   O2   0.596226  0.726677  0.340022  -0.454239
    O   O3   0.693114  0.053634  0.233657  -0.476456
    O   O4   0.480377  0.807824  0.394681  -0.638278
    C   C20  0.529102  0.703787  0.414031  0.565333
    Fe  Fe1  0.508713  0.964051  0.232445  1.459537
    O   O5   0.398761  0.925064  0.152459  -0.622337
    O   O6   0.407659  0.190470  0.155507  -0.533260
    C   C21  0.367403  0.055234  0.127708  0.619651
    O   O7   0.556270  0.182203  0.269358  -0.603764
    O   O8   0.447912  0.091966  0.416069  -0.424187
    C   C22  0.512387  0.205597  0.362725  0.887264
    O   O9   0.452649  0.776079  0.750246  -0.600638
    O   O10  0.560366  0.867211  0.602262  -0.411633
    C   C23  0.496150  0.753233  0.656178  0.712332
    O   O11  0.608886  0.034226  0.868749  -0.612432
    O   O12  0.608382  0.777541  0.848007  -0.527571
    C   C24  0.642655  0.907100  0.888687  0.616569
    O   O13  0.313547  0.899077  0.788278  -0.546241
    O   O14  0.528893  0.150358  0.624586  -0.595168
    C   C25  0.480336  0.254577  0.605545  0.471181
    O   O15  0.412048  0.011063  0.907036  -0.598149
    C   C26  0.332873  0.959136  0.887056  0.685853
    O   O16  0.413896  0.232264  0.680752  -0.464717
    Fe  Fe2  0.499607  0.994718  0.786944  1.492273
    C   C27  0.524676  0.368967  0.388682  -0.346863
    C   C28  0.502070  0.395083  0.499873  0.180091
    C   C29  0.507183  0.563398  0.519717  -0.113472
    C   C30  0.484279  0.589729  0.630678  -0.108101
    H   H8   0.460888  0.492199  0.709663  0.145309
    H   H9   0.548064  0.466769  0.309833  0.177294
    C   C31  0.246134  0.165219  0.244957  0.281952
    C   C32  0.265439  0.073990  0.354860  -0.111923
    C   C33  0.279329  0.141586  0.457908  -0.368767
    C   C34  0.275023  0.300881  0.451629  0.438433
    O   O17  0.286599  0.360780  0.555667  -0.216518
    C   C35  0.280877  0.515288  0.561287  -0.041084
    C   C36  0.258240  0.393913  0.339659  -0.262587
    C   C37  0.243939  0.325664  0.237040  -0.085820
    H   H10  0.266877  0.948003  0.361686  0.104828
    H   H11  0.292296  0.068368  0.544904  0.249217
    H   H12  0.292361  0.533177  0.657187  0.111616
    H   H13  0.217112  0.532932  0.538651  0.044964
    H   H14  0.328832  0.604935  0.495478  0.114887
    H   H15  0.254608  0.519175  0.329739  0.126487
    H   H16  0.228889  0.397266  0.150665  0.107901
