# Generated by REPEAT Assigner based on pymatgen
data_DB0-m3_o11_o15_f0_pcu.sym.4
_audit_creation_date              2022-05-24
_audit_creation_method            REPEAT_Assigner
_cell_length_a                    10.916018
_cell_length_b                    11.161361
_cell_length_c                    9.953670
_cell_angle_alpha                 89.997373
_cell_angle_beta                  89.988146
_cell_angle_gamma                 90.002785
_cell_volume                      1212.731417
_symmetry_space_group_name_H-M    P1
_symmetry_Int_Tables_number       1
loop_
    _symmetry_equiv_pos_site_id
    _symmetry_equiv_pos_as_xyz
    1  x,y,z
loop_
    _atom_site_type_symbol
    _atom_site_label
    _atom_site_fract_x
    _atom_site_fract_y
    _atom_site_fract_z
    _atom_type_partial_charge
    O   O1   0.485878  0.320841  0.611572  -0.670724
    O   O2   0.478621  0.325319  0.381153  -0.620039
    C   C1   0.481751  0.266460  0.494826  0.785964
    O   O3   0.306588  0.503443  0.629082  -0.771685
    O   O4   0.299775  0.505526  0.397249  -0.753994
    C   C2   0.246060  0.505019  0.514759  1.031117
    Zn  Zn1  0.491021  0.498599  0.652869  1.030226
    Zn  Zn2  0.479562  0.504246  0.347497  1.042740
    O   O5   0.492746  0.677824  0.620110  -0.675476
    O   O6   0.484251  0.682095  0.387747  -0.638132
    O   O7   0.670832  0.497541  0.603161  -0.661519
    O   O8   0.664028  0.500490  0.371255  -0.691249
    C   C3   0.489407  0.735819  0.505149  0.786389
    C   C4   0.724540  0.498327  0.485613  0.855110
    H   H1   0.100037  0.887957  0.358026  0.074852
    C   C5   0.108879  0.301772  0.597893  -0.345546
    C   C6   0.045234  0.199771  0.631552  -0.020476
    C   C7   0.920372  0.196150  0.617137  -0.101757
    C   C8   0.858533  0.294523  0.569019  -0.223800
    C   C9   0.921305  0.398966  0.535874  0.164687
    C   C10  0.047594  0.402673  0.550716  0.286563
    C   C11  0.858884  0.497850  0.485118  -0.381731
    C   C12  0.923017  0.600795  0.449725  0.221102
    C   C13  0.049318  0.604475  0.464510  0.239585
    C   C14  0.111725  0.505598  0.515287  -0.451789
    C   C15  0.861744  0.701738  0.402643  -0.273809
    C   C16  0.925412  0.803719  0.368953  -0.082527
    C   C17  0.050290  0.807280  0.383232  -0.042994
    C   C18  0.112119  0.708879  0.431292  -0.286628
    H   H2   0.206963  0.298842  0.609973  0.180997
    H   H3   0.093792  0.122042  0.668439  0.079405
    H   H4   0.870643  0.115451  0.642298  0.084865
    H   H5   0.760873  0.285287  0.556237  0.163602
    H   H6   0.763652  0.704724  0.390690  0.151364
    H   H7   0.876860  0.881479  0.332137  0.090386
    H   H8   0.209798  0.718051  0.443973  0.154213
    C   C19  0.488077  0.931126  0.395240  -0.029319
    C   C20  0.494560  0.867225  0.508938  -0.351152
    H   H9   0.479252  0.883677  0.300885  0.089747
    H   H10  0.507974  0.909129  0.605732  0.159091
    C   C21  0.497420  0.063399  0.387553  0.249352
    C   C22  0.476681  0.134215  0.495154  -0.450683
    H   H11  0.453368  0.094565  0.590782  0.170132
    C   C23  0.487557  0.589881  0.925711  -0.040048
    N   N1   0.505008  0.495474  0.853312  0.027157
    H   H12  0.454460  0.671090  0.878529  0.138815
    C   C24  0.509587  0.592098  0.072285  0.101403
    N   N2   0.468161  0.507766  0.146970  -0.280456
    H   H13  0.553345  0.669303  0.117624  0.150828
    H   H14  0.412123  0.447358  0.099019  0.276376
    C   C25  0.530190  0.113823  0.252723  -0.268789
    H   H15  0.552169  0.040343  0.181840  0.055317
    H   H16  0.451776  0.164618  0.210622  0.099195
    H   H17  0.612674  0.171394  0.261112  0.091800
    C   C26  0.588088  0.406056  0.905615  -0.249735
    H   H18  0.628624  0.355601  0.820765  0.120621
    H   H19  0.665124  0.448293  0.960730  0.121142
    H   H20  0.538736  0.340409  0.969120  0.089914
