data_DB0-m2_o11_o23_f0_pcu.sym.36_repeat
_audit_creation_date              2024-02-23
_audit_creation_method            'Materials Studio'
_symmetry_space_group_name_H-M    'P1'
_symmetry_Int_Tables_number       1
_symmetry_cell_setting            triclinic
loop_
_symmetry_equiv_pos_as_xyz
  x,y,z
_cell_length_a                    15.8600
_cell_length_b                    11.0375
_cell_length_c                    9.5551
_cell_angle_alpha                 90.0205
_cell_angle_beta                  89.9973
_cell_angle_gamma                 89.9983
loop_
_atom_site_label
_atom_site_type_symbol
_atom_site_fract_x
_atom_site_fract_y
_atom_site_fract_z
_atom_site_U_iso_or_equiv
_atom_site_adp_type
_atom_site_occupancy
O1     O     0.49808   0.32418   0.61822   0.00000  Uiso   1.00
O2     O     0.49934   0.32201   0.37693   0.00000  Uiso   1.00
C1     C     0.49632   0.26656   0.49864   0.00000  Uiso   1.00
O3     O     0.37276   0.49537   0.61429   0.00000  Uiso   1.00
O4     O     0.37492   0.49415   0.37309   0.00000  Uiso   1.00
C2     C     0.33469   0.49847   0.49281   0.00000  Uiso   1.00
Cu1    Cu    0.49617   0.50022   0.63556   0.00000  Uiso   1.00
Cu2    Cu    0.49701   0.49828   0.35521   0.00000  Uiso   1.00
O5     O     0.49688   0.67587   0.61322   0.00000  Uiso   1.00
O6     O     0.49918   0.67430   0.37376   0.00000  Uiso   1.00
O7     O     0.61787   0.49688   0.61862   0.00000  Uiso   1.00
O8     O     0.61996   0.49431   0.37745   0.00000  Uiso   1.00
C3     C     0.49515   0.73162   0.49313   0.00000  Uiso   1.00
C4     C     0.65818   0.49921   0.49920   0.00000  Uiso   1.00
C5     C     0.04678   0.44069   0.62945   0.00000  Uiso   1.00
C6     C     0.04423   0.42720   0.36950   0.00000  Uiso   1.00
C7     C     0.94890   0.43198   0.36848   0.00000  Uiso   1.00
H1     H     0.07714   0.35115   0.64527   0.00000  Uiso   1.00
H2     H     0.06969   0.46694   0.27150   0.00000  Uiso   1.00
H3     H     0.06555   0.33181   0.37781   0.00000  Uiso   1.00
H4     H     0.92412   0.33835   0.36343   0.00000  Uiso   1.00
H5     H     0.92663   0.47627   0.27168   0.00000  Uiso   1.00
C8     C     0.74884   0.49718   0.50042   0.00000  Uiso   1.00
C9     C     0.07680   0.49785   0.49367   0.00000  Uiso   1.00
C10    C     0.95107   0.43228   0.62823   0.00000  Uiso   1.00
C11    C     0.91762   0.49849   0.49920   0.00000  Uiso   1.00
C12    C     0.94960   0.63036   0.49943   0.00000  Uiso   1.00
C13    C     0.04579   0.62794   0.48492   0.00000  Uiso   1.00
C14    C     0.82507   0.49725   0.50126   0.00000  Uiso   1.00
C15    C     0.16860   0.49638   0.49021   0.00000  Uiso   1.00
C16    C     0.24436   0.49657   0.49074   0.00000  Uiso   1.00
H6     H     0.07710   0.68250   0.56732   0.00000  Uiso   1.00
H7     H     0.06528   0.66596   0.38262   0.00000  Uiso   1.00
H8     H     0.06633   0.49972   0.71740   0.00000  Uiso   1.00
H9     H     0.92687   0.47417   0.72581   0.00000  Uiso   1.00
C17    C     0.49402   0.93264   0.38254   0.00000  Uiso   1.00
C18    C     0.49674   0.86359   0.49752   0.00000  Uiso   1.00
H10    H     0.48996   0.89084   0.28009   0.00000  Uiso   1.00
H11    H     0.49973   0.90217   0.60126   0.00000  Uiso   1.00
C19    C     0.49391   0.06665   0.38683   0.00000  Uiso   1.00
C20    C     0.49770   0.13323   0.50378   0.00000  Uiso   1.00
H12    H     0.48898   0.11268   0.28758   0.00000  Uiso   1.00
H13    H     0.50123   0.09351   0.60659   0.00000  Uiso   1.00
C21    C     0.44611   0.43365   0.92111   0.00000  Uiso   1.00
N1     N     0.49260   0.50247   0.84504   0.00000  Uiso   1.00
H14    H     0.52006   0.57763   0.88977   0.00000  Uiso   1.00
C22    C     0.44135   0.44265   0.07536   0.00000  Uiso   1.00
N2     N     0.49881   0.49702   0.14576   0.00000  Uiso   1.00
H15    H     0.39042   0.39896   0.12977   0.00000  Uiso   1.00
H16    H     0.55353   0.51778   0.09318   0.00000  Uiso   1.00
N3     N     0.92302   0.30684   0.62772   0.00000  Uiso   1.00
H17    H     0.92359   0.27617   0.73094   0.00000  Uiso   1.00
H18    H     0.96509   0.25368   0.57066   0.00000  Uiso   1.00
N4     N     0.91205   0.69821   0.38331   0.00000  Uiso   1.00
H19    H     0.93594   0.66974   0.28727   0.00000  Uiso   1.00
H20    H     0.92821   0.78964   0.39136   0.00000  Uiso   1.00
N5     N     0.39430   0.34598   0.85617   0.00000  Uiso   1.00
H21    H     0.41351   0.26284   0.89634   0.00000  Uiso   1.00
H22    H     0.33321   0.36244   0.89142   0.00000  Uiso   1.00
N6     N     0.92525   0.68950   0.63045   0.00000  Uiso   1.00
H23    H     0.92585   0.78339   0.61726   0.00000  Uiso   1.00
H24    H     0.96837   0.67002   0.70965   0.00000  Uiso   1.00
