# Generated by REPEAT Assigner based on pymatgen
data_DB0-m2_o2_o15_f0_pcu.sym.7
_audit_creation_date              2022-05-24
_audit_creation_method            REPEAT_Assigner
_cell_length_a                    15.103965
_cell_length_b                    13.745955
_cell_length_c                    10.918663
_cell_angle_alpha                 90.000000
_cell_angle_beta                  89.999580
_cell_angle_gamma                 90.000000
_cell_volume                      2266.915648
_symmetry_space_group_name_H-M    P1
_symmetry_Int_Tables_number       1
loop_
    _symmetry_equiv_pos_site_id
    _symmetry_equiv_pos_as_xyz
    1  x,y,z
loop_
    _atom_site_type_symbol
    _atom_site_label
    _atom_site_fract_x
    _atom_site_fract_y
    _atom_site_fract_z
    _atom_type_partial_charge
    O   O1   0.371920  0.584092  0.482145  -0.460369
    O   O2   0.628121  0.416229  0.513424  -0.408458
    O   O3   0.628757  0.582831  0.505253  -0.456048
    O   O4   0.371039  0.417858  0.499883  -0.386693
    C   C1   0.329871  0.501008  0.488671  0.364627
    C   C2   0.670042  0.499388  0.511199  0.380678
    O   O5   0.505847  0.580402  0.320123  -0.459764
    O   O6   0.497033  0.420093  0.680482  -0.480119
    O   O7   0.488383  0.585704  0.675226  -0.468934
    O   O8   0.507864  0.414477  0.324921  -0.496380
    C   C3   0.513851  0.496255  0.263598  0.643607
    C   C4   0.485978  0.503832  0.736847  0.630082
    Cu  Cu1  0.500126  0.597205  0.497573  0.756355
    Cu  Cu2  0.499888  0.403105  0.503022  0.731736
    H   H1   0.493241  0.164187  0.084554  0.081619
    H   H2   0.501532  0.835216  0.917618  0.085666
    H   H3   0.407936  0.183831  0.894747  0.087982
    H   H4   0.590880  0.816085  0.103921  0.080287
    C   C5   0.568542  0.663066  0.113574  -0.169873
    C   C6   0.431429  0.336534  0.885537  -0.156457
    C   C7   0.481739  0.682553  0.896000  -0.115807
    C   C8   0.514669  0.316685  0.105779  -0.109518
    C   C9   0.561314  0.753263  0.060570  -0.077064
    C   C10  0.436981  0.246447  0.939179  -0.093978
    C   C11  0.512568  0.763704  0.955894  -0.113497
    C   C12  0.483321  0.235770  0.045902  -0.103414
    C   C13  0.496877  0.589579  0.942201  0.125259
    C   C14  0.501460  0.409863  0.058556  0.130728
    C   C15  0.527578  0.582132  0.061829  0.189307
    C   C16  0.471793  0.417361  0.938297  0.176563
    C   C17  0.478415  0.505294  0.874502  -0.276470
    C   C18  0.520872  0.494294  0.125913  -0.290117
    H   H5   0.608879  0.657356  0.194845  0.092996
    H   H6   0.392309  0.342498  0.803219  0.091419
    H   H7   0.441474  0.695317  0.816368  0.078219
    H   H8   0.554173  0.303359  0.186053  0.072902
    C   C19  0.094384  0.581610  0.456510  -0.118926
    C   C20  0.904124  0.415595  0.479177  -0.098640
    C   C21  0.904832  0.584158  0.530820  -0.129703
    C   C22  0.096378  0.419108  0.532827  -0.116062
    H   H9   0.059350  0.645164  0.424279  0.102978
    H   H10  0.937635  0.349310  0.453207  0.100931
    H   H11  0.939033  0.650893  0.552788  0.105606
    H   H12  0.063496  0.355208  0.568107  0.102719
    C   C23  0.185759  0.582153  0.453741  -0.194599
    C   C24  0.812937  0.414955  0.484715  -0.216992
    C   C25  0.813541  0.583820  0.534275  -0.158944
    C   C26  0.187501  0.418946  0.527381  -0.200123
    H   H13  0.219614  0.646635  0.421956  0.142594
    H   H14  0.778156  0.348117  0.464510  0.142629
    H   H15  0.779089  0.650362  0.556648  0.119176
    H   H16  0.222668  0.354673  0.556955  0.139292
    C   C27  0.232801  0.500670  0.488900  0.157825
    C   C28  0.767088  0.499217  0.511434  0.148582
    C   C29  0.048758  0.500378  0.497281  0.067708
    C   C30  0.951117  0.500129  0.502507  0.055511
    C   C31  0.564861  0.106990  0.563776  -0.468761
    C   C32  0.450795  0.893962  0.414717  -0.451920
    C   C33  0.434774  0.107558  0.444141  -0.472238
    C   C34  0.553669  0.891515  0.577695  -0.469318
    H   H17  0.619717  0.072858  0.609719  0.163014
    H   H18  0.411033  0.929433  0.346166  0.148244
    H   H19  0.379876  0.073556  0.398244  0.167802
    H   H20  0.594424  0.924974  0.646706  0.157270
    C   C35  0.561769  0.207228  0.568527  0.574404
    C   C36  0.450172  0.793521  0.414871  0.540872
    C   C37  0.436980  0.207842  0.443138  0.597240
    C   C38  0.554450  0.791207  0.572064  0.536635
    N   N1   0.498993  0.257352  0.506687  -0.401012
    N   N2   0.500584  0.742918  0.494541  -0.363966
    C   C39  0.500420  0.054337  0.502112  0.241286
    C   C40  0.501343  0.945592  0.498503  0.263354
    O   O9   0.623172  0.254784  0.638034  -0.481169
    H   H21  0.600874  0.248771  0.722964  0.324921
    O   O10  0.396320  0.745976  0.334297  -0.458157
    H   H22  0.422639  0.758900  0.252934  0.318421
    O   O11  0.373609  0.256259  0.378056  -0.501033
    H   H23  0.388624  0.243868  0.291272  0.328063
    O   O12  0.610031  0.741019  0.647908  -0.446262
    H   H24  0.599750  0.768896  0.730030  0.323680
