# generated using pymatgen
data_Zn2H55C78N7O8
_symmetry_space_group_name_H-M   'P 1'
_cell_length_a   15.36463100
_cell_length_b   11.69700200
_cell_length_c   13.45562100
_cell_angle_alpha   90.14617600
_cell_angle_beta   89.99342400
_cell_angle_gamma   90.00000000
_symmetry_Int_Tables_number   1
_chemical_formula_structural   Zn2H55C78N7O8
_chemical_formula_sum   'Zn2 H55 C78 N7 O8'
_cell_volume   2418.23792858
_cell_formula_units_Z   1
loop_
 _symmetry_equiv_pos_site_id
 _symmetry_equiv_pos_as_xyz
  1  'x, y, z'
loop_
 _atom_site_type_symbol
 _atom_site_label
 _atom_site_symmetry_multiplicity
 _atom_site_fract_x
 _atom_site_fract_y
 _atom_site_fract_z
 _atom_site_occupancy
  Zn  Zn1  1  0.48910100  0.50125400  0.89459700  1
  Zn  Zn2  1  0.48493500  0.50650000  0.11702400  1
  H  H1  1  0.17378100  0.91441300  0.14452800  1
  H  H2  1  0.26162600  0.70138200  0.84667400  1
  H  H3  1  0.30207300  0.79084200  0.15012100  1
  H  H4  1  0.17440400  0.09435600  0.85679900  1
  H  H5  1  0.25704400  0.30861200  0.15690700  1
  H  H6  1  0.30138700  0.21989600  0.85223300  1
  H  H7  1  0.12960700  0.18559800  0.15933500  1
  H  H8  1  0.79201700  0.92510200  0.15053700  1
  H  H9  1  0.72659600  0.68190900  0.86181000  1
  H  H10  1  0.66517100  0.79904900  0.15495500  1
  H  H11  1  0.85214900  0.80774400  0.85819000  1
  H  H12  1  0.79457900  0.08594100  0.86625000  1
  H  H13  1  0.71199700  0.30353500  0.16469300  1
  H  H14  1  0.66522100  0.20699900  0.86245700  1
  H  H15  1  0.84244500  0.18503100  0.16627000  1
  H  H16  1  0.98769000  0.79551900  0.98514100  1
  H  H17  1  0.98550200  0.21194100  0.02941600  1
  H  H18  1  0.50946800  0.68087700  0.25632500  1
  H  H19  1  0.60035200  0.74908700  0.59686000  1
  H  H20  1  0.44878400  0.33278600  0.75328300  1
  H  H21  1  0.53876700  0.25516400  0.45492900  1
  H  H22  1  0.64965400  0.62837000  0.53742200  1
  H  H23  1  0.46531200  0.22610100  0.59781700  1
  H  H24  1  0.43138300  0.23046200  0.40833600  1
  H  H25  1  0.46057800  0.32793800  0.25579700  1
  H  H26  1  0.43474000  0.75457200  0.52268000  1
  H  H27  1  0.30713200  0.79038000  0.45058000  1
  H  H28  1  0.22321600  0.91234300  0.34039300  1
  H  H29  1  0.29724600  0.03946500  0.22226300  1
  H  H30  1  0.45667400  0.04037100  0.21286600  1
  H  H31  1  0.54190000  0.92418200  0.32315200  1
  H  H32  1  0.32461700  0.21099300  0.53706000  1
  H  H33  1  0.26982500  0.27976300  0.38385900  1
  H  H34  1  0.17978000  0.42758400  0.30665900  1
  H  H35  1  0.15168700  0.60845900  0.39438500  1
  H  H36  1  0.21226400  0.63986000  0.56137200  1
  H  H37  1  0.30155700  0.49229400  0.63980800  1
  H  H38  1  0.64669000  0.69809100  0.34894400  1
  H  H39  1  0.78686400  0.73048900  0.39054400  1
  H  H40  1  0.89546900  0.85474900  0.46695500  1
  H  H41  1  0.85043900  0.02636700  0.55928600  1
  H  H42  1  0.69522000  0.07422800  0.57363000  1
  H  H43  1  0.58558500  0.95247300  0.49788100  1
  H  H44  1  0.60080200  0.72492600  0.75996000  1
  H  H45  1  0.57627200  0.92003200  0.77361000  1
  H  H46  1  0.47970300  0.08198300  0.74235200  1
  H  H47  1  0.32780100  0.04932600  0.69225900  1
  H  H48  1  0.27241300  0.85320700  0.67539400  1
  H  H49  1  0.36633800  0.69057400  0.70858300  1
  H  H50  1  0.09448900  0.90496300  0.80510400  1
  H  H51  1  0.02980600  0.82170100  0.65660000  1
  H  H52  1  0.94111100  0.66291000  0.59468000  1
  H  H53  1  0.93379400  0.48274200  0.68792600  1
  H  H54  1  0.01477800  0.46249300  0.84423300  1
  H  H55  1  0.10169100  0.61758600  0.90826300  1
  C  C1  1  0.29294000  0.74121300  0.99777900  1
  C  C2  1  0.06498500  0.94610000  0.99487100  1
  C  C3  1  0.19454100  0.87014000  0.07806300  1
  C  C4  1  0.24429400  0.75029000  0.91176500  1
  C  C5  1  0.26670400  0.80001600  0.08139700  1
  C  C6  1  0.14639500  0.88048500  0.99191600  1
  C  C7  1  0.17009700  0.81726900  0.90879200  1
  C  C8  1  0.28866300  0.27269000  0.00437100  1
  C  C9  1  0.06433700  0.06335200  0.00966000  1
  C  C10  1  0.19355000  0.14004800  0.92319100  1
  C  C11  1  0.24052700  0.26099800  0.09064300  1
  C  C12  1  0.26484400  0.21184500  0.92049400  1
  C  C13  1  0.14474500  0.13031700  0.00900400  1
  C  C14  1  0.16812000  0.19167500  0.09231100  1
  C  C15  1  0.68614600  0.73325400  0.00800600  1
  C  C16  1  0.90891000  0.94416500  0.00248500  1
  C  C17  1  0.77630700  0.87361200  0.08617400  1
  C  C18  1  0.73879900  0.73694100  0.92483900  1
  C  C19  1  0.70532400  0.80144300  0.08903300  1
  C  C20  1  0.82893200  0.87668100  0.00293300  1
  C  C21  1  0.81036400  0.80738500  0.92283900  1
  C  C22  1  0.98716300  0.88756100  0.99204300  1
  C  C23  1  0.67872200  0.26305700  0.01360300  1
  C  C24  1  0.90801600  0.06148600  0.01602200  1
  C  C25  1  0.77558500  0.13230000  0.93238800  1
  C  C26  1  0.72840200  0.25462300  0.09908300  1
  C  C27  1  0.70269200  0.20131300  0.93023700  1
  C  C28  1  0.82630100  0.12633500  0.01699200  1
  C  C29  1  0.80263200  0.18818000  0.10009500  1
  C  C30  1  0.98595700  0.11999200  0.02107800  1
  C  C31  1  0.61243300  0.65433700  0.01002600  1
  C  C32  1  0.60557800  0.34376200  0.00960800  1
  C  C33  1  0.36214000  0.35255300  0.00223300  1
  C  C34  1  0.36748300  0.66273100  0.00203500  1
  C  C35  1  0.47150500  0.40625800  0.29662900  1
  C  C36  1  0.50016500  0.60274700  0.29743900  1
  C  C37  1  0.51271500  0.60203400  0.39972400  1
  C  C38  1  0.49924200  0.50038400  0.45060100  1
  C  C39  1  0.47734100  0.40305900  0.39899100  1
  C  C40  1  0.54735200  0.70735200  0.45234700  1
  C  C41  1  0.58689500  0.67226000  0.55211200  1
  C  C42  1  0.53155200  0.58999500  0.60899100  1
  C  C43  1  0.50211600  0.49662900  0.55856300  1
  C  C44  1  0.46946500  0.40510700  0.61054300  1
  C  C45  1  0.43778800  0.30049500  0.55780200  1
  C  C46  1  0.47204200  0.29111900  0.45148900  1
  C  C47  1  0.51901400  0.59729600  0.71155400  1
  C  C48  1  0.46938800  0.40802600  0.71352900  1
  C  C49  1  0.43154800  0.84282800  0.39376200  1
  C  C50  1  0.34139600  0.84250200  0.39716000  1
  C  C51  1  0.29345000  0.91239400  0.33569900  1
  C  C52  1  0.33477400  0.98369200  0.26968000  1
  C  C53  1  0.42408600  0.98366400  0.26412100  1
  C  C54  1  0.47240100  0.91499200  0.32630400  1
  C  C55  1  0.29599000  0.37844700  0.51499000  1
  C  C56  1  0.25879000  0.35939500  0.42281700  1
  C  C57  1  0.20783500  0.44236600  0.37922500  1
  C  C58  1  0.19197800  0.54368700  0.42840000  1
  C  C59  1  0.22622600  0.56144700  0.52177800  1
  C  C60  1  0.27746400  0.47878600  0.56531100  1
  C  C61  1  0.67766400  0.82997800  0.44042100  1
  C  C62  1  0.76546100  0.80533900  0.43102000  1
  C  C63  1  0.82715300  0.87532000  0.47403600  1
  C  C64  1  0.80199100  0.97149300  0.52573000  1
  C  C65  1  0.71500600  0.99813500  0.53385900  1
  C  C66  1  0.65303300  0.92840500  0.49101600  1
  C  C67  1  0.47928000  0.79350000  0.74155200  1
  C  C68  1  0.50967300  0.90421100  0.75159600  1
  C  C69  1  0.45540400  0.99577500  0.73409700  1
  C  C70  1  0.37031900  0.97751500  0.70622800  1
  C  C71  1  0.33931700  0.86754900  0.69686600  1
  C  C72  1  0.39312800  0.77559300  0.71541300  1
  C  C73  1  0.07380700  0.73230400  0.78554700  1
  C  C74  1  0.02696900  0.74295500  0.69836500  1
  C  C75  1  0.97708000  0.65366500  0.66323000  1
  C  C76  1  0.97301200  0.55275500  0.71536200  1
  C  C77  1  0.01860100  0.54143700  0.80286800  1
  C  C78  1  0.06875200  0.63045100  0.83838300  1
  N  N1  1  0.48175700  0.50556400  0.24745000  1
  N  N2  1  0.49286200  0.50353400  0.76375300  1
  N  N3  1  0.47756100  0.78803400  0.47212300  1
  N  N4  1  0.34385000  0.29033700  0.56189200  1
  N  N5  1  0.61576400  0.75825600  0.39218900  1
  N  N6  1  0.53637200  0.70122500  0.76169700  1
  N  N7  1  0.12374700  0.82737700  0.81828700  1
  O  O1  1  0.58155200  0.62034900  0.09563400  1
  O  O2  1  0.58280100  0.61649200  0.92513400  1
  O  O3  1  0.57919900  0.38011900  0.92213300  1
  O  O4  1  0.57413600  0.38290500  0.09399800  1
  O  O5  1  0.39219700  0.38762200  0.91579700  1
  O  O6  1  0.39245100  0.38902000  0.08795300  1
  O  O7  1  0.39366400  0.62602100  0.08928800  1
  O  O8  1  0.40015300  0.62504500  0.91797200  1
