# generated using pymatgen
data_CuH14C16(NO2)2
_symmetry_space_group_name_H-M   'P 1'
_cell_length_a   9.43737200
_cell_length_b   10.84568300
_cell_length_c   16.99201900
_cell_angle_alpha   89.62832700
_cell_angle_beta   93.63232000
_cell_angle_gamma   90.01949400
_symmetry_Int_Tables_number   1
_chemical_formula_structural   CuH14C16(NO2)2
_chemical_formula_sum   'Cu2 H28 C32 N4 O8'
_cell_volume   1735.68342963
_cell_formula_units_Z   2
loop_
 _symmetry_equiv_pos_site_id
 _symmetry_equiv_pos_as_xyz
  1  'x, y, z'
loop_
 _atom_site_type_symbol
 _atom_site_label
 _atom_site_symmetry_multiplicity
 _atom_site_fract_x
 _atom_site_fract_y
 _atom_site_fract_z
 _atom_site_occupancy
  Cu  Cu1  1  0.64153600  0.50203800  0.49823800  1
  Cu  Cu2  1  0.35849000  0.49839300  0.50209400  1
  H  H1  1  0.69142100  0.48943000  0.25327100  1
  H  H2  1  0.30860200  0.51096700  0.74705500  1
  H  H3  1  0.68219800  0.49101200  0.11285400  1
  H  H4  1  0.31782400  0.50937500  0.88747700  1
  H  H5  1  0.77246100  0.49248500  0.89468700  1
  H  H6  1  0.22756600  0.50794300  0.10563900  1
  H  H7  1  0.76213000  0.49401000  0.75067600  1
  H  H8  1  0.23787700  0.50642100  0.24964600  1
  H  H9  1  0.28458400  0.11580600  0.45846900  1
  H  H10  1  0.71541700  0.88464000  0.54189300  1
  H  H11  1  0.27790300  0.89222400  0.45995800  1
  H  H12  1  0.72208400  0.10822100  0.54040200  1
  H  H13  1  0.86251400  0.37623700  0.58656600  1
  H  H14  1  0.13751300  0.62420200  0.41378000  1
  H  H15  1  0.28570500  0.11880000  0.63343500  1
  H  H16  1  0.16167300  0.13390000  0.70981200  1
  H  H17  1  0.13378000  0.01758900  0.63469200  1
  H  H18  1  0.97180200  0.19163900  0.60909500  1
  H  H19  1  0.09544100  0.18197800  0.53263400  1
  H  H20  1  0.25018000  0.33424400  0.61434900  1
  H  H21  1  0.10187700  0.36074900  0.67181500  1
  H  H22  1  0.83839100  0.86667000  0.29062400  1
  H  H23  1  0.71428500  0.88164000  0.36697900  1
  H  H24  1  0.86618600  0.98290500  0.36580700  1
  H  H25  1  0.90451100  0.81841800  0.46778800  1
  H  H26  1  0.02819300  0.80888400  0.39134200  1
  H  H27  1  0.89821800  0.63977300  0.32854100  1
  H  H28  1  0.74985500  0.66618700  0.38597600  1
  C  C1  1  0.50479200  0.26321400  0.50117100  1
  C  C2  1  0.49522700  0.73721400  0.49916500  1
  C  C3  1  0.52486900  0.50222600  0.65175000  1
  C  C4  1  0.47515300  0.49821100  0.34858200  1
  C  C5  1  0.53468200  0.50246900  0.73829300  1
  C  C6  1  0.46533800  0.49797000  0.26204100  1
  C  C7  1  0.41171400  0.50685400  0.77840900  1
  C  C8  1  0.58830500  0.49356300  0.22192300  1
  C  C9  1  0.41755200  0.50590100  0.85960300  1
  C  C10  1  0.58246800  0.49451300  0.14072900  1
  C  C11  1  0.54778900  0.50053200  0.90204200  1
  C  C12  1  0.45223000  0.49989700  0.09829100  1
  C  C13  1  0.67053100  0.49662100  0.86195900  1
  C  C14  1  0.32949000  0.50381400  0.13837500  1
  C  C15  1  0.66448700  0.49754400  0.78055100  1
  C  C16  1  0.33553200  0.50289000  0.21978200  1
  C  C17  1  0.37950200  0.06587400  0.47781400  1
  C  C18  1  0.62049300  0.93455100  0.52254400  1
  C  C19  1  0.37561300  0.93876200  0.47829500  1
  C  C20  1  0.62438500  0.06166100  0.52205900  1
  C  C21  1  0.49642900  0.87237500  0.50026700  1
  C  C22  1  0.50357600  0.12804700  0.50007900  1
  C  C23  1  0.06908400  0.42209800  0.55241400  1
  C  C24  1  0.93094800  0.57833500  0.44792100  1
  C  C25  1  0.92268300  0.43097700  0.54732600  1
  C  C26  1  0.07734600  0.56945900  0.45301300  1
  C  C27  1  0.13423400  0.33389900  0.61268800  1
  C  C28  1  0.08438800  0.20285900  0.59564100  1
  C  C29  1  0.17242100  0.11260900  0.64672000  1
  C  C30  1  0.86580600  0.66656500  0.38766600  1
  C  C31  1  0.91560500  0.79759900  0.40477600  1
  C  C32  1  0.82757800  0.88788900  0.35372200  1
  N  N1  1  0.55877900  0.49879000  0.98552300  1
  N  N2  1  0.44123800  0.50162800  0.01480900  1
  N  N3  1  0.85335700  0.50583800  0.49457400  1
  N  N4  1  0.14667100  0.49459100  0.50575900  1
  O  O1  1  0.62630800  0.32242500  0.50267800  1
  O  O2  1  0.37371400  0.67800400  0.49765400  1
  O  O3  1  0.38242200  0.31971000  0.50012300  1
  O  O4  1  0.61760200  0.68072000  0.50021300  1
  O  O5  1  0.64104200  0.49868600  0.61324900  1
  O  O6  1  0.35898200  0.50174100  0.38708400  1
  O  O7  1  0.39807600  0.50474100  0.61613200  1
  O  O8  1  0.60194700  0.49569300  0.38420100  1
