# generated using pymatgen
data_Cu3H14(C2O)16
_symmetry_space_group_name_H-M   'P 1'
_cell_length_a   23.64194100
_cell_length_b   31.82077800
_cell_length_c   23.63926900
_cell_angle_alpha   90.00000000
_cell_angle_beta   90.00000000
_cell_angle_gamma   90.00000000
_symmetry_Int_Tables_number   1
_chemical_formula_structural   Cu3H14(C2O)16
_chemical_formula_sum   'Cu12 H56 C128 O64'
_cell_volume   17783.93922610
_cell_formula_units_Z   4
loop_
 _symmetry_equiv_pos_site_id
 _symmetry_equiv_pos_as_xyz
  1  'x, y, z'
loop_
 _atom_site_type_symbol
 _atom_site_label
 _atom_site_symmetry_multiplicity
 _atom_site_fract_x
 _atom_site_fract_y
 _atom_site_fract_z
 _atom_site_occupancy
  Cu  Cu1  1  0.55787200  0.99961600  0.50038100  1
  Cu  Cu2  1  0.05787200  0.50038400  0.00038200  1
  Cu  Cu3  1  0.44507900  0.99960700  0.50038000  1
  Cu  Cu4  1  0.94507900  0.50039200  0.00038100  1
  Cu  Cu5  1  0.49888200  0.49956800  0.44353500  1
  Cu  Cu6  1  0.49887700  0.49963400  0.55627200  1
  Cu  Cu7  1  0.99888300  0.00037900  0.94353600  1
  Cu  Cu8  1  0.99887600  0.00041900  0.05627300  1
  Cu  Cu9  1  0.49895700  0.95854500  0.00035300  1
  Cu  Cu10  1  0.49896400  0.04227600  0.00040800  1
  Cu  Cu11  1  0.99896300  0.45772300  0.50036700  1
  Cu  Cu12  1  0.99895800  0.54145400  0.50039200  1
  H  H1  1  0.45086700  0.77618900  0.41636900  1
  H  H2  1  0.45085600  0.22310000  0.58349700  1
  H  H3  1  0.45395900  0.22318600  0.41526800  1
  H  H4  1  0.45401300  0.77593100  0.58459700  1
  H  H5  1  0.95081900  0.27699000  0.91646400  1
  H  H6  1  0.95087600  0.72389000  0.08340500  1
  H  H7  1  0.95400300  0.72398800  0.91517700  1
  H  H8  1  0.95399700  0.27672200  0.08469100  1
  H  H9  1  0.40282900  0.72437900  0.50127500  1
  H  H10  1  0.40279900  0.27482500  0.49852700  1
  H  H11  1  0.90280000  0.22517300  0.00137200  1
  H  H12  1  0.90282800  0.77561900  0.99843600  1
  H  H13  1  0.59745600  0.77492900  0.49777000  1
  H  H14  1  0.59742300  0.22427300  0.50206000  1
  H  H15  1  0.09742300  0.27572900  0.99783700  1
  H  H16  1  0.09745500  0.72507300  0.00199100  1
  H  H17  1  0.63065600  0.67480400  0.34581800  1
  H  H18  1  0.56409700  0.67444000  0.30747600  1
  H  H19  1  0.60689400  0.60522300  0.38731500  1
  H  H20  1  0.60810200  0.60345800  0.31070600  1
  H  H21  1  0.54120100  0.60484900  0.34801300  1
  H  H22  1  0.63068200  0.32449400  0.65387100  1
  H  H23  1  0.56413700  0.32488400  0.69223700  1
  H  H24  1  0.60690500  0.39405600  0.61231100  1
  H  H25  1  0.60816600  0.39585900  0.68891800  1
  H  H26  1  0.54124000  0.39445600  0.65165900  1
  H  H27  1  0.57119500  0.32524700  0.31110400  1
  H  H28  1  0.63628500  0.32472300  0.35188800  1
  H  H29  1  0.54688500  0.39473500  0.35115300  1
  H  H30  1  0.61512000  0.39619100  0.31635300  1
  H  H31  1  0.61107800  0.39419700  0.39285400  1
  H  H32  1  0.57128300  0.67383000  0.68860600  1
  H  H33  1  0.63636000  0.67437900  0.64780200  1
  H  H34  1  0.54696500  0.60436300  0.64851300  1
  H  H35  1  0.61522200  0.60289200  0.68326800  1
  H  H36  1  0.61113200  0.60492400  0.60677200  1
  H  H37  1  0.13060400  0.17562000  0.84586600  1
  H  H38  1  0.06404000  0.17525800  0.80753300  1
  H  H39  1  0.10685200  0.10603400  0.88735400  1
  H  H40  1  0.10805200  0.10427800  0.81074400  1
  H  H41  1  0.04115500  0.10566200  0.84805800  1
  H  H42  1  0.13068500  0.82528100  0.15382400  1
  H  H43  1  0.06413500  0.82566300  0.19218000  1
  H  H44  1  0.10690600  0.89484700  0.11227600  1
  H  H45  1  0.10815900  0.89664000  0.18888300  1
  H  H46  1  0.04123600  0.89523900  0.15161700  1
  H  H47  1  0.07124300  0.82606500  0.81104600  1
  H  H48  1  0.13632800  0.82553900  0.85183600  1
  H  H49  1  0.04692300  0.89554700  0.85110900  1
  H  H50  1  0.11515900  0.89701000  0.81631200  1
  H  H51  1  0.11111500  0.89500800  0.89281200  1
  H  H52  1  0.07129400  0.17461000  0.18866000  1
  H  H53  1  0.13636300  0.17516700  0.14784400  1
  H  H54  1  0.04697500  0.10514700  0.14855300  1
  H  H55  1  0.11523700  0.10367400  0.18329800  1
  H  H56  1  0.11113600  0.10571700  0.10680200  1
  C  C1  1  0.50143700  0.99934300  0.39192900  1
  C  C2  1  0.50143600  0.99921700  0.60885500  1
  C  C3  1  0.00143700  0.50079500  0.89193100  1
  C  C4  1  0.00143600  0.50064200  0.10885700  1
  C  C5  1  0.50131400  0.91902900  0.50074200  1
  C  C6  1  0.50129300  0.08017200  0.50096500  1
  C  C7  1  0.00129400  0.41982600  0.00077900  1
  C  C8  1  0.00131300  0.58096900  0.00092900  1
  C  C9  1  0.52495200  0.73615600  0.45411700  1
  C  C10  1  0.52493400  0.26308900  0.54566900  1
  C  C11  1  0.52658700  0.26313800  0.45589300  1
  C  C12  1  0.52663000  0.73602200  0.54389300  1
  C  C13  1  0.02491300  0.23695700  0.95419300  1
  C  C14  1  0.02495700  0.76388400  0.04559400  1
  C  C15  1  0.02662300  0.76393900  0.95581800  1
  C  C16  1  0.02660900  0.23681700  0.04396900  1
  C  C17  1  0.47280700  0.76377600  0.45430600  1
  C  C18  1  0.47279100  0.23547700  0.54553600  1
  C  C19  1  0.47447400  0.23552000  0.45404000  1
  C  C20  1  0.47452100  0.76363300  0.54580100  1
  C  C21  1  0.97276700  0.26457500  0.95439500  1
  C  C22  1  0.97281600  0.73627000  0.04544900  1
  C  C23  1  0.97451100  0.73632000  0.95395400  1
  C  C24  1  0.97449800  0.26442600  0.04589000  1
  C  C25  1  0.50096800  0.87396600  0.50017300  1
  C  C26  1  0.50093800  0.12523500  0.50054100  1
  C  C27  1  0.00093800  0.37476400  0.00024200  1
  C  C28  1  0.00096700  0.62603300  0.00047400  1
  C  C29  1  0.49862800  0.62527500  0.49938800  1
  C  C30  1  0.49860800  0.37392800  0.50039100  1
  C  C31  1  0.99860800  0.12607200  0.99944200  1
  C  C32  1  0.99862800  0.87472500  0.00033900  1
  C  C33  1  0.55325600  0.76329800  0.49856800  1
  C  C34  1  0.55322400  0.23590300  0.50126200  1
  C  C35  1  0.05322400  0.26409800  0.99864100  1
  C  C36  1  0.05325500  0.73670200  0.00118800  1
  C  C37  1  0.50053500  0.79019200  0.49962400  1
  C  C38  1  0.50050200  0.20901000  0.50025900  1
  C  C39  1  0.00050300  0.29098900  0.99971100  1
  C  C40  1  0.00053500  0.70980800  0.00017300  1
  C  C41  1  0.49931300  0.70906000  0.49942800  1
  C  C42  1  0.49928400  0.29014300  0.50032200  1
  C  C43  1  0.99928400  0.20985700  0.99950500  1
  C  C44  1  0.99931200  0.79094000  0.00024700  1
  C  C45  1  0.44688000  0.73631600  0.50048100  1
  C  C46  1  0.44684900  0.26288700  0.49932100  1
  C  C47  1  0.94685000  0.23711200  0.00057200  1
  C  C48  1  0.94687900  0.76368300  0.99923500  1
  C  C49  1  0.50076400  0.83612100  0.49985100  1
  C  C50  1  0.50073000  0.16308100  0.50033900  1
  C  C51  1  0.00073100  0.33691800  0.99993400  1
  C  C52  1  0.00076300  0.66387900  0.00025700  1
  C  C53  1  0.49855400  0.66310500  0.49938500  1
  C  C54  1  0.49852900  0.33609800  0.50036400  1
  C  C55  1  0.99852900  0.16390200  0.99945100  1
  C  C56  1  0.99855400  0.83689500  0.00029900  1
  C  C57  1  0.50126600  0.99983200  0.33125400  1
  C  C58  1  0.50126300  0.99964300  0.66952600  1
  C  C59  1  0.00126600  0.50038700  0.83125500  1
  C  C60  1  0.00126300  0.50013700  0.16952700  1
  C  C61  1  0.50082800  0.00015600  0.28029100  1
  C  C62  1  0.50082300  0.99990400  0.72048700  1
  C  C63  1  0.00082800  0.50013200  0.78029100  1
  C  C64  1  0.00082300  0.49980600  0.22048700  1
  C  C65  1  0.50007400  0.00043500  0.22057700  1
  C  C66  1  0.50006600  0.00010100  0.78019700  1
  C  C67  1  0.00007300  0.49993600  0.72057600  1
  C  C68  1  0.00006700  0.49952700  0.28019600  1
  C  C69  1  0.49931800  0.00058700  0.16961600  1
  C  C70  1  0.49931000  0.00017700  0.83115500  1
  C  C71  1  0.99931800  0.49985500  0.66961500  1
  C  C72  1  0.99931000  0.49938100  0.33115400  1
  C  C73  1  0.60742100  0.49959600  0.49991300  1
  C  C74  1  0.10742100  0.00040400  0.99991500  1
  C  C75  1  0.49923600  0.58025500  0.49940700  1
  C  C76  1  0.49922300  0.41894800  0.50039300  1
  C  C77  1  0.99922300  0.08105200  0.99944300  1
  C  C78  1  0.99923700  0.91974500  0.00036000  1
  C  C79  1  0.39036700  0.49960500  0.49990200  1
  C  C80  1  0.89036700  0.00039400  0.99990300  1
  C  C81  1  0.39040700  0.00041500  0.00036000  1
  C  C82  1  0.89040700  0.49958400  0.50035800  1
  C  C83  1  0.49838200  0.00066200  0.10894400  1
  C  C84  1  0.49837500  0.00015500  0.89182200  1
  C  C85  1  0.99838200  0.49986600  0.60894300  1
  C  C86  1  0.99837500  0.49931600  0.39182100  1
  C  C87  1  0.60743600  0.00040500  0.00035200  1
  C  C88  1  0.10743600  0.49959200  0.50035100  1
  C  C89  1  0.66808700  0.49959400  0.49994200  1
  C  C90  1  0.16808700  0.00041100  0.99994400  1
  C  C91  1  0.71904800  0.49959200  0.50002100  1
  C  C92  1  0.21904800  0.00041600  0.00002300  1
  C  C93  1  0.27876400  0.00041900  0.00014900  1
  C  C94  1  0.77876400  0.49958800  0.50014600  1
  C  C95  1  0.32972900  0.00041900  0.00025700  1
  C  C96  1  0.82972900  0.49958600  0.50025500  1
  C  C97  1  0.32970700  0.49960700  0.49992600  1
  C  C98  1  0.82970700  0.00039800  0.99992700  1
  C  C99  1  0.27875300  0.49960500  0.50000400  1
  C  C100  1  0.77875300  0.00040100  0.00000400  1
  C  C101  1  0.71905100  0.00040400  0.00013200  1
  C  C102  1  0.21905100  0.49960200  0.50013200  1
  C  C103  1  0.66809700  0.00040500  0.00024400  1
  C  C104  1  0.16809700  0.49959800  0.50024400  1
  C  C105  1  0.55365300  0.72057700  0.40205700  1
  C  C106  1  0.58620000  0.66366000  0.34624000  1
  C  C107  1  0.58558800  0.61611200  0.34816500  1
  C  C108  1  0.55364800  0.27869800  0.59770600  1
  C  C109  1  0.58622800  0.33564200  0.65345400  1
  C  C110  1  0.58562400  0.38318900  0.65148500  1
  C  C111  1  0.55720400  0.27883700  0.40500100  1
  C  C112  1  0.59185600  0.33589600  0.35072000  1
  C  C113  1  0.59122300  0.38343900  0.35288400  1
  C  C114  1  0.55725800  0.72029000  0.59476200  1
  C  C115  1  0.59193200  0.66320300  0.64897300  1
  C  C116  1  0.59130200  0.61566100  0.64676400  1
  C  C117  1  0.05360600  0.22138400  0.90212500  1
  C  C118  1  0.08615000  0.16447500  0.84629200  1
  C  C119  1  0.08554100  0.11692700  0.84820800  1
  C  C120  1  0.05366300  0.77948900  0.09763900  1
  C  C121  1  0.08623000  0.83642700  0.15340300  1
  C  C122  1  0.08562200  0.88397400  0.15144500  1
  C  C123  1  0.05724700  0.77964500  0.90493300  1
  C  C124  1  0.09189900  0.83671100  0.85066600  1
  C  C125  1  0.09126300  0.88425400  0.85283900  1
  C  C126  1  0.05724700  0.22108100  0.09482800  1
  C  C127  1  0.09193700  0.16398900  0.14902000  1
  C  C128  1  0.09131000  0.11644700  0.14680100  1
  O  O1  1  0.55029400  0.00124200  0.41813900  1
  O  O2  1  0.55018300  0.00113100  0.58261300  1
  O  O3  1  0.05029400  0.49886300  0.91813600  1
  O  O4  1  0.05018200  0.49876200  0.08261000  1
  O  O5  1  0.45264800  0.00123300  0.41823100  1
  O  O6  1  0.45275800  0.00112400  0.58251900  1
  O  O7  1  0.95264800  0.49887100  0.91822800  1
  O  O8  1  0.95275800  0.49877000  0.08251600  1
  O  O9  1  0.55018400  0.93831800  0.49818800  1
  O  O10  1  0.55028000  0.06092500  0.49833800  1
  O  O11  1  0.05028000  0.43907700  0.99819600  1
  O  O12  1  0.05018400  0.56168400  0.99833100  1
  O  O13  1  0.45276000  0.93880100  0.49820300  1
  O  O14  1  0.45263100  0.06042800  0.49835000  1
  O  O15  1  0.95263100  0.43957400  0.99821000  1
  O  O16  1  0.95275900  0.56120100  0.99834500  1
  O  O17  1  0.58109700  0.50134400  0.45120100  1
  O  O18  1  0.58108900  0.49785200  0.54861600  1
  O  O19  1  0.08109700  0.00216000  0.95120300  1
  O  O20  1  0.08108900  0.99864500  0.04861700  1
  O  O21  1  0.49669400  0.56074500  0.45066500  1
  O  O22  1  0.49668000  0.43845700  0.54913900  1
  O  O23  1  0.49679200  0.43844700  0.45162100  1
  O  O24  1  0.49679700  0.56075600  0.54818300  1
  O  O25  1  0.99668400  0.06155400  0.95069300  1
  O  O26  1  0.99668900  0.93924300  0.04911300  1
  O  O27  1  0.99680200  0.93925600  0.95159600  1
  O  O28  1  0.99678700  0.06154200  0.04821000  1
  O  O29  1  0.41665200  0.50127400  0.45107100  1
  O  O30  1  0.41664900  0.49793500  0.54872900  1
  O  O31  1  0.91665200  0.00207600  0.95107300  1
  O  O32  1  0.91664900  0.99871400  0.04872900  1
  O  O33  1  0.41667000  0.96407400  0.99812700  1
  O  O34  1  0.41667600  0.03675100  0.00263300  1
  O  O35  1  0.91667500  0.46324600  0.49813800  1
  O  O36  1  0.91667100  0.53592400  0.50261900  1
  O  O37  1  0.50113800  0.96447700  0.08259700  1
  O  O38  1  0.50113900  0.03634600  0.91816200  1
  O  O39  1  0.50094400  0.03689500  0.08271900  1
  O  O40  1  0.50093300  0.96392500  0.91804600  1
  O  O41  1  0.00114300  0.46367100  0.58261100  1
  O  O42  1  0.00113400  0.53550800  0.41815100  1
  O  O43  1  0.00093800  0.53608900  0.58270200  1
  O  O44  1  0.00093900  0.46308700  0.41805500  1
  O  O45  1  0.58107300  0.96430200  0.99790500  1
  O  O46  1  0.58107800  0.03650900  0.00284400  1
  O  O47  1  0.08107800  0.46348600  0.49791700  1
  O  O48  1  0.08107300  0.53569500  0.50283000  1
  O  O49  1  0.57256800  0.74561300  0.36790900  1
  O  O50  1  0.55908100  0.67896000  0.39313200  1
  O  O51  1  0.57256400  0.25368000  0.63187900  1
  O  O52  1  0.55909000  0.32031900  0.60658700  1
  O  O53  1  0.57735100  0.25388100  0.37145500  1
  O  O54  1  0.56299900  0.32047500  0.39648900  1
  O  O55  1  0.57740700  0.74522700  0.62833200  1
  O  O56  1  0.56306000  0.67864800  0.60322800  1
  O  O57  1  0.07251400  0.24642500  0.86797800  1
  O  O58  1  0.05903600  0.17976900  0.89319100  1
  O  O59  1  0.07257500  0.75446700  0.13180900  1
  O  O60  1  0.05910000  0.82110900  0.10652900  1
  O  O61  1  0.07740000  0.75469300  0.87138600  1
  O  O62  1  0.06303900  0.82128300  0.89642900  1
  O  O63  1  0.07740100  0.24601400  0.12840000  1
  O  O64  1  0.06305400  0.17943800  0.10328400  1
