# Generated by REPEAT Assigner based on pymatgen
data_DB0-m29_o82_o1500_f0_pts.sym.118
_audit_creation_date              2022-05-24
_audit_creation_method            REPEAT_Assigner
_cell_length_a                    14.391955
_cell_length_b                    15.671040
_cell_length_c                    13.411493
_cell_angle_alpha                 94.291541
_cell_angle_beta                  92.980004
_cell_angle_gamma                 64.395070
_cell_volume                      2719.441015
_symmetry_space_group_name_H-M    P1
_symmetry_Int_Tables_number       1
loop_
    _symmetry_equiv_pos_site_id
    _symmetry_equiv_pos_as_xyz
    1  x,y,z
loop_
    _atom_site_type_symbol
    _atom_site_label
    _atom_site_fract_x
    _atom_site_fract_y
    _atom_site_fract_z
    _atom_type_partial_charge
    C   C1   0.272984  0.952374  0.851739  0.039477
    C   C2   0.205876  0.914130  0.814875  -0.115224
    C   C3   0.128155  0.917457  0.872929  -0.024669
    C   C4   0.899253  0.006050  0.884529  -0.150123
    C   C5   0.269725  0.978769  0.954129  -0.095654
    C   C6   0.188617  0.983289  0.011050  0.044769
    C   C7   0.110656  0.962558  0.967465  0.104678
    C   C8   0.023765  0.977419  0.023574  -0.110470
    C   C9   0.809990  0.005754  0.844095  -0.105229
    C   C10  0.746734  0.984615  0.900692  -0.032942
    C   C11  0.929435  0.982283  0.982453  0.151746
    C   C12  0.856963  0.976633  0.043828  0.009181
    C   C13  0.766573  0.974493  0.002211  0.043605
    C   C14  0.185315  0.007973  0.112372  -0.073797
    C   C15  0.110585  0.006073  0.169879  -0.175161
    C   C16  0.030457  0.990803  0.126244  0.268083
    C   C17  0.955878  0.991761  0.186738  -0.280725
    C   C18  0.872166  0.980606  0.146570  -0.008663
    H   H1   0.081929  0.882578  0.842073  0.101631
    H   H2   0.942383  0.028550  0.837980  0.119658
    H   H3   0.791463  0.019995  0.766159  0.177043
    H   H4   0.242470  0.025209  0.150564  0.092704
    H   H5   0.113221  0.020505  0.249799  0.137658
    H   H6   0.962961  0.000836  0.267029  0.169578
    H   H7   0.816293  0.982971  0.198406  0.105192
    O   O1   0.589873  0.026786  0.050954  -0.535288
    C   C19  0.687966  0.968846  0.064273  0.419491
    O   O2   0.597803  0.791604  0.149377  -0.357471
    O   O3   0.714949  0.903151  0.129017  -0.367938
    O   O4   0.550773  0.923811  0.255006  -0.568274
    C   C20  0.591730  0.831004  0.240136  0.592489
    Fe  Fe1  0.497370  0.007252  0.141518  1.414442
    O   O5   0.422678  0.943129  0.059115  -0.545448
    O   O6   0.335026  0.092891  0.007329  -0.495572
    C   C21  0.348713  0.004312  0.003895  0.721266
    O   O7   0.418486  0.139326  0.201168  -0.568760
    O   O8   0.355117  0.050671  0.272226  -0.490079
    C   C22  0.354106  0.133681  0.263318  0.584530
    O   O9   0.538860  0.876678  0.632385  -0.576332
    O   O10  0.694177  0.881914  0.634142  -0.536293
    C   C23  0.633691  0.842809  0.600302  0.614461
    O   O11  0.609911  0.032267  0.778951  -0.600697
    O   O12  0.633498  0.907842  0.870263  -0.464322
    C   C24  0.657950  0.976441  0.851031  0.710629
    O   O13  0.331907  0.956802  0.685969  -0.410089
    O   O14  0.442262  0.100920  0.614075  -0.568224
    C   C25  0.345053  0.162409  0.617047  0.520665
    O   O15  0.416739  0.989277  0.818018  -0.559148
    C   C26  0.345168  0.963445  0.783263  0.596746
    O   O16  0.286692  0.167294  0.691218  -0.477436
    Fe  Fe2  0.499967  0.000868  0.711277  1.436442
    H   H8   0.423346  0.104665  0.439454  0.156854
    C   C27  0.313225  0.202493  0.347208  0.120536
    C   C28  0.221331  0.282509  0.341126  -0.242690
    H   H9   0.186802  0.305929  0.268780  0.146197
    C   C29  0.168414  0.326595  0.427740  0.121456
    C   C30  0.206879  0.289131  0.519801  -0.249709
    H   H10  0.164095  0.321511  0.587017  0.153352
    C   C31  0.301042  0.211019  0.525148  0.179940
    C   C32  0.353664  0.169937  0.438657  -0.244198
    C   C33  0.060279  0.487233  0.373343  -0.164626
    H   H11  0.127930  0.488510  0.343363  0.150449
    C   C34  0.967142  0.566294  0.368915  0.037566
    C   C35  0.879802  0.565923  0.407520  -0.039962
    C   C36  0.888097  0.486728  0.453711  0.011500
    C   C37  0.982248  0.409153  0.461095  -0.174212
    H   H12  0.987580  0.347785  0.497291  0.148192
    C   C38  0.068516  0.408991  0.420603  0.112410
    C   C39  0.726214  0.688145  0.323095  -0.093830
    C   C40  0.639869  0.775323  0.328229  0.014109
    C   C41  0.606207  0.819964  0.421200  -0.184987
    H   H13  0.540157  0.888084  0.427181  0.174269
    C   C42  0.660836  0.783538  0.507290  0.138513
    C   C43  0.750358  0.701322  0.501314  -0.192915
    H   H14  0.796637  0.675786  0.568161  0.141049
    C   C44  0.782149  0.652103  0.410194  0.144239
    C   C45  0.215977  0.866508  0.717394  0.371034
    N   N1   0.223783  0.827923  0.639099  -0.414564
    C   C46  0.963538  0.650071  0.328539  0.310674
    N   N2   0.960831  0.717483  0.296048  -0.393512
    C   C47  0.798986  0.484086  0.494218  0.332513
    N   N3   0.727275  0.481819  0.526849  -0.415918
    C   C48  0.761726  0.636693  0.228822  0.381669
    N   N4   0.790435  0.595092  0.153076  -0.417540
