# generated using pymatgen
data_VH10C13O5
_symmetry_space_group_name_H-M   'P 1'
_cell_length_a   6.33519900
_cell_length_b   15.20669800
_cell_length_c   16.72338200
_cell_angle_alpha   101.03649200
_cell_angle_beta   90.71512300
_cell_angle_gamma   90.76579400
_symmetry_Int_Tables_number   1
_chemical_formula_structural   VH10C13O5
_chemical_formula_sum   'V4 H40 C52 O20'
_cell_volume   1580.96486961
_cell_formula_units_Z   4
loop_
 _symmetry_equiv_pos_site_id
 _symmetry_equiv_pos_as_xyz
  1  'x, y, z'
loop_
 _atom_site_type_symbol
 _atom_site_label
 _atom_site_symmetry_multiplicity
 _atom_site_fract_x
 _atom_site_fract_y
 _atom_site_fract_z
 _atom_site_occupancy
  V  V1  1  0.10268200  0.49325500  0.49984900  1
  V  V2  1  0.60261800  0.51458800  0.49994600  1
  V  V3  1  0.63848100  0.01313200  0.99820900  1
  V  V4  1  0.13708900  0.99124100  0.99750900  1
  H  H1  1  0.12095000  0.80581200  0.13736200  1
  H  H2  1  0.49708300  0.89998200  0.18825400  1
  H  H3  1  0.26140000  0.69486400  0.20720700  1
  H  H4  1  0.44617800  0.79084300  0.27749000  1
  H  H5  1  0.21822900  0.59544600  0.30622400  1
  H  H6  1  0.57822200  0.67464300  0.33968200  1
  H  H7  1  0.88269800  0.80630700  0.62331400  1
  H  H8  1  0.55688000  0.83620400  0.73899500  1
  H  H9  1  0.56616300  0.65256800  0.74757400  1
  H  H10  1  0.86461800  0.69409200  0.87640400  1
  H  H11  1  0.19012200  0.66440600  0.76053300  1
  H  H12  1  0.18040300  0.84738700  0.75165800  1
  H  H13  1  0.41724000  0.10885700  0.29380400  1
  H  H14  1  0.70318000  0.25864200  0.31962800  1
  H  H15  1  0.62351200  0.27216800  0.15269600  1
  H  H16  1  0.30395100  0.39261600  0.20871800  1
  H  H17  1  0.66200500  0.18064200  0.84438600  1
  H  H18  1  0.01506500  0.10127100  0.80919000  1
  H  H19  1  0.79775300  0.29849300  0.78422500  1
  H  H20  1  0.97168300  0.20332600  0.71246600  1
  H  H21  1  0.74922400  0.40819100  0.69532400  1
  H  H22  1  0.11601600  0.31447200  0.64359900  1
  H  H23  1  0.88036300  0.31311500  0.21603100  1
  H  H24  1  0.87771100  0.19579900  0.16329500  1
  H  H25  1  0.08998300  0.35791500  0.10826400  1
  H  H26  1  0.10192000  0.15688800  0.05399200  1
  H  H27  1  0.32068700  0.23607300  0.07316700  1
  H  H28  1  0.15608200  0.23088000  0.98257500  1
  H  H29  1  0.72347600  0.23014200  0.03876600  1
  H  H30  1  0.85326900  0.30739400  0.98523800  1
  H  H31  1  0.71253000  0.35088000  0.07677500  1
  H  H32  1  0.92830600  0.17097900  0.32607900  1
  H  H33  1  0.97527000  0.28018900  0.39106600  1
  H  H34  1  0.17552800  0.09875000  0.39439900  1
  H  H35  1  0.34090700  0.28484200  0.47635700  1
  H  H36  1  0.46874000  0.20751200  0.39673300  1
  H  H37  1  0.43479300  0.17922100  0.49618100  1
  H  H38  1  0.98443500  0.24639800  0.52345500  1
  H  H39  1  0.08344100  0.14023300  0.54050300  1
  H  H40  1  0.85446300  0.14267000  0.47509700  1
  C  C1  1  0.35509100  0.39376800  0.38360800  1
  C  C2  1  0.40968600  0.42949700  0.60810300  1
  C  C3  1  0.89705300  0.60999500  0.61686400  1
  C  C4  1  0.86868600  0.57234300  0.38902000  1
  C  C5  1  0.81113200  0.85901600  0.15690200  1
  C  C6  1  0.89387000  0.62752100  0.32746300  1
  C  C7  1  0.11126400  0.69045300  0.23629900  1
  C  C8  1  0.08684500  0.63451400  0.29164100  1
  C  C9  1  0.72750200  0.67818800  0.30975300  1
  C  C10  1  0.75558300  0.73791600  0.25832600  1
  C  C11  1  0.94621400  0.74312600  0.22035700  1
  C  C12  1  0.97258400  0.80228800  0.16791000  1
  C  C13  1  0.62333300  0.85547800  0.19701800  1
  C  C14  1  0.59418600  0.79400400  0.24662300  1
  C  C15  1  0.70087100  0.79653600  0.74314500  1
  C  C16  1  0.87777100  0.78164200  0.68153600  1
  C  C17  1  0.88270500  0.68441000  0.68887300  1
  C  C18  1  0.70556400  0.69783400  0.74933100  1
  C  C19  1  0.86937700  0.71878900  0.81819700  1
  C  C20  1  0.04599600  0.70401000  0.75645000  1
  C  C21  1  0.04095900  0.80215900  0.74996600  1
  C  C22  1  0.86442800  0.81600800  0.81069700  1
  C  C23  1  0.54826400  0.25326300  0.28773100  1
  C  C24  1  0.39289500  0.17386700  0.27452200  1
  C  C25  1  0.35341500  0.18614500  0.18772500  1
  C  C26  1  0.50913800  0.26386000  0.19981400  1
  C  C27  1  0.33044900  0.32766700  0.22784400  1
  C  C28  1  0.17639700  0.24935700  0.21545400  1
  C  C29  1  0.21423700  0.23775000  0.30164400  1
  C  C30  1  0.36748400  0.31566000  0.31451800  1
  C  C31  1  0.34268200  0.13331800  0.83097600  1
  C  C32  1  0.43029900  0.36753300  0.66391300  1
  C  C33  1  0.64793600  0.30216400  0.75349500  1
  C  C34  1  0.62019600  0.36396800  0.70417100  1
  C  C35  1  0.26552600  0.31100700  0.67462300  1
  C  C36  1  0.29084800  0.25146600  0.72656900  1
  C  C37  1  0.48347000  0.24582200  0.76448400  1
  C  C38  1  0.51097800  0.18489600  0.81468200  1
  C  C39  1  0.14773700  0.14107200  0.79556200  1
  C  C40  1  0.12326100  0.19842500  0.74154900  1
  C  C41  1  0.36895900  0.07557000  0.89023400  1
  C  C42  1  0.34583900  0.10978300  0.11619600  1
  C  C43  1  0.83277500  0.92282100  0.10259200  1
  C  C44  1  0.87438300  0.89474900  0.87920800  1
  C  C45  1  0.96711400  0.26030500  0.17486400  1
  C  C46  1  0.01199300  0.29086200  0.09553600  1
  C  C47  1  0.15834500  0.22422200  0.04746800  1
  C  C48  1  0.81113700  0.29490900  0.04630500  1
  C  C49  1  0.04910100  0.21720300  0.36031700  1
  C  C50  1  0.15124500  0.16999900  0.42251100  1
  C  C51  1  0.36304200  0.21333400  0.44976400  1
  C  C52  1  0.00886600  0.17518000  0.49525600  1
  O  O1  1  0.56871300  0.48653400  0.60909200  1
  O  O2  1  0.18426800  0.44073700  0.38747200  1
  O  O3  1  0.98346000  0.59321700  0.45537700  1
  O  O4  1  0.27788900  0.40664900  0.54457100  1
  O  O5  1  0.06883200  0.56052000  0.61172500  1
  O  O6  1  0.47630400  0.39793300  0.44811600  1
  O  O7  1  0.37922300  0.57240300  0.50382200  1
  O  O8  1  0.78483700  0.61723600  0.55094100  1
  O  O9  1  0.68775700  0.53092600  0.39046700  1
  O  O10  1  0.87491100  0.43627800  0.49894100  1
  O  O11  1  0.18154500  0.05424000  0.11082100  1
  O  O12  1  0.54716900  0.03401600  0.89015400  1
  O  O13  1  0.75324300  0.89769100  0.94273600  1
  O  O14  1  0.46745000  0.11482900  0.05263500  1
  O  O15  1  0.67804500  0.98042100  0.10552400  1
  O  O16  1  0.26116700  0.09403200  0.95695400  1
  O  O17  1  0.36127500  0.93431000  0.99480500  1
  O  O18  1  0.95822900  0.90210700  0.03846800  1
  O  O19  1  0.04568800  0.94333100  0.88413600  1
  O  O20  1  0.86604900  0.07087000  0.00375600  1
