# Generated by REPEAT Assigner based on pymatgen
data_DB0-m3_o8_o26_f0_pcu.sym.37_sqe
_audit_creation_date              2022-05-24
_audit_creation_method            REPEAT_Assigner
_cell_length_a                    15.973952
_cell_length_b                    17.235806
_cell_length_c                    17.477811
_cell_angle_alpha                 90.235710
_cell_angle_beta                  91.064310
_cell_angle_gamma                 89.123104
_cell_volume                      4810.630710
_symmetry_space_group_name_H-M    P1
_symmetry_Int_Tables_number       1
loop_
    _symmetry_equiv_pos_site_id
    _symmetry_equiv_pos_as_xyz
    1  x,y,z
loop_
    _atom_site_type_symbol
    _atom_site_label
    _atom_site_fract_x
    _atom_site_fract_y
    _atom_site_fract_z
    _atom_type_partial_charge
    O   O1   0.572535  0.387341  0.487484  -0.464625
    O   O2   0.426653  0.613789  0.502857  -0.504959
    O   O3   0.429256  0.382898  0.489492  -0.711731
    O   O4   0.569514  0.618255  0.499208  -0.624984
    C   C1   0.503036  0.347879  0.486792  0.661244
    C   C2   0.496166  0.653257  0.505059  0.590369
    O   O5   0.574098  0.498284  0.607543  -0.545902
    O   O6   0.425022  0.503519  0.382279  -0.596160
    O   O7   0.430399  0.491678  0.609926  -0.520698
    O   O8   0.568454  0.508857  0.379772  -0.589390
    C   C3   0.503938  0.493581  0.644569  0.621458
    C   C4   0.494960  0.507660  0.345134  0.642382
    Zn  Zn1  0.594261  0.502688  0.493624  0.934251
    Zn  Zn2  0.404705  0.498494  0.496112  0.987201
    C   C5   0.508804  0.493097  0.728400  -0.151455
    C   C6   0.489464  0.508739  0.261339  -0.090277
    C   C7   0.439404  0.477205  0.771245  -0.008497
    C   C8   0.556494  0.530682  0.218072  -0.070362
    C   C9   0.444674  0.478368  0.850190  -0.261762
    C   C10  0.550313  0.530174  0.139147  -0.216609
    C   C11  0.519665  0.495888  0.887226  0.270733
    C   C12  0.476634  0.507810  0.102698  0.234212
    C   C13  0.589087  0.510118  0.844025  -0.303825
    C   C14  0.409219  0.488135  0.146295  -0.255096
    C   C15  0.583740  0.509333  0.765352  0.119960
    C   C16  0.415636  0.487914  0.224900  0.071446
    C   C17  0.529903  0.497962  0.971228  -0.213483
    C   C18  0.465717  0.506467  0.018844  -0.220487
    H   H1   0.380578  0.462732  0.743659  0.096817
    H   H2   0.613816  0.549788  0.245387  0.102766
    H   H3   0.362058  0.470567  0.257178  0.029233
    H   H4   0.639083  0.522293  0.733483  0.043882
    H   H5   0.402242  0.511029  0.996681  0.138482
    H   H6   0.593160  0.492916  0.993955  0.135656
    H   H7   0.648239  0.523172  0.871838  0.131954
    H   H8   0.351025  0.471425  0.118811  0.125644
    H   H9   0.603213  0.549617  0.107278  0.122199
    H   H10  0.389601  0.463533  0.881403  0.127956
    C   C19  0.509112  0.261384  0.483684  -0.080299
    C   C20  0.490567  0.739819  0.510706  -0.006124
    C   C21  0.442199  0.214786  0.505397  -0.120741
    C   C22  0.562225  0.785805  0.507089  -0.215865
    C   C23  0.448387  0.134815  0.500288  -0.217332
    C   C24  0.554753  0.865132  0.496390  -0.158124
    C   C25  0.522118  0.098872  0.478686  0.565177
    C   C26  0.476864  0.901044  0.492975  0.544792
    C   C27  0.588819  0.143638  0.460629  -0.338363
    C   C28  0.407012  0.857279  0.501876  -0.347632
    C   C29  0.583283  0.223514  0.460930  -0.080513
    C   C30  0.412412  0.778227  0.512698  -0.079176
    N   N1   0.532933  0.017208  0.478826  -0.271676
    N   N2   0.466371  0.982584  0.488879  -0.263365
    H   H11  0.611673  0.898125  0.495157  0.085472
    H   H12  0.395682  0.101733  0.518955  0.099844
    H   H13  0.646460  0.115139  0.444019  0.128800
    H   H14  0.346887  0.886700  0.504373  0.132643
    N   N3   0.279315  0.498973  0.496359  -0.142720
    N   N4   0.719620  0.502515  0.493107  -0.140825
    C   C31  0.227588  0.532961  0.443205  -0.155308
    C   C32  0.771769  0.467210  0.545025  -0.067726
    C   C33  0.141691  0.527321  0.448737  -0.138749
    C   C34  0.857535  0.473666  0.539390  -0.166634
    C   C35  0.107571  0.489144  0.509783  0.531056
    C   C36  0.891132  0.514493  0.479743  0.538871
    C   C37  0.160779  0.455525  0.563025  -0.383760
    C   C38  0.837437  0.550096  0.428113  -0.414068
    C   C39  0.246189  0.460187  0.555115  0.324980
    C   C40  0.752094  0.544324  0.436054  0.392191
    N   N5   0.020088  0.484098  0.519562  -0.216107
    N   N6   0.978580  0.520051  0.469860  -0.235874
    H   H15  0.896517  0.443880  0.581396  0.064621
    H   H16  0.102988  0.555723  0.405601  0.057339
    H   H17  0.135568  0.424992  0.611114  0.129986
    H   H18  0.862164  0.583107  0.381426  0.149125
    H   H19  0.286665  0.432456  0.597208  0.086386
    H   H20  0.711036  0.573940  0.395621  0.035780
    C   C41  0.741160  0.419894  0.608062  0.810229
    O   O9   0.682515  0.376630  0.597978  -0.522528
    O   O10  0.783560  0.418684  0.675472  -0.489327
    C   C42  0.762635  0.368251  0.732265  0.569295
    C   C43  0.817780  0.382515  0.802091  -0.373135
    H   H21  0.772200  0.307646  0.712281  -0.055015
    H   H22  0.696271  0.377518  0.747826  -0.077657
    H   H23  0.884353  0.373592  0.786943  0.094305
    H   H24  0.801340  0.341542  0.848002  0.080562
    H   H25  0.807922  0.442947  0.822426  0.091498
    C   C44  0.258792  0.578987  0.379537  0.897020
    O   O11  0.316985  0.622820  0.389480  -0.528490
    O   O12  0.217169  0.578753  0.311734  -0.501251
    C   C45  0.238225  0.628503  0.254401  0.565155
    C   C46  0.184206  0.612545  0.184220  -0.346954
    H   H26  0.304905  0.619716  0.239717  -0.079962
    H   H27  0.227642  0.689316  0.273339  -0.062657
    H   H28  0.195030  0.551877  0.164986  0.085503
    H   H29  0.200812  0.652910  0.137842  0.074753
    H   H30  0.117327  0.621069  0.198476  0.086774
    C   C47  0.647591  0.755820  0.521866  0.896792
    O   O13  0.662422  0.715348  0.577760  -0.590524
    O   O14  0.711189  0.781203  0.479471  -0.558993
    C   C48  0.792613  0.762196  0.498361  0.640989
    C   C49  0.849924  0.794939  0.438970  -0.335624
    H   H31  0.800742  0.698283  0.499877  -0.153697
    H   H32  0.809055  0.787022  0.555238  -0.065304
    H   H33  0.833797  0.769968  0.382101  0.084376
    H   H34  0.915837  0.779768  0.454231  0.062082
    H   H35  0.842046  0.858943  0.437070  0.091470
    C   C50  0.365319  0.245019  0.540351  0.835887
    O   O15  0.369300  0.290968  0.593520  -0.552888
    O   O16  0.291420  0.212850  0.521041  -0.538047
    C   C51  0.219349  0.232946  0.558071  0.615297
    C   C52  0.147280  0.187181  0.524510  -0.341025
    H   H36  0.205947  0.295595  0.550268  -0.121859
    H   H37  0.226396  0.219555  0.619901  -0.072341
    H   H38  0.139998  0.200394  0.462677  0.080599
    H   H39  0.088810  0.203410  0.554261  0.068328
    H   H40  0.160313  0.124258  0.531979  0.099502
    C   C53  0.659688  0.262752  0.437673  0.917230
    O   O17  0.726597  0.243106  0.466880  -0.566792
    O   O18  0.658601  0.311120  0.377235  -0.558710
    C   C54  0.732774  0.334657  0.347179  0.431659
    C   C55  0.715444  0.387423  0.279715  -0.220267
    H   H41  0.769043  0.283210  0.327389  -0.026631
    H   H42  0.769712  0.366512  0.391171  -0.092131
    H   H43  0.670532  0.359583  0.239426  0.081135
    H   H44  0.774819  0.398759  0.250147  0.022713
    H   H45  0.688883  0.442933  0.300663  0.047435
    C   C56  0.333597  0.741117  0.532846  0.935966
    O   O19  0.269060  0.759233  0.498580  -0.585396
    O   O20  0.330059  0.696752  0.596052  -0.534118
    C   C57  0.254397  0.673369  0.622930  0.389480
    C   C58  0.268572  0.624740  0.693971  -0.189624
    H   H46  0.221465  0.638370  0.578749  -0.064139
    H   H47  0.215479  0.724958  0.637661  -0.028123
    H   H48  0.306516  0.572711  0.679373  0.018310
    H   H49  0.207377  0.606506  0.716189  0.024405
    H   H50  0.302194  0.659247  0.738173  0.070842
