# generated using pymatgen
data_Fe2H19C47N4O16F3
_symmetry_space_group_name_H-M   'P 1'
_cell_length_a   13.96928000
_cell_length_b   15.70333900
_cell_length_c   15.45306100
_cell_angle_alpha   92.49709500
_cell_angle_beta   91.50929100
_cell_angle_gamma   65.75939300
_symmetry_Int_Tables_number   1
_chemical_formula_structural   Fe2H19C47N4O16F3
_chemical_formula_sum   'Fe2 H19 C47 N4 O16 F3'
_cell_volume   3087.89727368
_cell_formula_units_Z   1
loop_
 _symmetry_equiv_pos_site_id
 _symmetry_equiv_pos_as_xyz
  1  'x, y, z'
loop_
 _atom_site_type_symbol
 _atom_site_label
 _atom_site_symmetry_multiplicity
 _atom_site_fract_x
 _atom_site_fract_y
 _atom_site_fract_z
 _atom_site_occupancy
  Fe  Fe1  1  0.52400200  0.98926900  0.26515700  1
  Fe  Fe2  1  0.47496200  0.01006300  0.73589400  1
  H  H1  1  0.92539400  0.91286000  0.28869100  1
  H  H2  1  0.70336400  0.13356600  0.76587300  1
  H  H3  1  0.87452400  0.14651100  0.75380200  1
  H  H4  1  0.07340600  0.08194100  0.70817800  1
  H  H5  1  0.31129900  0.01945700  0.96992100  1
  H  H6  1  0.29237000  0.86802900  0.23327200  1
  H  H7  1  0.12332500  0.85202200  0.24364900  1
  H  H8  1  0.68540500  0.98104300  0.02828400  1
  H  H9  1  0.01675800  0.07704000  0.97547700  1
  H  H10  1  0.98083200  0.92249100  0.02187800  1
  H  H11  1  0.43578800  0.10442300  0.46949500  1
  H  H12  1  0.18687600  0.31835100  0.34003800  1
  H  H13  1  0.20203700  0.32376400  0.61636800  1
  H  H14  1  0.13918200  0.49395200  0.40013100  1
  H  H15  1  0.98286400  0.63932900  0.42233500  1
  H  H16  1  0.85765000  0.50235700  0.58980200  1
  H  H17  1  0.01603600  0.35798000  0.57069500  1
  H  H18  1  0.79267100  0.67100700  0.38402600  1
  H  H19  1  0.56372400  0.89358900  0.52977100  1
  C  C1  1  0.69674000  0.06248100  0.88364800  1
  C  C2  1  0.73599800  0.10582400  0.82797500  1
  C  C3  1  0.83286200  0.09437300  0.86031500  1
  C  C4  1  0.76987800  0.02942200  0.94976400  1
  C  C5  1  0.90009000  0.11601700  0.81641800  1
  C  C6  1  0.01194000  0.08533600  0.83811000  1
  C  C7  1  0.08703200  0.07156600  0.77687300  1
  C  C8  1  0.18200800  0.04220600  0.82004000  1
  C  C9  1  0.16091500  0.03911500  0.90696700  1
  C  C10  1  0.23866200  0.01200400  0.97815500  1
  C  C11  1  0.22720800  0.97069800  0.04854200  1
  C  C12  1  0.29933700  0.93930900  0.11564800  1
  C  C13  1  0.26022100  0.89552600  0.17098300  1
  C  C14  1  0.16441400  0.90521700  0.13765200  1
  C  C15  1  0.09777800  0.88224500  0.18092400  1
  C  C16  1  0.98621100  0.91146200  0.15893500  1
  C  C17  1  0.91150300  0.92380000  0.22008500  1
  C  C18  1  0.81639200  0.95343600  0.17716000  1
  C  C19  1  0.83699900  0.95823200  0.09041300  1
  C  C20  1  0.75860300  0.98744300  0.01978400  1
  C  C21  1  0.71761700  0.97394100  0.22226900  1
  C  C22  1  0.62735200  0.83685900  0.36901400  1
  C  C23  1  0.38792400  0.96228400  0.14016600  1
  C  C24  1  0.35534700  0.15083500  0.31768400  1
  C  C25  1  0.31930300  0.20901300  0.39680600  1
  C  C26  1  0.22796000  0.29015100  0.39948400  1
  C  C27  1  0.18669400  0.33218200  0.47887300  1
  C  C28  1  0.23575100  0.29201500  0.55472400  1
  C  C29  1  0.32546100  0.21033100  0.55189900  1
  C  C30  1  0.36775100  0.17030400  0.47291800  1
  C  C31  1  0.07732600  0.49523900  0.44145500  1
  C  C32  1  0.98939000  0.57742500  0.45458400  1
  C  C33  1  0.91141700  0.58138700  0.51005100  1
  C  C34  1  0.91986500  0.50102700  0.54887400  1
  C  C35  1  0.00910100  0.41961000  0.53775100  1
  C  C36  1  0.08859200  0.41655700  0.48455300  1
  C  C37  1  0.76255500  0.70554500  0.44567000  1
  C  C38  1  0.67346900  0.78739000  0.44804300  1
  C  C39  1  0.63332200  0.82889100  0.52662800  1
  C  C40  1  0.68575600  0.79513900  0.60256000  1
  C  C41  1  0.78130900  0.71665400  0.60116200  1
  C  C42  1  0.81657800  0.66857200  0.52106000  1
  C  C43  1  0.60828100  0.03914600  0.85989400  1
  C  C44  1  0.64649200  0.85840300  0.67832200  1
  C  C45  1  0.28104900  0.02188900  0.77543400  1
  C  C46  1  0.36983300  0.16019600  0.63093300  1
  C  C47  1  0.84268400  0.69111300  0.68527700  1
  N  N1  1  0.85354300  0.04885800  0.93514300  1
  N  N2  1  0.05656500  0.06648900  0.91725200  1
  N  N3  1  0.14419400  0.95005200  0.06247200  1
  N  N4  1  0.94125500  0.93145500  0.08000500  1
  O  O1  1  0.63020400  0.98496300  0.18077100  1
  O  O2  1  0.66018900  0.79796900  0.29235800  1
  O  O3  1  0.71934500  0.97409400  0.30714200  1
  O  O4  1  0.56358400  0.92563100  0.37659700  1
  O  O5  1  0.44181800  0.92259800  0.20896500  1
  O  O6  1  0.39626400  0.03577700  0.11007500  1
  O  O7  1  0.45337900  0.12676500  0.29445600  1
  O  O8  1  0.31085200  0.09342400  0.29805300  1
  O  O9  1  0.54951300  0.08242400  0.79446300  1
  O  O10  1  0.60559100  0.96152100  0.88532000  1
  O  O11  1  0.55336800  0.87288400  0.70806400  1
  O  O12  1  0.67714900  0.92687400  0.68683700  1
  O  O13  1  0.33498200  0.19845200  0.70739200  1
  O  O14  1  0.36830100  0.00983800  0.81769400  1
  O  O15  1  0.43621500  0.07227400  0.62371800  1
  O  O16  1  0.27962600  0.02340900  0.69064700  1
  F  F1  1  0.94089300  0.61934600  0.67575700  1
  F  F2  1  0.78644700  0.66530700  0.74314700  1
  F  F3  1  0.85771300  0.76739300  0.71992900  1
