data_DB0-m3_o12_o25_f0_pcu.sym.2_repeat
_audit_creation_date              2024-02-23
_audit_creation_method            'Materials Studio'
_symmetry_space_group_name_H-M    'P1'
_symmetry_Int_Tables_number       1
_symmetry_cell_setting            triclinic
loop_
_symmetry_equiv_pos_as_xyz
  x,y,z
_cell_length_a                    10.3255
_cell_length_b                    11.3272
_cell_length_c                    15.9920
_cell_angle_alpha                 90.0091
_cell_angle_beta                  80.4891
_cell_angle_gamma                 92.5073
loop_
_atom_site_label
_atom_site_type_symbol
_atom_site_fract_x
_atom_site_fract_y
_atom_site_fract_z
_atom_site_U_iso_or_equiv
_atom_site_adp_type
_atom_site_occupancy
O1     O     0.42461   0.69131   0.50333   0.00000  Uiso   1.00
O2     O     0.57539   0.30869   0.49667   0.00000  Uiso   1.00
O3     O     0.64586   0.65749   0.48492   0.00000  Uiso   1.00
O4     O     0.35414   0.34251   0.51508   0.00000  Uiso   1.00
C1     C     0.54864   0.72931   0.49189   0.00000  Uiso   1.00
C2     C     0.45137   0.27069   0.50811   0.00000  Uiso   1.00
O5     O     0.37634   0.52232   0.63416   0.00000  Uiso   1.00
O6     O     0.62367   0.47768   0.36584   0.00000  Uiso   1.00
O7     O     0.59743   0.48626   0.61718   0.00000  Uiso   1.00
O8     O     0.40257   0.51374   0.38282   0.00000  Uiso   1.00
C3     C     0.48447   0.50518   0.66475   0.00000  Uiso   1.00
C4     C     0.51553   0.49482   0.33525   0.00000  Uiso   1.00
Zn1    Zn    0.35372   0.52118   0.51064   0.00000  Uiso   1.00
Zn2    Zn    0.64628   0.47882   0.48936   0.00000  Uiso   1.00
C5     C     0.46414   0.60269   0.03461   0.00000  Uiso   1.00
C6     C     0.53586   0.39731   0.96539   0.00000  Uiso   1.00
C7     C     0.57883   0.58713   0.96234   0.00000  Uiso   1.00
C8     C     0.42117   0.41288   0.03765   0.00000  Uiso   1.00
H1     H     0.64568   0.65816   0.92963   0.00000  Uiso   1.00
H2     H     0.35432   0.34184   0.07037   0.00000  Uiso   1.00
H3     H     0.43243   0.68708   0.06485   0.00000  Uiso   1.00
H4     H     0.56757   0.31292   0.93514   0.00000  Uiso   1.00
C9     C     0.48066   0.50589   0.75487   0.00000  Uiso   1.00
C10    C     0.51934   0.49412   0.24512   0.00000  Uiso   1.00
C11    C     0.37986   0.51768   0.99112   0.00000  Uiso   1.00
C12    C     0.62014   0.48232   0.00888   0.00000  Uiso   1.00
C13    C     0.49251   0.50240   0.92027   0.00000  Uiso   1.00
C14    C     0.50749   0.49760   0.07973   0.00000  Uiso   1.00
C15    C     0.48360   0.50492   0.82990   0.00000  Uiso   1.00
C16    C     0.51640   0.49508   0.17010   0.00000  Uiso   1.00
H5     H     0.61372   0.09982   0.48211   0.00000  Uiso   1.00
H6     H     0.38628   0.90018   0.51789   0.00000  Uiso   1.00
C17    C     0.58195   0.85759   0.48646   0.00000  Uiso   1.00
C18    C     0.41805   0.14241   0.51354   0.00000  Uiso   1.00
C19    C     0.48636   0.93504   0.50180   0.00000  Uiso   1.00
C20    C     0.51364   0.06496   0.49819   0.00000  Uiso   1.00
N1     N     0.83953   0.45484   0.47737   0.00000  Uiso   1.00
N2     N     0.16047   0.54516   0.52263   0.00000  Uiso   1.00
C21    C     0.92852   0.51363   0.51095   0.00000  Uiso   1.00
C22    C     0.07148   0.48637   0.48904   0.00000  Uiso   1.00
H7     H     0.13004   0.61088   0.56433   0.00000  Uiso   1.00
H8     H     0.86996   0.38912   0.43566   0.00000  Uiso   1.00
C23    C     0.75966   0.46171   0.02131   0.00000  Uiso   1.00
H9     H     0.82292   0.45346   0.95860   0.00000  Uiso   1.00
H10    H     0.79712   0.53731   0.05587   0.00000  Uiso   1.00
H11    H     0.76130   0.37923   0.05841   0.00000  Uiso   1.00
C24    C     0.24035   0.53829   0.97869   0.00000  Uiso   1.00
H12    H     0.17708   0.54654   0.04139   0.00000  Uiso   1.00
H13    H     0.23870   0.62077   0.94159   0.00000  Uiso   1.00
H14    H     0.20288   0.46269   0.94413   0.00000  Uiso   1.00
C25    C     0.27650   0.10026   0.53582   0.00000  Uiso   1.00
H15    H     0.20955   0.17425   0.54790   0.00000  Uiso   1.00
H16    H     0.24744   0.04770   0.48284   0.00000  Uiso   1.00
H17    H     0.26262   0.04563   0.59446   0.00000  Uiso   1.00
C26    C     0.72350   0.89974   0.46417   0.00000  Uiso   1.00
H18    H     0.79045   0.82575   0.45209   0.00000  Uiso   1.00
H19    H     0.73738   0.95437   0.40554   0.00000  Uiso   1.00
H20    H     0.75256   0.95230   0.51716   0.00000  Uiso   1.00
C27    C     0.11118   0.39026   0.42668   0.00000  Uiso   1.00
H21    H     0.06493   0.30438   0.45170   0.00000  Uiso   1.00
H22    H     0.08068   0.41105   0.36518   0.00000  Uiso   1.00
H23    H     0.21758   0.38132   0.41412   0.00000  Uiso   1.00
C28    C     0.88882   0.60974   0.57331   0.00000  Uiso   1.00
H24    H     0.93507   0.69562   0.54829   0.00000  Uiso   1.00
H25    H     0.78242   0.61868   0.58587   0.00000  Uiso   1.00
H26    H     0.91932   0.58895   0.63482   0.00000  Uiso   1.00
