# generated using pymatgen
data_ZnH6C13NO6
_symmetry_space_group_name_H-M   'P 1'
_cell_length_a   15.98444300
_cell_length_b   11.91819200
_cell_length_c   10.77266600
_cell_angle_alpha   90.00000000
_cell_angle_beta   90.00000000
_cell_angle_gamma   90.00000000
_symmetry_Int_Tables_number   1
_chemical_formula_structural   ZnH6C13NO6
_chemical_formula_sum   'Zn2 H12 C26 N2 O12'
_cell_volume   2052.25385369
_cell_formula_units_Z   2
loop_
 _symmetry_equiv_pos_site_id
 _symmetry_equiv_pos_as_xyz
  1  'x, y, z'
loop_
 _atom_site_type_symbol
 _atom_site_label
 _atom_site_symmetry_multiplicity
 _atom_site_fract_x
 _atom_site_fract_y
 _atom_site_fract_z
 _atom_site_occupancy
  Zn  Zn1  1  0.49993700  0.50939500  0.64140700  1
  Zn  Zn2  1  0.50006300  0.50939500  0.35859300  1
  H  H1  1  0.07112100  0.67740700  0.57893400  1
  H  H2  1  0.06911000  0.67550200  0.41620600  1
  H  H3  1  0.93089000  0.67550200  0.58379400  1
  H  H4  1  0.92887900  0.67740700  0.42106600  1
  H  H5  1  0.93423100  0.35540300  0.60179200  1
  H  H6  1  0.93259400  0.35688600  0.39542900  1
  H  H7  1  0.06740700  0.35688600  0.60457100  1
  H  H8  1  0.06576900  0.35540300  0.39820800  1
  H  H9  1  0.12057400  0.41453900  0.21230100  1
  H  H10  1  0.12089800  0.42116100  0.78923900  1
  H  H11  1  0.87910200  0.42116100  0.21076100  1
  H  H12  1  0.87942600  0.41453900  0.78769900  1
  C  C1  1  0.50000000  0.29014300  0.50000000  1
  C  C2  1  0.33652500  0.50938700  0.49985300  1
  C  C3  1  0.66347500  0.50938700  0.50014700  1
  C  C4  1  0.50000000  0.06863200  0.50000000  1
  C  C5  1  0.50000000  0.16973800  0.50000000  1
  C  C6  1  0.50005200  0.50940600  0.06553600  1
  C  C7  1  0.49994800  0.50940600  0.93446400  1
  C  C8  1  0.50000000  0.72864800  0.50000000  1
  C  C9  1  0.04794200  0.44569900  0.61456100  1
  C  C10  1  0.04766300  0.44449300  0.38599300  1
  C  C11  1  0.95233700  0.44449300  0.61400700  1
  C  C12  1  0.95205800  0.44569900  0.38544000  1
  C  C13  1  0.50000000  0.95015900  0.50000000  1
  C  C14  1  0.50000000  0.84905200  0.50000000  1
  C  C15  1  0.75325000  0.50923800  0.50026800  1
  C  C16  1  0.24675100  0.50923800  0.49973200  1
  C  C17  1  0.07976800  0.50873400  0.49974800  1
  C  C18  1  0.92023200  0.50873400  0.50025200  1
  C  C19  1  0.95274500  0.62925400  0.50116000  1
  C  C20  1  0.04725500  0.62925400  0.49884000  1
  C  C21  1  0.82865000  0.50903600  0.50034000  1
  C  C22  1  0.17135000  0.50903600  0.49966000  1
  C  C23  1  0.08788700  0.47812600  0.26544000  1
  C  C24  1  0.08701500  0.48266900  0.73471900  1
  C  C25  1  0.91298500  0.48266900  0.26528200  1
  C  C26  1  0.91211300  0.47812600  0.73456000  1
  N  N1  1  0.50012600  0.50940600  0.17293700  1
  N  N2  1  0.49987500  0.50940600  0.82706300  1
  O  O1  1  0.49995000  0.34222300  0.60729100  1
  O  O2  1  0.50005100  0.34222300  0.39270900  1
  O  O3  1  0.37529700  0.50938900  0.60721700  1
  O  O4  1  0.37540200  0.50938900  0.39258200  1
  O  O5  1  0.62459800  0.50938900  0.60741800  1
  O  O6  1  0.62470300  0.50938900  0.39278300  1
  O  O7  1  0.49995000  0.67656900  0.60729000  1
  O  O8  1  0.50005100  0.67656900  0.39271000  1
  O  O9  1  0.08697300  0.57437400  0.22720700  1
  O  O10  1  0.08360500  0.57933700  0.77132600  1
  O  O11  1  0.91639500  0.57933700  0.22867400  1
  O  O12  1  0.91302700  0.57437400  0.77279300  1
