# Generated by REPEAT Assigner based on pymatgen
data_DB0-m1_o8_o8_f0_pcu
_audit_creation_date              2022-05-24
_audit_creation_method            REPEAT_Assigner
_cell_length_a                    19.184048
_cell_length_b                    19.200773
_cell_length_c                    19.196419
_cell_angle_alpha                 94.656982
_cell_angle_beta                  90.095852
_cell_angle_gamma                 85.530593
_cell_volume                      7026.120963
_symmetry_space_group_name_H-M    P1
_symmetry_Int_Tables_number       1
loop_
    _symmetry_equiv_pos_site_id
    _symmetry_equiv_pos_as_xyz
    1  x,y,z
loop_
    _atom_site_type_symbol
    _atom_site_label
    _atom_site_fract_x
    _atom_site_fract_y
    _atom_site_fract_z
    _atom_type_partial_charge
    Zn  Zn1  0.557804  0.557880  0.560881  1.455190
    Zn  Zn2  0.440788  0.560581  0.443929  1.455943
    Zn  Zn3  0.442806  0.446920  0.557239  1.447994
    Zn  Zn4  0.559636  0.434602  0.439066  1.461164
    O   O1   0.500167  0.499994  0.500227  -1.731102
    O   O2   0.542058  0.448001  0.341539  -0.708094
    O   O3   0.541707  0.546283  0.658645  -0.715339
    O   O4   0.456665  0.658833  0.463736  -0.703973
    O   O5   0.461084  0.346688  0.536767  -0.698073
    O   O6   0.342447  0.551058  0.461736  -0.714259
    O   O7   0.658152  0.445689  0.456475  -0.713974
    O   O8   0.344004  0.468764  0.540821  -0.699309
    O   O9   0.656581  0.535496  0.541555  -0.696607
    O   O10  0.538338  0.656545  0.549455  -0.712402
    O   O11  0.543238  0.337958  0.450811  -0.716755
    O   O12  0.457783  0.538299  0.344604  -0.697104
    O   O13  0.459973  0.466538  0.656361  -0.702645
    C   C1   0.499906  0.491404  0.308763  0.639756
    C   C2   0.501100  0.507918  0.691813  0.647166
    C   C3   0.497010  0.692035  0.508270  0.643536
    C   C4   0.502400  0.307984  0.492151  0.642368
    C   C5   0.308900  0.512022  0.501492  0.656682
    C   C6   0.691728  0.488774  0.498652  0.647217
    C   C7   0.768498  0.485003  0.497746  -0.005305
    C   C8   0.803571  0.540193  0.527418  -0.122841
    C   C9   0.875754  0.537221  0.526085  -0.240582
    C   C10  0.913741  0.477835  0.496444  0.573260
    C   C11  0.878607  0.422316  0.468079  -0.384444
    C   C12  0.806463  0.426197  0.467575  -0.013019
    C   C13  0.124490  0.466137  0.524063  -0.256602
    C   C14  0.196689  0.462894  0.525404  -0.106911
    C   C15  0.086912  0.524201  0.500561  0.575997
    N   N1   0.987785  0.472007  0.495785  -0.275003
    N   N2   0.012887  0.530062  0.499709  -0.275065
    C   C16  0.232135  0.516358  0.501570  -0.022190
    H   H1   0.225114  0.417442  0.544337  0.152872
    H   H2   0.098797  0.423384  0.543459  0.118873
    H   H3   0.907887  0.375758  0.445065  0.144830
    H   H4   0.780211  0.382239  0.444448  0.138272
    C   C17  0.194569  0.573943  0.477771  -0.003878
    C   C18  0.122425  0.578277  0.478543  -0.383680
    H   H5   0.221179  0.616645  0.459537  0.134057
    H   H6   0.901039  0.581305  0.550402  0.113247
    H   H7   0.093471  0.623914  0.460551  0.144350
    H   H8   0.774881  0.586658  0.551349  0.157155
    C   C19  0.501128  0.512252  0.768473  0.003870
    C   C20  0.475303  0.459890  0.803930  -0.128252
    C   C21  0.475926  0.463818  0.876114  -0.234309
    C   C22  0.500757  0.521523  0.913550  0.561839
    C   C23  0.525105  0.574357  0.877968  -0.369334
    C   C24  0.526504  0.569309  0.805905  -0.025971
    C   C25  0.473327  0.538363  0.124465  -0.241929
    C   C26  0.472203  0.542441  0.196668  -0.123741
    C   C27  0.500367  0.477471  0.087028  0.565973
    N   N3   0.500847  0.528264  0.987513  -0.272966
    N   N4   0.501343  0.470704  0.013075  -0.271052
    C   C28  0.499731  0.486837  0.232098  0.002588
    H   H9   0.450478  0.590058  0.225099  0.155934
    H   H10  0.451062  0.582890  0.098714  0.114714
    H   H11  0.544245  0.619633  0.906829  0.140633
    H   H12  0.546306  0.611205  0.779271  0.141080
    C   C29  0.527056  0.426456  0.194634  -0.020145
    C   C30  0.526163  0.421509  0.122588  -0.374638
    H   H13  0.548185  0.382066  0.221241  0.137974
    H   H14  0.454959  0.421902  0.901821  0.110900
    H   H15  0.547004  0.373775  0.093712  0.142157
    H   H16  0.455255  0.414852  0.775517  0.157821
    C   C31  0.501768  0.231416  0.487364  0.007800
    C   C32  0.474059  0.198335  0.541059  -0.133441
    C   C33  0.473486  0.126241  0.536654  -0.230372
    C   C34  0.499087  0.086652  0.477246  0.558264
    C   C35  0.525234  0.119993  0.423107  -0.369599
    C   C36  0.527721  0.191819  0.428476  -0.027112
    C   C37  0.471366  0.877991  0.461917  -0.236310
    C   C38  0.470498  0.805877  0.458121  -0.127209
    C   C39  0.496034  0.913622  0.521529  0.555757
    N   N5   0.498652  0.012759  0.470411  -0.272414
    N   N6   0.497104  0.987439  0.527983  -0.265460
    C   C40  0.495974  0.768695  0.512656  0.005378
    H   H17  0.450833  0.778805  0.411481  0.158819
    H   H18  0.450922  0.905209  0.418218  0.112414
    H   H19  0.544950  0.089448  0.376516  0.141253
    H   H20  0.548832  0.216684  0.385500  0.142251
    C   C41  0.520815  0.804351  0.571762  -0.026420
    C   C42  0.519598  0.876430  0.576522  -0.367738
    H   H21  0.540300  0.776369  0.615308  0.140909
    H   H22  0.451020  0.102542  0.579712  0.109236
    H   H23  0.538540  0.903962  0.623257  0.140416
    H   H24  0.453321  0.228461  0.587456  0.159657
