# Generated by REPEAT Assigner based on pymatgen
data_DB0-m29_o89_o45_f0_pts.sym.42
_audit_creation_date              2022-05-24
_audit_creation_method            REPEAT_Assigner
_cell_length_a                    14.137887
_cell_length_b                    9.412750
_cell_length_c                    17.787720
_cell_angle_alpha                 89.204151
_cell_angle_beta                  90.970086
_cell_angle_gamma                 109.545251
_cell_volume                      2230.321365
_symmetry_space_group_name_H-M    P1
_symmetry_Int_Tables_number       1
loop_
    _symmetry_equiv_pos_site_id
    _symmetry_equiv_pos_as_xyz
    1  x,y,z
loop_
    _atom_site_type_symbol
    _atom_site_label
    _atom_site_fract_x
    _atom_site_fract_y
    _atom_site_fract_z
    _atom_type_partial_charge
    C   C1   0.843142  0.997560  0.090723  -0.234644
    C   C2   0.754987  0.002929  0.057919  0.129168
    C   C3   0.748076  0.013265  0.980119  -0.036879
    C   C4   0.830393  0.022893  0.937161  -0.155304
    C   C5   0.917137  0.013138  0.970238  0.110053
    C   C6   0.923614  0.997954  0.047193  0.183073
    C   C7   0.996792  0.016451  0.925809  -0.224579
    C   C8   0.083505  0.005057  0.957838  0.146192
    C   C9   0.090866  0.988974  0.034660  0.147164
    C   C10  0.010854  0.985910  0.079839  -0.193857
    C   C11  0.162778  0.009869  0.912424  -0.172065
    C   C12  0.251787  0.003150  0.943065  0.065885
    C   C13  0.259694  0.988698  0.020586  -0.000775
    C   C14  0.178644  0.976726  0.065334  -0.211790
    H   H1   0.847721  0.993892  0.151127  0.150293
    H   H2   0.824642  0.029293  0.876620  0.153704
    H   H3   0.991255  0.028346  0.865518  0.169532
    H   H4   0.154721  0.020641  0.852318  0.150582
    H   H5   0.188544  0.965480  0.125061  0.147395
    N   N1   0.082092  0.075512  0.205852  -0.203291
    C   C15  0.067918  0.021355  0.276628  -0.019925
    C   C16  0.995169  0.880480  0.277845  -0.195669
    C   C17  0.963697  0.847700  0.204251  -0.160307
    C   C18  0.018739  0.970211  0.161578  0.225230
    H   H6   0.132216  0.179292  0.188460  0.299559
    H   H7   0.968036  0.809635  0.326623  0.178687
    H   H8   0.907217  0.746215  0.184056  0.152516
    O   O1   0.595049  0.034901  0.082744  -0.404260
    C   C19  0.672030  0.999185  0.107637  0.439122
    O   O2   0.497936  0.721187  0.152054  -0.437379
    O   O3   0.676845  0.966012  0.179166  -0.482650
    O   O4   0.487372  0.868129  0.249328  -0.447352
    C   C20  0.492058  0.739608  0.224617  0.463247
    Fe  Fe1  0.496782  0.009399  0.164015  1.383083
    O   O5   0.359804  0.922276  0.117020  -0.615756
    O   O6   0.433722  0.124980  0.042497  -0.489761
    C   C21  0.355520  0.006527  0.058398  0.639592
    O   O7   0.540436  0.218246  0.206362  -0.587618
    O   O8   0.440473  0.099926  0.303188  -0.503395
    C   C22  0.496539  0.224282  0.270151  0.548329
    O   O9   0.465063  0.794091  0.791294  -0.582059
    O   O10  0.601464  0.912084  0.720679  -0.498416
    C   C23  0.526008  0.790192  0.737195  0.577367
    O   O11  0.648788  0.081985  0.883349  -0.586981
    O   O12  0.573324  0.879527  0.957808  -0.479339
    C   C24  0.652646  0.995808  0.941324  0.612706
    O   O13  0.326858  0.039158  0.820531  -0.492228
    O   O14  0.524556  0.145827  0.751213  -0.461739
    C   C25  0.513471  0.270186  0.775660  0.467731
    O   O15  0.413114  0.976949  0.916526  -0.415940
    C   C26  0.334218  0.008744  0.892167  0.480767
    O   O16  0.501747  0.284818  0.847843  -0.445397
    Fe  Fe2  0.511773  0.001380  0.835541  1.379128
    C   C27  0.515325  0.393035  0.723325  0.233198
    C   C28  0.524239  0.378565  0.646809  -0.391264
    H   H9   0.525471  0.273354  0.624046  0.197919
    C   C29  0.528973  0.496450  0.597977  0.481435
    C   C30  0.532172  0.635246  0.627097  -0.260981
    C   C31  0.518754  0.646410  0.703484  0.199560
    C   C32  0.508178  0.525132  0.750758  -0.307827
    N   N2   0.528383  0.469341  0.519668  -0.225300
    N   N3   0.491040  0.549516  0.481479  -0.201741
    C   C33  0.488990  0.637019  0.353967  -0.431011
    H   H10  0.484617  0.740940  0.376111  0.187632
    C   C34  0.494020  0.618895  0.277343  0.226758
    C   C35  0.501548  0.485896  0.250552  -0.273970
    C   C36  0.500171  0.370199  0.299679  0.187215
    C   C37  0.495321  0.388911  0.376097  -0.367724
    H   H11  0.493275  0.296121  0.413274  0.163836
    C   C38  0.491997  0.524094  0.403472  0.603553
    H   H12  0.501267  0.538593  0.810413  0.180434
    H   H13  0.504111  0.469025  0.190772  0.169381
    C   C39  0.554598  0.772601  0.580297  0.548548
    O   O17  0.622925  0.803532  0.535374  -0.423909
    O   O18  0.498458  0.868140  0.587214  -0.522050
    H   H14  0.523859  0.956568  0.551243  0.399276
    C   C40  0.122549  0.102309  0.342207  0.697877
    O   O19  0.105159  0.045291  0.404636  -0.515312
    O   O20  0.194353  0.244435  0.333469  -0.629052
    H   H15  0.224826  0.284375  0.384043  0.412764
