# generated using pymatgen
data_Fe2H22C53O18
_symmetry_space_group_name_H-M   'P 1'
_cell_length_a   14.60734100
_cell_length_b   16.81405200
_cell_length_c   11.23617600
_cell_angle_alpha   107.35788800
_cell_angle_beta   94.20001000
_cell_angle_gamma   110.85103200
_symmetry_Int_Tables_number   1
_chemical_formula_structural   Fe2H22C53O18
_chemical_formula_sum   'Fe2 H22 C53 O18'
_cell_volume   2411.19958723
_cell_formula_units_Z   1
loop_
 _symmetry_equiv_pos_site_id
 _symmetry_equiv_pos_as_xyz
  1  'x, y, z'
loop_
 _atom_site_type_symbol
 _atom_site_label
 _atom_site_symmetry_multiplicity
 _atom_site_fract_x
 _atom_site_fract_y
 _atom_site_fract_z
 _atom_site_occupancy
  Fe  Fe1  1  0.49107300  0.99799100  0.15497100  1
  Fe  Fe2  1  0.47982900  0.98389700  0.66792200  1
  H  H1  1  0.14396800  0.01593400  0.68229600  1
  H  H2  1  0.02229600  0.03449900  0.80404100  1
  H  H3  1  0.90316400  0.90050000  0.78991200  1
  H  H4  1  0.25020700  0.01838800  0.19673600  1
  H  H5  1  0.13208800  0.04837300  0.31923600  1
  H  H6  1  0.98487400  0.07379400  0.33857800  1
  H  H7  1  0.82911800  0.06861000  0.24738600  1
  H  H8  1  0.27335600  0.54173300  0.33437700  1
  H  H9  1  0.31578700  0.31833000  0.50671800  1
  H  H10  1  0.67530400  0.43359000  0.48530900  1
  H  H11  1  0.63259400  0.65657100  0.31239800  1
  H  H12  1  0.44225800  0.54259700  0.11765700  1
  H  H13  1  0.44155900  0.66215100  0.03883500  1
  H  H14  1  0.45773600  0.70814100  0.49360300  1
  H  H15  1  0.49359900  0.26786500  0.32691500  1
  H  H16  1  0.51203600  0.31505400  0.78223400  1
  H  H17  1  0.50440300  0.43206300  0.70176600  1
  H  H18  1  0.13473800  0.43922900  0.38904900  1
  H  H19  1  0.15604500  0.32749600  0.47483500  1
  H  H20  1  0.81362900  0.53570500  0.42989800  1
  H  H21  1  0.79221600  0.64726500  0.34384100  1
  H  H22  1  0.77947100  0.84130700  0.48545500  1
  C  C1  1  0.23316700  0.99929500  0.82557700  1
  C  C2  1  0.15128400  0.01008300  0.77533200  1
  C  C3  1  0.07844300  0.01674100  0.84383600  1
  C  C4  1  0.86389700  0.93526000  0.84776700  1
  C  C5  1  0.24418000  0.00152400  0.95061400  1
  C  C6  1  0.16857100  0.00586200  0.01864700  1
  C  C7  1  0.08051700  0.00560300  0.96151600  1
  C  C8  1  0.00310300  0.00623000  0.03012000  1
  C  C9  1  0.77189300  0.92515900  0.79113200  1
  C  C10  1  0.71177400  0.95644600  0.86564600  1
  C  C11  1  0.90346700  0.98553900  0.97550900  1
  C  C12  1  0.83828000  0.00610100  0.05230200  1
  C  C13  1  0.74034500  0.98842700  0.99760100  1
  C  C14  1  0.18350200  0.01678100  0.14663100  1
  C  C15  1  0.11569300  0.03345600  0.21768300  1
  C  C16  1  0.02684000  0.02922000  0.16057800  1
  C  C17  1  0.96285500  0.05000600  0.23610400  1
  C  C18  1  0.87220800  0.04426200  0.18301100  1
  C  C19  1  0.66367600  0.99237700  0.07657200  1
  C  C20  1  0.45992700  0.82969500  0.17103900  1
  C  C21  1  0.34137400  0.01519400  0.01771000  1
  C  C22  1  0.48766600  0.12367500  0.37391300  1
  C  C23  1  0.47353000  0.85526800  0.44904600  1
  C  C24  1  0.61727500  0.95199600  0.80479000  1
  C  C25  1  0.50277400  0.15037700  0.65227900  1
  C  C26  1  0.30944800  0.99326400  0.74770400  1
  C  C27  1  0.28736400  0.49492600  0.37362300  1
  C  C28  1  0.20732200  0.43641100  0.40396400  1
  C  C29  1  0.21927600  0.37390600  0.45203500  1
  C  C30  1  0.31136400  0.36970100  0.47038700  1
  C  C31  1  0.39338800  0.42900900  0.44141900  1
  C  C32  1  0.38107200  0.49188900  0.39223800  1
  C  C33  1  0.48665300  0.42478700  0.45924600  1
  C  C34  1  0.56732900  0.48315900  0.42723600  1
  C  C35  1  0.55499000  0.54600600  0.37803300  1
  C  C36  1  0.46173600  0.55023600  0.36025400  1
  C  C37  1  0.66111200  0.48021800  0.44585500  1
  C  C38  1  0.74107000  0.53859300  0.41517900  1
  C  C39  1  0.72905700  0.60100200  0.36697500  1
  C  C40  1  0.63698600  0.60525800  0.34887100  1
  C  C41  1  0.44395700  0.60531600  0.18303300  1
  C  C42  1  0.44426500  0.67373500  0.13915000  1
  C  C43  1  0.45245400  0.75673200  0.22252100  1
  C  C44  1  0.45473300  0.76804400  0.35131500  1
  C  C45  1  0.45149700  0.69793200  0.39322000  1
  C  C46  1  0.44959700  0.61800000  0.31058000  1
  C  C47  1  0.50023000  0.27839700  0.42741900  1
  C  C48  1  0.50147600  0.20984800  0.47046300  1
  C  C49  1  0.50514900  0.22168000  0.59949800  1
  C  C50  1  0.50858200  0.30319300  0.68175700  1
  C  C51  1  0.50488400  0.37013800  0.63690500  1
  C  C52  1  0.49918600  0.35729800  0.50930600  1
  C  C53  1  0.74065000  0.87884400  0.65192800  1
  O  O1  1  0.58992400  0.01406000  0.04342500  1
  O  O2  1  0.45998100  0.81504100  0.04958900  1
  O  O3  1  0.66119100  0.96197100  0.17161400  1
  O  O4  1  0.47064000  0.91046400  0.24563100  1
  O  O5  1  0.35528000  0.94881600  0.04410600  1
  O  O6  1  0.41425400  0.09608900  0.05656300  1
  O  O7  1  0.54429900  0.12234800  0.28835800  1
  O  O8  1  0.40868900  0.05036500  0.36001500  1
  O  O9  1  0.41412100  0.86126100  0.53065700  1
  O  O10  1  0.55942000  0.92370800  0.46954200  1
  O  O11  1  0.61531700  0.02017000  0.77170700  1
  O  O12  1  0.53569300  0.87794400  0.77638800  1
  O  O13  1  0.30147800  0.00531500  0.63790400  1
  O  O14  1  0.50895900  0.07504500  0.58263900  1
  O  O15  1  0.38457900  0.97472900  0.78477900  1
  O  O16  1  0.49075000  0.16093200  0.76978200  1
  O  O17  1  0.65261100  0.83817500  0.60071200  1
  O  O18  1  0.81277700  0.87703500  0.57800100  1
