# Generated by REPEAT Assigner based on pymatgen
data_DB0-m3_o6_o28_f0_pcu.sym.28_sqe
_audit_creation_date              2022-05-24
_audit_creation_method            REPEAT_Assigner
_cell_length_a                    16.135382
_cell_length_b                    14.981923
_cell_length_c                    23.484093
_cell_angle_alpha                 90.000000
_cell_angle_beta                  90.002388
_cell_angle_gamma                 90.000000
_cell_volume                      5677.022205
_symmetry_space_group_name_H-M    P1
_symmetry_Int_Tables_number       1
loop_
    _symmetry_equiv_pos_site_id
    _symmetry_equiv_pos_as_xyz
    1  x,y,z
loop_
    _atom_site_type_symbol
    _atom_site_label
    _atom_site_fract_x
    _atom_site_fract_y
    _atom_site_fract_z
    _atom_type_partial_charge
    O   O1    0.376544  0.588305  0.498224  -0.656906
    O   O2    0.623459  0.434230  0.501714  -0.644916
    O   O3    0.623456  0.588305  0.501776  -0.657042
    O   O4    0.376540  0.434230  0.498286  -0.644646
    C   C1    0.338048  0.511273  0.497744  0.857206
    C   C2    0.661952  0.511274  0.502256  0.857598
    O   O5    0.502643  0.588158  0.415161  -0.684718
    O   O6    0.497454  0.434359  0.584786  -0.640101
    O   O7    0.497356  0.588158  0.584839  -0.684768
    O   O8    0.502546  0.434359  0.415214  -0.639976
    C   C3    0.504201  0.511131  0.388407  0.718393
    C   C4    0.495798  0.511130  0.611593  0.718531
    Zn  Zn1   0.500000  0.612760  0.500000  1.093433
    Zn  Zn2   0.500000  0.409764  0.500000  1.069338
    C   C5    0.570624  0.520472  0.880504  0.278600
    C   C6    0.429375  0.520470  0.119495  0.278563
    N   N1    0.497627  0.521898  0.853179  -0.061895
    N   N2    0.502372  0.521898  0.146821  -0.061897
    C   C7    0.425548  0.524353  0.881619  0.306884
    C   C8    0.574450  0.524354  0.118381  0.306941
    C   C9    0.424589  0.523435  0.941004  0.131768
    C   C10   0.575410  0.523435  0.058996  0.131731
    C   C11   0.499522  0.522935  0.970289  -0.079627
    C   C12   0.500476  0.522935  0.029711  -0.079612
    C   C13   0.573495  0.522284  0.939862  0.145032
    C   C14   0.426504  0.522284  0.060137  0.145046
    C   C15   0.350795  0.523234  0.971963  -0.079905
    C   C16   0.649203  0.523231  0.028037  -0.079896
    C   C17   0.351738  0.522630  0.030305  -0.073241
    C   C18   0.648261  0.522629  0.969695  -0.073240
    O   O9    0.639722  0.514955  0.848994  -0.447706
    O   O10   0.360277  0.514948  0.151006  -0.447698
    O   O11   0.355433  0.529418  0.851141  -0.450152
    O   O12   0.644566  0.529419  0.148858  -0.450179
    C   C19   0.537303  0.446332  0.235164  -0.076689
    C   C20   0.462697  0.446330  0.764836  -0.076727
    H   H1    0.563279  0.391966  0.210708  0.081898
    H   H2    0.436724  0.391963  0.789293  0.081909
    C   C21   0.538920  0.442162  0.293806  -0.057593
    C   C22   0.461081  0.442160  0.706194  -0.057541
    C   C23   0.505545  0.511862  0.325750  0.082243
    C   C24   0.494452  0.511861  0.674250  0.082266
    C   C25   0.472715  0.585027  0.297672  -0.202272
    C   C26   0.527280  0.585028  0.702328  -0.202367
    H   H3    0.446348  0.639956  0.321356  0.154654
    H   H4    0.553646  0.639959  0.678645  0.154673
    C   C27   0.471392  0.588404  0.239020  -0.146671
    C   C28   0.528605  0.588404  0.760980  -0.146622
    H   H5    0.445330  0.645948  0.217782  0.128269
    H   H6    0.554666  0.645948  0.782218  0.128267
    C   C29   0.503483  0.518877  0.207549  0.222102
    C   C30   0.496516  0.518876  0.792451  0.222094
    C   C31   0.957278  0.591099  0.500542  -0.123200
    C   C32   0.042717  0.431676  0.499457  -0.133130
    C   C33   0.042723  0.591099  0.499458  -0.123144
    C   C34   0.957285  0.431676  0.500543  -0.133186
    C   C35   0.914510  0.511380  0.501146  0.420090
    C   C36   0.085490  0.511380  0.498853  0.420016
    C   C37   0.825557  0.511346  0.502000  -0.165411
    C   C38   0.174444  0.511346  0.498000  -0.165347
    C   C39   0.249141  0.511299  0.497621  -0.217665
    C   C40   0.750859  0.511299  0.502378  -0.217704
    H   H7    0.407674  0.093391  0.435160  0.146361
    H   H8    0.592324  0.929182  0.564836  0.178826
    H   H9    0.592325  0.093390  0.564841  0.146407
    H   H10   0.407676  0.929182  0.435163  0.178825
    C   C41   0.448242  0.965268  0.463651  -0.154861
    C   C42   0.551759  0.057304  0.536349  -0.151218
    C   C43   0.551759  0.965268  0.536348  -0.154827
    C   C44   0.448241  0.057304  0.463651  -0.151152
    C   C45   0.500001  0.919252  0.499999  0.217265
    C   C46   0.500000  0.103312  0.500000  0.268432
    C   C47   0.500000  0.823478  0.500000  0.084846
    C   C48   0.500000  0.199066  0.500000  0.109461
    N   N3    0.500000  0.276278  0.500000  -0.131335
    N   N4    0.500000  0.746253  0.500000  -0.129339
    Br  Br1   0.240946  0.521644  0.940575  0.069095
    Br  Br2   0.759051  0.521639  0.059425  0.069112
    Br  Br3   0.242943  0.523728  0.063363  0.067769
    Br  Br4   0.757056  0.523724  0.936637  0.067759
    Br  Br5   0.594069  0.341341  0.326551  -0.054850
    Br  Br6   0.405937  0.341335  0.673449  -0.054869
    Br  Br7   0.101500  0.701481  0.498942  0.006237
    Br  Br8   0.898526  0.321301  0.501058  0.015853
    Br  Br9   0.898502  0.701482  0.501058  0.006234
    Br  Br10  0.101477  0.321302  0.498943  0.015814
