# generated using pymatgen
data_Cd4H15C28Cl3O16
_symmetry_space_group_name_H-M   'P 1'
_cell_length_a   12.43060900
_cell_length_b   12.73853500
_cell_length_c   12.74945300
_cell_angle_alpha   82.32089900
_cell_angle_beta   64.19654100
_cell_angle_gamma   115.20267700
_symmetry_Int_Tables_number   1
_chemical_formula_structural   Cd4H15C28Cl3O16
_chemical_formula_sum   'Cd4 H15 C28 Cl3 O16'
_cell_volume   1513.20813892
_cell_formula_units_Z   1
loop_
 _symmetry_equiv_pos_site_id
 _symmetry_equiv_pos_as_xyz
  1  'x, y, z'
loop_
 _atom_site_type_symbol
 _atom_site_label
 _atom_site_symmetry_multiplicity
 _atom_site_fract_x
 _atom_site_fract_y
 _atom_site_fract_z
 _atom_site_occupancy
  Cd  Cd1  1  0.76384100  0.30715700  0.03527000  1
  Cd  Cd2  1  0.23770100  0.69309800  0.96318800  1
  Cd  Cd3  1  0.83861000  0.53761800  0.19504700  1
  Cd  Cd4  1  0.16282700  0.46202200  0.80403200  1
  H  H1  1  0.75252100  0.63937900  0.83617800  1
  H  H2  1  0.55669600  0.42473800  0.82960600  1
  H  H3  1  0.44599100  0.28778100  0.08285200  1
  H  H4  1  0.24759500  0.36039000  0.16412800  1
  H  H5  1  0.86421700  0.39160300  0.42208400  1
  H  H6  1  0.11649100  0.62109700  0.39238000  1
  H  H7  1  0.76303200  0.33303900  0.65374900  1
  H  H8  1  0.07298200  0.51199900  0.56762700  1
  H  H9  1  0.31093000  0.91855400  0.70018600  1
  H  H10  1  0.50975100  0.15207100  0.58056000  1
  H  H11  1  0.55465400  0.06967400  0.35846900  1
  H  H12  1  0.86397600  0.78969700  0.02484300  1
  H  H13  1  0.11652000  0.00565300  0.00840900  1
  H  H14  1  0.76244300  0.92326000  0.06310800  1
  H  H15  1  0.07217200  0.13813100  0.94098600  1
  C  C1  1  0.90043900  0.40255800  0.76645700  1
  C  C2  1  0.10233700  0.83082800  0.00018800  1
  C  C3  1  0.66283300  0.50374700  0.09758400  1
  C  C4  1  0.33959100  0.73006700  0.66815200  1
  C  C5  1  0.10243500  0.59785200  0.23184000  1
  C  C6  1  0.89972700  0.16988200  0.99796000  1
  C  C7  1  0.33814500  0.49565400  0.90194800  1
  C  C8  1  0.66223800  0.26918700  0.33002100  1
  C  C9  1  0.63729600  0.57537700  0.91019300  1
  C  C10  1  0.53001100  0.61334800  0.95577400  1
  C  C11  1  0.42621700  0.49832800  0.95303800  1
  C  C12  1  0.53159200  0.45873200  0.90744000  1
  C  C13  1  0.46983100  0.38391700  0.04480100  1
  C  C14  1  0.36285200  0.42326400  0.08983400  1
  C  C15  1  0.46883100  0.53944700  0.09155500  1
  C  C16  1  0.57399800  0.50035100  0.04706700  1
  C  C17  1  0.92841000  0.44986300  0.45194000  1
  C  C18  1  0.05011500  0.55920600  0.36627000  1
  C  C19  1  0.87515200  0.40459400  0.58756500  1
  C  C20  1  0.95943900  0.44531300  0.63073400  1
  C  C21  1  0.40932800  0.95025800  0.61287600  1
  C  C22  1  0.44121100  0.86492500  0.58593000  1
  C  C23  1  0.50262100  0.08716000  0.53317000  1
  C  C24  1  0.56767800  0.13291400  0.40718700  1
  C  C25  1  0.92818500  0.88213300  0.02027200  1
  C  C26  1  0.05004600  0.91478100  0.01154900  1
  C  C27  1  0.87460400  0.96602800  0.02591700  1
  C  C28  1  0.95865000  0.09110400  0.98421100  1
  Cl  Cl1  1  0.56879400  0.76782500  0.89542200  1
  Cl  Cl2  1  0.60566900  0.90794700  0.45513600  1
  Cl  Cl3  1  0.42613800  0.59491800  0.21549900  1
  O  O1  1  0.97487300  0.45892100  0.81051200  1
  O  O2  1  0.76335300  0.32538600  0.85305600  1
  O  O3  1  0.02701800  0.71417800  0.01641100  1
  O  O4  1  0.23894900  0.87614500  0.94546800  1
  O  O5  1  0.76572000  0.48639500  0.04106000  1
  O  O6  1  0.67037000  0.55743900  0.17777800  1
  O  O7  1  0.23620300  0.68680300  0.78539400  1
  O  O8  1  0.33163500  0.64272000  0.62157400  1
  O  O9  1  0.02715200  0.54115700  0.18822600  1
  O  O10  1  0.23893800  0.67574400  0.14487500  1
  O  O11  1  0.97417400  0.28595100  0.98264300  1
  O  O12  1  0.76273600  0.12403100  0.05301200  1
  O  O13  1  0.23570900  0.51360400  0.95786800  1
  O  O14  1  0.33043600  0.44159700  0.82206000  1
  O  O15  1  0.76526000  0.31314400  0.21298900  1
  O  O16  1  0.67042600  0.35625400  0.37731300  1
