# Generated by REPEAT Assigner based on pymatgen
data_DB0-m3_o10_o45_f0_fsc
_audit_creation_date              2022-05-24
_audit_creation_method            REPEAT_Assigner
_cell_length_a                    7.725082
_cell_length_b                    8.585911
_cell_length_c                    8.784731
_cell_angle_alpha                 97.101963
_cell_angle_beta                  80.841278
_cell_angle_gamma                 93.769272
_cell_volume                      570.190794
_symmetry_space_group_name_H-M    P1
_symmetry_Int_Tables_number       1
loop_
    _symmetry_equiv_pos_site_id
    _symmetry_equiv_pos_as_xyz
    1  x,y,z
loop_
    _atom_site_type_symbol
    _atom_site_label
    _atom_site_fract_x
    _atom_site_fract_y
    _atom_site_fract_z
    _atom_type_partial_charge
    O   O1   0.122050  0.194684  0.159539  -0.751043
    O   O2   0.877950  0.805316  0.840460  -0.751072
    O   O3   0.826512  0.176644  0.165989  -0.773749
    O   O4   0.173489  0.823356  0.834011  -0.773688
    C   C1   0.966164  0.245477  0.218544  0.989816
    C   C2   0.033836  0.754523  0.781456  0.989762
    O   O5   0.862886  0.134215  0.844091  -0.708800
    O   O6   0.137115  0.865785  0.155909  -0.708870
    O   O7   0.158573  0.158961  0.839761  -0.748706
    O   O8   0.841427  0.841038  0.160239  -0.748887
    C   C3   0.017491  0.193533  0.788349  0.873295
    C   C4   0.982509  0.806467  0.211650  0.873418
    Zn  Zn1  0.807924  0.984934  0.005639  1.119108
    Zn  Zn2  0.192076  0.015065  0.994360  1.118828
    N   N1   0.453905  0.046332  0.977306  -0.049292
    N   N2   0.546095  0.953668  0.022693  -0.049548
    H   H1   0.527130  0.138550  0.931140  0.256771
    H   H2   0.472871  0.861450  0.068859  0.256873
    C   C5   0.955775  0.400113  0.311657  -0.266025
    C   C6   0.044226  0.599886  0.688342  -0.265882
    C   C7   0.941104  0.528295  0.236228  -0.096584
    C   C8   0.058896  0.471705  0.763772  -0.096634
    H   H3   0.919493  0.511077  0.116872  0.127476
    H   H4   0.080508  0.488923  0.883127  0.127484
    C   C9   0.971107  0.677995  0.305859  -0.008949
    C   C10  0.028893  0.322005  0.694141  -0.009058
    C   C11  0.003844  0.702804  0.456586  -0.347003
    C   C12  0.996156  0.297195  0.543413  -0.346931
    H   H5   0.027664  0.820737  0.510565  0.141115
    H   H6   0.972336  0.179263  0.489434  0.141116
    C   C13  0.010370  0.575918  0.536789  0.242807
    C   C14  0.989630  0.424082  0.463211  0.242852
