# Generated by REPEAT Assigner based on pymatgen
data_DB0-m2_o23_o25_f0_pcu.sym.74
_audit_creation_date              2022-05-24
_audit_creation_method            REPEAT_Assigner
_cell_length_a                    15.917360
_cell_length_b                    15.865041
_cell_length_c                    14.453747
_cell_angle_alpha                 89.925472
_cell_angle_beta                  89.930890
_cell_angle_gamma                 90.005333
_cell_volume                      3649.992886
_symmetry_space_group_name_H-M    P1
_symmetry_Int_Tables_number       1
loop_
    _symmetry_equiv_pos_site_id
    _symmetry_equiv_pos_as_xyz
    1  x,y,z
loop_
    _atom_site_type_symbol
    _atom_site_label
    _atom_site_fract_x
    _atom_site_fract_y
    _atom_site_fract_z
    _atom_type_partial_charge
    O   O1   0.505511  0.377523  0.578451  -0.628771
    O   O2   0.500295  0.378562  0.419251  -0.597853
    C   C1   0.502776  0.338778  0.498602  0.813278
    O   O3   0.380811  0.503297  0.578777  -0.658222
    O   O4   0.381499  0.498407  0.419545  -0.623981
    C   C2   0.342021  0.500968  0.499007  0.844143
    Cu  Cu1  0.502784  0.499885  0.592735  0.973009
    Cu  Cu2  0.503692  0.501162  0.407566  0.870822
    O   O5   0.506146  0.622494  0.581042  -0.616325
    O   O6   0.500945  0.623516  0.421847  -0.559804
    O   O7   0.624974  0.502645  0.580738  -0.579220
    O   O8   0.625663  0.497742  0.421543  -0.600027
    C   C3   0.503589  0.662271  0.501677  0.780691
    C   C4   0.664457  0.500068  0.501297  0.770241
    C   C5   0.976518  0.431929  0.543950  -0.099277
    C   C6   0.031077  0.432206  0.457024  -0.227454
    H   H1   0.055599  0.376133  0.420090  0.098122
    H   H2   0.952571  0.375178  0.580247  0.079732
    C   C7   0.251881  0.501040  0.498773  -0.109810
    C   C8   0.754591  0.499900  0.501548  -0.102410
    C   C9   0.031544  0.500506  0.586393  -0.238439
    C   C10  0.084308  0.500948  0.499369  0.804652
    C   C11  0.976391  0.567284  0.542608  -0.082753
    C   C12  0.922203  0.499743  0.501077  0.566079
    C   C13  0.030556  0.569098  0.456278  -0.300163
    C   C14  0.975932  0.500227  0.415593  -0.101899
    C   C15  0.176189  0.501031  0.498907  -0.430936
    C   C16  0.830279  0.499798  0.501463  -0.355838
    H   H3   0.053908  0.626038  0.419864  0.122374
    H   H4   0.056472  0.501712  0.657982  0.096141
    C   C17  0.541402  0.049771  0.584951  -0.132615
    C   C18  0.548139  0.047441  0.415532  -0.085202
    C   C19  0.542283  0.952250  0.412480  -0.163635
    H   H5   0.614242  0.935371  0.579739  0.039134
    H   H6   0.605462  0.076968  0.589116  0.052252
    H   H7   0.525732  0.075333  0.349821  0.027162
    H   H8   0.614936  0.065646  0.424074  0.018328
    H   H9   0.606335  0.925266  0.406732  0.049541
    H   H10  0.504956  0.932477  0.351549  0.037003
    C   C20  0.503057  0.752699  0.502020  -0.160856
    C   C21  0.498144  0.080169  0.497541  0.647603
    C   C22  0.547329  0.954509  0.583673  -0.158279
    C   C23  0.500582  0.920788  0.500302  0.629053
    C   C24  0.410206  0.950714  0.503115  -0.235533
    C   C25  0.407634  0.046365  0.498747  -0.059049
    C   C26  0.502185  0.828631  0.501586  -0.343279
    C   C27  0.499932  0.172417  0.497714  -0.447549
    C   C28  0.501526  0.248361  0.498111  -0.114095
    H   H11  0.377592  0.068847  0.563411  0.041864
    H   H12  0.380487  0.929380  0.568501  0.062925
    H   H13  0.505232  0.070149  0.646598  0.026635
    H   H14  0.519306  0.928637  0.647989  0.039523
    H   H15  0.375392  0.922548  0.444446  0.062511
    C   C29  0.512818  0.592326  0.049896  -0.255742
    C   C30  0.421484  0.468505  0.052066  -0.104810
    C   C31  0.417684  0.482405  0.947926  -0.139578
    H   H16  0.497221  0.635482  0.910200  0.088746
    H   H17  0.450674  0.623361  0.056548  0.086699
    H   H18  0.416763  0.400225  0.067851  0.041344
    H   H19  0.368193  0.501492  0.085738  0.056495
    H   H20  0.376496  0.536920  0.932046  0.050049
    H   H21  0.391344  0.425553  0.914092  0.058221
    N   N1   0.503862  0.500249  0.731028  -0.041638
    C   C32  0.504426  0.502671  0.087989  0.631087
    C   C33  0.532912  0.586069  0.947639  -0.185553
    C   C34  0.505918  0.499558  0.912310  0.605462
    C   C35  0.561722  0.429148  0.950511  -0.230869
    C   C36  0.574493  0.445255  0.052838  -0.180515
    C   C37  0.504792  0.499914  0.811068  -0.230464
    C   C38  0.503241  0.501619  0.189229  -0.270657
    N   N2   0.502660  0.500821  0.269272  0.003431
    H   H22  0.637099  0.472923  0.065135  0.070340
    H   H23  0.571449  0.384225  0.090188  0.084458
    H   H24  0.600455  0.597413  0.935619  0.068843
    H   H25  0.526765  0.369007  0.943643  0.083894
    C   C39  0.350741  0.075006  0.418965  0.559926
    F   F1   0.270835  0.043904  0.434641  -0.221601
    F   F2   0.378633  0.044781  0.334747  -0.203966
    F   F3   0.345509  0.161853  0.414973  -0.202440
    C   C40  0.645766  0.415253  0.901039  0.643309
    F   F4   0.632374  0.378039  0.815868  -0.215808
    F   F5   0.694172  0.360958  0.953531  -0.216714
    F   F6   0.689622  0.489504  0.888826  -0.196271
    C   C41  0.575194  0.650132  0.099671  0.690111
    F   F7   0.652343  0.612126  0.112287  -0.207984
    F   F8   0.543083  0.673851  0.184672  -0.229306
    F   F9   0.586396  0.722199  0.047219  -0.227194
    C   C42  0.942714  0.499557  0.317473  0.712111
    F   F10  0.009402  0.499761  0.256168  -0.248885
    F   F11  0.893842  0.570308  0.302785  -0.224975
    F   F12  0.894821  0.428003  0.303730  -0.235966
    C   C43  0.943718  0.644621  0.592276  0.701039
    F   F13  0.010740  0.692828  0.622021  -0.242738
    F   F14  0.896104  0.620147  0.667689  -0.234931
    F   F15  0.894727  0.691626  0.532525  -0.226501
