# generated using pymatgen
data_FeH15C33NO10
_symmetry_space_group_name_H-M   'P 1'
_cell_length_a   16.52448600
_cell_length_b   21.19713000
_cell_length_c   11.02269700
_cell_angle_alpha   112.57006700
_cell_angle_beta   95.44430300
_cell_angle_gamma   109.52066000
_symmetry_Int_Tables_number   1
_chemical_formula_structural   FeH15C33NO10
_chemical_formula_sum   'Fe2 H30 C66 N2 O20'
_cell_volume   3248.00070316
_cell_formula_units_Z   2
loop_
 _symmetry_equiv_pos_site_id
 _symmetry_equiv_pos_as_xyz
  1  'x, y, z'
loop_
 _atom_site_type_symbol
 _atom_site_label
 _atom_site_symmetry_multiplicity
 _atom_site_fract_x
 _atom_site_fract_y
 _atom_site_fract_z
 _atom_site_occupancy
  Fe  Fe1  1  0.48311600  0.97607400  0.23996800  1
  Fe  Fe2  1  0.48310300  0.98619800  0.71314700  1
  H  H1  1  0.80384500  0.99137300  0.23191800  1
  H  H2  1  0.74326400  0.99876600  0.79597600  1
  H  H3  1  0.04878100  0.00939500  0.76245700  1
  H  H4  1  0.18694100  0.00899400  0.74703800  1
  H  H5  1  0.22171700  0.97943800  0.16687500  1
  H  H6  1  0.08142900  0.98529700  0.18731600  1
  H  H7  1  0.94466100  0.99334100  0.21156000  1
  H  H8  1  0.69906000  0.65045100  0.63427200  1
  H  H9  1  0.71301000  0.55961700  0.70677400  1
  H  H10  1  0.29530100  0.32777600  0.35661400  1
  H  H11  1  0.28188900  0.41798000  0.28215700  1
  H  H12  1  0.48830300  0.22155900  0.42160700  1
  H  H13  1  0.57400500  0.27131600  0.89845700  1
  H  H14  1  0.56825500  0.37059800  0.84378600  1
  H  H15  1  0.49820700  0.75435900  0.54877200  1
  H  H16  1  0.43970500  0.59867200  0.13751500  1
  H  H17  1  0.47137800  0.69406100  0.97727400  1
  H  H18  1  0.37556300  0.71599600  0.00344300  1
  H  H19  1  0.43258000  0.57186200  0.81570500  1
  H  H20  1  0.32800600  0.44074200  0.69377700  1
  H  H21  1  0.18636000  0.39789700  0.75270900  1
  H  H22  1  0.14925300  0.48684100  0.93438300  1
  H  H23  1  0.25350300  0.61842700  0.05710600  1
  H  H24  1  0.96664400  0.06897700  0.76064700  1
  H  H25  1  0.85806200  0.05642200  0.75398200  1
  H  H26  1  0.89408000  0.01739400  0.50696200  1
  H  H27  1  0.84946700  0.90509200  0.29067000  1
  H  H28  1  0.80326800  0.78158600  0.28686900  1
  H  H29  1  0.80119100  0.76993200  0.49984600  1
  H  H30  1  0.84351400  0.87875400  0.71408200  1
  C  C1  1  0.79083900  0.99428400  0.13680900  1
  C  C2  1  0.70879400  0.99041700  0.08471900  1
  C  C3  1  0.69430100  0.99337600  0.96094100  1
  C  C4  1  0.76114600  0.00194700  0.89516400  1
  C  C5  1  0.84369800  0.00668600  0.94794300  1
  C  C6  1  0.85673000  0.00054600  0.06782000  1
  C  C7  1  0.91158700  0.01401100  0.88043600  1
  C  C8  1  0.98813000  0.00688100  0.92783100  1
  C  C9  1  0.99898700  0.99931300  0.04674600  1
  C  C10  1  0.93494100  0.99862300  0.11818300  1
  C  C11  1  0.05398200  0.00620600  0.85780700  1
  C  C12  1  0.12931100  0.00015700  0.90773000  1
  C  C13  1  0.13873100  0.99175700  0.02489900  1
  C  C14  1  0.07374100  0.99153300  0.09459900  1
  C  C15  1  0.19543700  0.00286100  0.83971800  1
  C  C16  1  0.27214000  0.99810200  0.88928000  1
  C  C17  1  0.28115500  0.98902200  0.00760900  1
  C  C18  1  0.21365900  0.98464300  0.07316200  1
  C  C19  1  0.64067700  0.98402400  0.16267700  1
  C  C20  1  0.47234500  0.84024200  0.22727300  1
  C  C21  1  0.36389400  0.99167700  0.07413100  1
  C  C22  1  0.48422600  0.10303100  0.44128500  1
  C  C23  1  0.49908500  0.86812000  0.51163200  1
  C  C24  1  0.60844400  0.98284800  0.88887500  1
  C  C25  1  0.52681400  0.12724000  0.72815700  1
  C  C26  1  0.34066200  0.00130200  0.81297100  1
  C  C27  1  0.40868500  0.55124600  0.34701000  1
  C  C28  1  0.55510500  0.63337500  0.47222000  1
  C  C29  1  0.56390800  0.58224100  0.51560400  1
  C  C30  1  0.49346800  0.51476700  0.47378600  1
  C  C31  1  0.41526400  0.49911900  0.38924300  1
  C  C32  1  0.64267300  0.59792100  0.59994800  1
  C  C33  1  0.65062800  0.54611600  0.64139500  1
  C  C34  1  0.57974600  0.47833800  0.59931100  1
  C  C35  1  0.50128400  0.46309400  0.51592500  1
  C  C36  1  0.43074800  0.39573600  0.47430500  1
  C  C37  1  0.35177900  0.38022300  0.39072800  1
  C  C38  1  0.34413000  0.43164800  0.34809600  1
  C  C39  1  0.58712600  0.42516500  0.63804700  1
  C  C40  1  0.43980200  0.34412800  0.51591700  1
  C  C41  1  0.50734400  0.23266300  0.52671100  1
  C  C42  1  0.51129700  0.17603000  0.55600400  1
  C  C43  1  0.53353300  0.18835000  0.69059000  1
  C  C44  1  0.55632300  0.25955500  0.79283300  1
  C  C45  1  0.55338400  0.31628800  0.76222800  1
  C  C46  1  0.52704400  0.30255300  0.62877900  1
  C  C47  1  0.48364400  0.74087300  0.44192400  1
  C  C48  1  0.48021100  0.79459000  0.40331000  1
  C  C49  1  0.46354900  0.77923500  0.26641500  1
  C  C50  1  0.44287400  0.70649400  0.16881600  1
  C  C51  1  0.44880800  0.65365400  0.21030400  1
  C  C52  1  0.47019400  0.67108100  0.34645300  1
  C  C53  1  0.41269500  0.68379700  0.01967700  1
  C  C54  1  0.34991000  0.60370200  0.94494200  1
  C  C55  1  0.37053400  0.55369900  0.84257000  1
  C  C56  1  0.31177700  0.47983800  0.77374800  1
  C  C57  1  0.23236300  0.45580200  0.80676600  1
  C  C58  1  0.21158800  0.50565200  0.90862300  1
  C  C59  1  0.27024200  0.57952100  0.97757500  1
  C  C60  1  0.90261200  0.02775500  0.75633500  1
  C  C61  1  0.87325100  0.95732400  0.62672800  1
  C  C62  1  0.87358600  0.96313900  0.50616800  1
  C  C63  1  0.84858600  0.90020200  0.38451800  1
  C  C64  1  0.82273900  0.83087100  0.38225300  1
  C  C65  1  0.82160000  0.82441300  0.50169400  1
  C  C66  1  0.84646200  0.88709700  0.62372800  1
  N  N1  1  0.47824400  0.61720700  0.38877600  1
  N  N2  1  0.51765900  0.35896400  0.59528700  1
  O  O1  1  0.56506400  0.98677600  0.12244000  1
  O  O2  1  0.49943100  0.83912300  0.11864200  1
  O  O3  1  0.65640200  0.97726900  0.27505900  1
  O  O4  1  0.45970000  0.89882400  0.30640900  1
  O  O5  1  0.36131900  0.94660100  0.13002900  1
  O  O6  1  0.43949600  0.04648200  0.09651700  1
  O  O7  1  0.54303200  0.07542500  0.40384800  1
  O  O8  1  0.40104100  0.06690800  0.37084800  1
  O  O9  1  0.43402400  0.88376400  0.55677700  1
  O  O10  1  0.58153000  0.91708100  0.56862300  1
  O  O11  1  0.60526100  0.02720500  0.83362100  1
  O  O12  1  0.53824900  0.92146000  0.85667200  1
  O  O13  1  0.34119000  0.02935100  0.72552200  1
  O  O14  1  0.49835200  0.05790900  0.63462000  1
  O  O15  1  0.39835200  0.97268700  0.82573200  1
  O  O16  1  0.54237600  0.14120100  0.85678500  1
  O  O17  1  0.33203100  0.53705400  0.26677600  1
  O  O18  1  0.62403900  0.69890900  0.51079700  1
  O  O19  1  0.66465100  0.43839200  0.71464100  1
  O  O20  1  0.37023300  0.27911900  0.47862400  1
