# Generated by REPEAT Assigner based on pymatgen
data_DB0-m29_o88_o109_f0_pts.sym.88
_audit_creation_date              2022-05-24
_audit_creation_method            REPEAT_Assigner
_cell_length_a                    15.401385
_cell_length_b                    11.611581
_cell_length_c                    16.045654
_cell_angle_alpha                 89.358352
_cell_angle_beta                  103.223669
_cell_angle_gamma                 98.848946
_cell_volume                      2759.320826
_symmetry_space_group_name_H-M    P1
_symmetry_Int_Tables_number       1
loop_
    _symmetry_equiv_pos_site_id
    _symmetry_equiv_pos_as_xyz
    1  x,y,z
loop_
    _atom_site_type_symbol
    _atom_site_label
    _atom_site_fract_x
    _atom_site_fract_y
    _atom_site_fract_z
    _atom_type_partial_charge
    C   C1   0.804805  0.987864  0.154276  -0.013617
    C   C2   0.887864  0.992662  0.134710  -0.275552
    H   H1   0.947572  0.996427  0.186053  0.136292
    C   C3   0.895926  0.988478  0.051269  0.276501
    C   C4   0.819029  0.980606  0.986058  -0.184090
    H   H2   0.824126  0.972575  0.920716  0.154910
    C   C5   0.734611  0.979425  0.003248  -0.011519
    C   C6   0.727026  0.982360  0.088557  0.011981
    C   C7   0.986722  0.986697  0.035973  -0.200343
    C   C8   0.008666  0.010474  0.960641  -0.195977
    H   H3   0.037000  0.964008  0.089862  0.152922
    H   H4   0.958873  0.031643  0.905822  0.141972
    C   C9   0.109064  0.989606  0.865086  -0.181201
    H   H5   0.050106  0.976011  0.812560  0.136600
    C   C10  0.193155  0.989292  0.849208  -0.140926
    H   H6   0.199151  0.977335  0.784159  0.139809
    C   C11  0.269797  0.008653  0.914673  0.085850
    C   C12  0.261516  0.024737  0.998454  -0.044389
    C   C13  0.176424  0.025899  0.013319  -0.187847
    H   H7   0.170389  0.043842  0.077272  0.150461
    C   C14  0.099915  0.007638  0.947142  0.229572
    O   O1   0.530210  0.136092  0.772886  -0.593230
    C   C15  0.488288  0.149510  0.693189  0.605286
    O   O2   0.416213  0.113373  0.911087  -0.492303
    O   O3   0.431963  0.062989  0.649616  -0.580798
    O   O4   0.373131  0.936313  0.843346  -0.566005
    C   C16  0.357141  0.017851  0.891360  0.546317
    Fe  Fe1  0.493819  0.981869  0.818806  1.428203
    O   O5   0.574113  0.975520  0.935889  -0.444817
    O   O6   0.672880  0.984343  0.851215  -0.534805
    C   C17  0.657502  0.978519  0.928401  0.539564
    O   O7   0.501888  0.874572  0.724609  -0.494843
    O   O8   0.505471  0.748731  0.833828  -0.502314
    C   C18  0.506631  0.768795  0.753423  0.499960
    O   O9   0.497635  0.126845  0.276415  -0.532695
    O   O10  0.495425  0.253398  0.167739  -0.510368
    C   C19  0.494309  0.233060  0.248124  0.544101
    O   O11  0.420038  0.023361  0.065940  -0.480029
    O   O12  0.323794  0.038236  0.150810  -0.556509
    C   C20  0.338423  0.032575  0.073657  0.604576
    O   O13  0.566760  0.938969  0.351961  -0.523679
    O   O14  0.622238  0.062929  0.154000  -0.576848
    C   C21  0.638855  0.977349  0.109892  0.622687
    O   O15  0.467769  0.864690  0.229397  -0.643483
    C   C22  0.510705  0.851891  0.308820  0.655860
    O   O16  0.579969  0.881238  0.093287  -0.487543
    Fe  Fe2  0.503003  0.018256  0.181827  1.474424
    C   C23  0.490750  0.329229  0.305557  0.096632
    C   C24  0.484873  0.438470  0.273555  -0.198093
    C   C25  0.488682  0.531089  0.327519  0.201110
    C   C26  0.488074  0.639834  0.293150  -0.184514
    C   C27  0.501965  0.736216  0.345680  0.061251
    C   C28  0.495284  0.312142  0.391637  -0.166292
    C   C29  0.494934  0.404448  0.447001  0.050753
    C   C30  0.495348  0.515935  0.414467  -0.035709
    C   C31  0.503434  0.612689  0.467771  0.086494
    C   C32  0.489375  0.278088  0.569649  -0.200839
    C   C33  0.497832  0.388755  0.534315  0.105189
    C   C34  0.506005  0.485556  0.587621  -0.075674
    C   C35  0.498279  0.265220  0.656400  0.111191
    C   C36  0.512536  0.361691  0.708931  -0.242935
    C   C37  0.511447  0.723352  0.432428  -0.177049
    C   C38  0.506481  0.597020  0.555062  0.089831
    C   C39  0.506106  0.689380  0.610315  -0.203298
    C   C40  0.512520  0.470500  0.674568  0.245570
    C   C41  0.516497  0.563286  0.728480  -0.197315
    C   C42  0.510692  0.672500  0.696357  0.101900
    H   H8   0.502718  0.225852  0.413617  0.167958
    H   H9   0.474988  0.198634  0.532063  0.162688
    H   H10  0.525701  0.802870  0.469905  0.135650
    H   H11  0.498549  0.775605  0.588315  0.189725
    H   H12  0.480722  0.453363  0.206283  0.151725
    H   H13  0.483008  0.650012  0.225260  0.186856
    H   H14  0.517255  0.351572  0.776776  0.186076
    H   H15  0.520471  0.548509  0.795742  0.153440
    C   C43  0.803847  0.984546  0.246008  0.418110
    H   H16  0.866350  0.011917  0.292984  0.004466
    O   O17  0.737195  0.941962  0.270952  -0.407016
