# Generated by REPEAT Assigner based on pymatgen
data_DB0-m29_o90_o490_f0_pts.sym.41
_audit_creation_date              2022-05-24
_audit_creation_method            REPEAT_Assigner
_cell_length_a                    12.088883
_cell_length_b                    16.778005
_cell_length_c                    13.321915
_cell_angle_alpha                 106.415548
_cell_angle_beta                  91.526355
_cell_angle_gamma                 107.330640
_cell_volume                      2456.051008
_symmetry_space_group_name_H-M    P1
_symmetry_Int_Tables_number       1
loop_
    _symmetry_equiv_pos_site_id
    _symmetry_equiv_pos_as_xyz
    1  x,y,z
loop_
    _atom_site_type_symbol
    _atom_site_label
    _atom_site_fract_x
    _atom_site_fract_y
    _atom_site_fract_z
    _atom_type_partial_charge
    C   C1   0.259204  0.999084  0.989361  -0.126173
    C   C2   0.198698  0.993618  0.897629  0.087641
    C   C3   0.086366  0.999631  0.899565  -0.016116
    C   C4   0.019567  0.987704  0.807550  -0.074309
    C   C5   0.909281  0.994051  0.810031  -0.154343
    C   C6   0.213313  0.013951  0.083154  -0.012429
    C   C7   0.102811  0.022452  0.086622  0.028010
    C   C8   0.038926  0.015108  0.994691  0.095074
    C   C9   0.927690  0.023335  0.997794  -0.040388
    C   C10  0.863104  0.012292  0.904458  0.098484
    C   C11  0.752618  0.019749  0.906160  -0.024581
    C   C12  0.054900  0.036798  0.180335  -0.083473
    C   C13  0.944469  0.043918  0.183384  -0.223080
    C   C14  0.879549  0.038925  0.092973  0.216200
    C   C15  0.766430  0.045897  0.093548  -0.159152
    C   C16  0.707735  0.039344  0.999851  -0.058040
    H   H1   0.049957  0.971151  0.731440  0.134798
    H   H2   0.861463  0.985422  0.736070  0.152131
    H   H3   0.101743  0.041458  0.253029  0.136763
    H   H4   0.912487  0.053417  0.258782  0.198673
    H   H5   0.347717  0.997033  0.990255  0.152657
    H   H6   0.620074  0.043019  0.997059  0.132337
    O   O1   0.580619  0.008870  0.155771  -0.610778
    C   C17  0.694146  0.046037  0.181791  0.722993
    O   O2   0.610845  0.884309  0.246601  -0.483792
    O   O3   0.737871  0.082119  0.281227  -0.523863
    O   O4   0.458292  0.903678  0.334916  -0.553155
    C   C18  0.532107  0.859792  0.306882  0.587200
    Fe  Fe1  0.474660  0.995485  0.264932  1.436888
    O   O5   0.311825  0.960681  0.193349  -0.581255
    O   O6   0.371467  0.106056  0.214059  -0.547374
    C   C19  0.291856  0.028857  0.176406  0.641679
    O   O7   0.542127  0.111747  0.376464  -0.513170
    O   O8   0.370383  0.057934  0.436482  -0.494919
    C   C20  0.470410  0.120251  0.448363  0.694168
    O   O9   0.443012  0.863217  0.601118  -0.626720
    O   O10  0.586357  0.945586  0.531290  -0.532170
    C   C21  0.512164  0.869212  0.527302  0.723667
    O   O11  0.613854  0.046576  0.800412  -0.583614
    O   O12  0.634479  0.911344  0.753886  -0.526420
    C   C22  0.672165  0.994142  0.810566  0.629757
    O   O13  0.260871  0.039392  0.746313  -0.466448
    O   O14  0.459929  0.061880  0.623303  -0.504189
    C   C23  0.483295  0.143411  0.682749  0.547153
    O   O15  0.342065  0.948827  0.797193  -0.577260
    C   C24  0.262522  0.988520  0.804751  0.501365
    O   O16  0.499380  0.161545  0.785558  -0.482778
    Fe  Fe2  0.463090  0.980801  0.705457  1.446901
    C   C25  0.490530  0.205074  0.528828  -0.110552
    C   C26  0.503235  0.276941  0.493449  0.059093
    H   H7   0.500561  0.267553  0.409689  0.080773
    C   C27  0.512230  0.358046  0.562685  -0.393833
    C   C28  0.513117  0.367732  0.669007  0.122879
    H   H8   0.520818  0.430240  0.725501  0.034620
    C   C29  0.503699  0.297291  0.705429  -0.189819
    H   H9   0.504907  0.307858  0.789323  0.146915
    C   C30  0.490784  0.215022  0.636681  0.106340
    N   N1   0.514244  0.508617  0.591226  -0.235655
    N   N2   0.514851  0.575092  0.556412  -0.271444
    C   C31  0.517395  0.567164  0.453238  0.830495
    N   N3   0.519751  0.491066  0.385837  -0.245049
    N   N4   0.518912  0.424485  0.420636  -0.244680
    C   C32  0.516257  0.432469  0.523850  0.754151
    C   C33  0.528586  0.635582  0.310290  0.044028
    H   H10  0.533014  0.575451  0.256000  0.033754
    C   C34  0.531250  0.705380  0.273461  0.255240
    C   C35  0.527470  0.783983  0.343595  -0.125692
    C   C36  0.515234  0.788881  0.448612  -0.036999
    C   C37  0.509368  0.717533  0.482862  0.042064
    H   H11  0.501587  0.723350  0.564990  0.104922
    C   C38  0.518404  0.641327  0.414773  -0.473995
    C   C39  0.532919  0.691103  0.156984  -0.530489
    C   C40  0.422083  0.693574  0.107411  0.451865
    C   C41  0.424973  0.750041  0.048697  -0.356656
    C   C42  0.322544  0.751105  0.001825  -0.001173
    C   C43  0.216981  0.695384  0.012690  -0.155725
    C   C44  0.213853  0.638165  0.069955  -0.052251
    C   C45  0.316153  0.636980  0.116917  -0.311497
    H   H12  0.540887  0.625573  0.118641  0.154522
    H   H13  0.610058  0.739209  0.141089  0.149315
    H   H14  0.507207  0.793554  0.038749  0.164795
    H   H15  0.325085  0.795549  0.956266  0.080226
    H   H16  0.136748  0.696192  0.975798  0.100880
    H   H17  0.131124  0.593953  0.077788  0.100609
    H   H18  0.312633  0.591118  0.160626  0.133468
