# Generated by REPEAT Assigner based on pymatgen
data_DB0-m3_o6_o25_f0_pcu.sym.66_sqe
_audit_creation_date              2022-05-24
_audit_creation_method            REPEAT_Assigner
_cell_length_a                    16.018980
_cell_length_b                    16.131438
_cell_length_c                    14.990160
_cell_angle_alpha                 90.008347
_cell_angle_beta                  89.989807
_cell_angle_gamma                 89.994296
_cell_volume                      3873.594798
_symmetry_space_group_name_H-M    P1
_symmetry_Int_Tables_number       1
loop_
    _symmetry_equiv_pos_site_id
    _symmetry_equiv_pos_as_xyz
    1  x,y,z
loop_
    _atom_site_type_symbol
    _atom_site_label
    _atom_site_fract_x
    _atom_site_fract_y
    _atom_site_fract_z
    _atom_type_partial_charge
    O   O1   0.497090  0.373749  0.583073  -0.628886
    O   O2   0.501383  0.620667  0.428758  -0.640905
    O   O3   0.497320  0.373695  0.428831  -0.641909
    O   O4   0.501170  0.620721  0.583021  -0.624198
    C   C1   0.496496  0.335291  0.505961  0.817338
    C   C2   0.502048  0.659121  0.505882  0.807900
    O   O5   0.374728  0.499261  0.582949  -0.688510
    O   O6   0.623693  0.495188  0.428881  -0.688271
    O   O7   0.374990  0.499197  0.428714  -0.692425
    O   O8   0.623437  0.495238  0.583134  -0.692354
    C   C3   0.336138  0.499879  0.505760  0.847976
    C   C4   0.662265  0.494581  0.506070  0.844199
    Zn  Zn1  0.499067  0.497243  0.607572  1.067864
    Zn  Zn2  0.499360  0.497171  0.404268  1.079791
    C   C5   0.970997  0.432129  0.547852  -0.173218
    C   C6   0.027342  0.564777  0.463242  -0.173940
    C   C7   0.023335  0.431663  0.463601  -0.072300
    C   C8   0.974876  0.565273  0.547428  -0.088973
    H   H1   0.946809  0.376698  0.583134  0.062376
    H   H2   0.051530  0.620280  0.428097  0.063772
    H   H3   0.944121  0.499398  0.354416  0.056493
    H   H4   0.054108  0.497440  0.656690  0.055322
    C   C9   0.246599  0.499795  0.505469  -0.129993
    C   C10  0.751767  0.495285  0.506283  -0.119759
    C   C11  0.028695  0.497750  0.587892  -0.165075
    C   C12  0.969530  0.499175  0.423214  -0.169176
    C   C13  0.080091  0.496520  0.503265  0.683579
    C   C14  0.918187  0.500315  0.507816  0.710873
    C   C15  0.171395  0.498659  0.504599  -0.414655
    C   C16  0.826939  0.497183  0.506901  -0.434811
    C   C17  0.502224  0.954307  0.585793  -0.093004
    C   C18  0.497907  0.040014  0.425911  -0.105785
    C   C19  0.503655  0.911724  0.505777  0.131942
    C   C20  0.497590  0.082691  0.505892  0.142211
    C   C21  0.502747  0.954422  0.425855  -0.086009
    C   C22  0.500314  0.040071  0.585875  -0.102924
    C   C23  0.504238  0.822673  0.505817  -0.047520
    C   C24  0.496100  0.171732  0.505948  -0.050161
    C   C25  0.495867  0.246419  0.505978  -0.247629
    C   C26  0.503579  0.747987  0.505863  -0.243263
    H   H5   0.411166  0.398307  0.088071  0.158879
    H   H6   0.587495  0.595833  0.923799  0.138691
    C   C27  0.449992  0.441548  0.959940  -0.124692
    C   C28  0.548962  0.552263  0.051897  -0.186040
    H   H7   0.411260  0.398118  0.923867  0.147981
    H   H8   0.587810  0.595540  0.088001  0.163855
    C   C29  0.499339  0.497009  0.913924  0.224429
    C   C30  0.499471  0.496948  0.097912  0.286590
    C   C31  0.548838  0.552359  0.959902  -0.112514
    C   C32  0.449993  0.441587  0.051939  -0.181760
    C   C33  0.499167  0.497148  0.818188  0.062160
    C   C34  0.499420  0.497046  0.193651  0.035171
    N   N1   0.499379  0.497135  0.270842  -0.097572
    N   N2   0.499047  0.497254  0.740998  -0.107124
    C   C35  0.041067  0.353121  0.413753  0.099445
    C   C36  0.974928  0.302158  0.392129  -0.113752
    C   C37  0.988100  0.229472  0.345946  -0.327832
    C   C38  0.067418  0.206725  0.320091  0.418122
    O   O9   0.077324  0.135007  0.274787  -0.370048
    C   C39  0.152862  0.106085  0.244670  0.132978
    C   C40  0.133998  0.258065  0.341042  -0.183698
    C   C41  0.120662  0.330728  0.387441  -0.287810
    H   H9   0.912162  0.319030  0.411402  0.126687
    H   H10  0.935735  0.190029  0.329655  0.151917
    H   H11  0.143158  0.046267  0.209734  0.043959
    H   H12  0.195650  0.095612  0.301760  0.037134
    H   H13  0.180441  0.150930  0.196919  0.012118
    H   H14  0.197292  0.243378  0.321936  0.107044
    H   H15  0.173607  0.369488  0.401556  0.179895
    C   C42  0.956699  0.644142  0.596593  0.094368
    C   C43  0.023046  0.691686  0.625330  -0.069881
    C   C44  0.009420  0.764844  0.670544  -0.388673
    C   C45  0.929359  0.791758  0.687786  0.492483
    O   O10  0.918945  0.863896  0.732193  -0.363182
    C   C46  0.842517  0.897236  0.753124  0.080796
    C   C47  0.862509  0.744168  0.659102  -0.263117
    C   C48  0.876317  0.670973  0.613887  -0.274027
    H   H16  0.086318  0.671725  0.612399  0.118189
    H   H17  0.061987  0.801491  0.692627  0.160920
    H   H18  0.851990  0.956409  0.789386  0.067919
    H   H19  0.807345  0.854168  0.796914  0.007242
    H   H20  0.806795  0.910163  0.691262  0.029310
    H   H21  0.798577  0.762374  0.670870  0.158581
    H   H22  0.822913  0.635862  0.592681  0.177080
    C   C49  0.504951  0.086284  0.669817  0.200643
    C   C50  0.437642  0.131996  0.699404  -0.011556
    C   C51  0.444270  0.179041  0.775836  -0.398455
    C   C52  0.517990  0.181123  0.823381  0.357941
    O   O11  0.522303  0.230086  0.896322  -0.228971
    C   C53  0.592405  0.239129  0.948096  0.045992
    C   C54  0.585103  0.133772  0.794548  -0.217861
    C   C55  0.578223  0.086686  0.718114  -0.234957
    H   H23  0.379902  0.131767  0.662097  0.088643
    H   H24  0.391631  0.215513  0.798110  0.164801
    H   H25  0.578969  0.283668  0.002600  0.028200
    H   H26  0.644475  0.264016  0.907308  0.023654
    H   H27  0.609835  0.178703  0.978120  0.024676
    H   H28  0.643983  0.132939  0.829582  0.130738
    H   H29  0.631258  0.051247  0.694985  0.120297
    C   C56  0.514931  0.909754  0.341781  0.173554
    C   C57  0.454412  0.857389  0.308435  0.018764
    C   C58  0.468498  0.814578  0.230195  -0.390744
    C   C59  0.542844  0.823587  0.184582  0.346643
    O   O12  0.554542  0.779488  0.109015  -0.237497
    C   C60  0.626091  0.782561  0.058621  0.087561
    C   C61  0.603129  0.877043  0.217736  -0.209574
    C   C62  0.588858  0.919655  0.295882  -0.238866
    H   H30  0.396027  0.849674  0.343632  0.084144
    H   H31  0.421115  0.773234  0.204585  0.157329
    H   H32  0.619766  0.739884  0.001093  0.031574
    H   H33  0.680348  0.762319  0.099115  0.010902
    H   H34  0.635826  0.846304  0.032871  0.010044
    H   H35  0.662213  0.886569  0.184631  0.131447
    H   H36  0.636558  0.960412  0.321902  0.130063
    C   C63  0.498427  0.907941  0.669628  0.216546
    C   C64  0.566254  0.862699  0.698694  -0.028152
    C   C65  0.560229  0.815207  0.774857  -0.395287
    C   C66  0.486566  0.812120  0.822510  0.342927
    O   O13  0.482715  0.762573  0.895005  -0.221035
    C   C67  0.412626  0.752394  0.946590  0.040397
    C   C68  0.418983  0.859060  0.794208  -0.195857
    C   C69  0.425293  0.906655  0.718124  -0.254003
    H   H37  0.623896  0.863601  0.661183  0.081211
    H   H38  0.613267  0.779103  0.796730  0.161142
    H   H39  0.426419  0.707578  0.000700  0.030340
    H   H40  0.360889  0.727281  0.905493  0.023075
    H   H41  0.394514  0.812391  0.977170  0.024586
    H   H42  0.360145  0.859143  0.829353  0.131621
    H   H43  0.371896  0.941719  0.695333  0.132405
    C   C70  0.485635  0.084709  0.341869  0.195688
    C   C71  0.546057  0.137289  0.308696  -0.006313
    C   C72  0.532150  0.179868  0.230296  -0.386290
    C   C73  0.458128  0.170309  0.184254  0.333160
    O   O14  0.446644  0.214071  0.108440  -0.218867
    C   C74  0.375410  0.210440  0.057607  0.044948
    C   C75  0.397964  0.116613  0.217200  -0.175259
    C   C76  0.411967  0.074357  0.295606  -0.248575
    H   H44  0.604269  0.145309  0.344121  0.096923
    H   H45  0.579464  0.221369  0.204831  0.159554
    H   H46  0.381894  0.252905  0.999921  0.036688
    H   H47  0.320802  0.230545  0.097682  0.023543
    H   H48  0.366150  0.146548  0.032074  0.025536
    H   H49  0.339253  0.106518  0.183617  0.091812
    H   H50  0.364327  0.033406  0.321412  0.120198
