# generated using pymatgen
data_Zn3H6C30(Cl2O3)4
_symmetry_space_group_name_H-M   'P 1'
_cell_length_a   38.32056800
_cell_length_b   21.87722100
_cell_length_c   21.79618000
_cell_angle_alpha   90.00000000
_cell_angle_beta   56.80411800
_cell_angle_gamma   90.00000000
_symmetry_Int_Tables_number   1
_chemical_formula_structural   Zn3H6C30(Cl2O3)4
_chemical_formula_sum   'Zn12 H24 C120 Cl32 O48'
_cell_volume   15290.72408516
_cell_formula_units_Z   4
loop_
 _symmetry_equiv_pos_site_id
 _symmetry_equiv_pos_as_xyz
  1  'x, y, z'
loop_
 _atom_site_type_symbol
 _atom_site_label
 _atom_site_symmetry_multiplicity
 _atom_site_fract_x
 _atom_site_fract_y
 _atom_site_fract_z
 _atom_site_occupancy
  Zn  Zn1  1  0.99955600  0.43066400  0.50038500  1
  Zn  Zn2  1  0.49955600  0.93066400  0.50038500  1
  Zn  Zn3  1  0.99998700  0.56916100  0.50011100  1
  Zn  Zn4  1  0.49998700  0.06916100  0.50011100  1
  Zn  Zn5  1  0.49923300  0.49894800  0.93116700  1
  Zn  Zn6  1  0.50030600  0.49897200  0.06903000  1
  Zn  Zn7  1  0.99923300  0.99894800  0.93116700  1
  Zn  Zn8  1  0.00030600  0.99897200  0.06903000  1
  Zn  Zn9  1  0.04707900  0.49991500  0.95417100  1
  Zn  Zn10  1  0.95262700  0.49970200  0.04615900  1
  Zn  Zn11  1  0.54707900  0.99991500  0.95417100  1
  Zn  Zn12  1  0.45262700  0.99970200  0.04615900  1
  H  H1  1  0.72412500  0.60517400  0.77559300  1
  H  H2  1  0.27544700  0.60488600  0.22435900  1
  H  H3  1  0.22412500  0.10517400  0.77559300  1
  H  H4  1  0.77544700  0.10488600  0.22435900  1
  H  H5  1  0.77743800  0.55275800  0.81423800  1
  H  H6  1  0.22206900  0.55228600  0.18597200  1
  H  H7  1  0.27743800  0.05275800  0.81423800  1
  H  H8  1  0.72206900  0.05228600  0.18597200  1
  H  H9  1  0.02819700  0.58728500  0.27919000  1
  H  H10  1  0.98158000  0.59467200  0.71280000  1
  H  H11  1  0.52819700  0.08728500  0.27919000  1
  H  H12  1  0.48158000  0.09467200  0.71280000  1
  H  H13  1  0.96969300  0.41311700  0.22182500  1
  H  H14  1  0.01932100  0.40728000  0.78807000  1
  H  H15  1  0.46969300  0.91311700  0.22182500  1
  H  H16  1  0.51932100  0.90728000  0.78807000  1
  H  H17  1  0.96991400  0.41144600  0.33371600  1
  H  H18  1  0.01923200  0.40691400  0.67607700  1
  H  H19  1  0.46991400  0.91144600  0.33371600  1
  H  H20  1  0.51923200  0.90691400  0.67607700  1
  H  H21  1  0.93684000  0.69385500  0.09125700  1
  H  H22  1  0.06391700  0.69482200  0.90885400  1
  H  H23  1  0.43684000  0.19385500  0.09125700  1
  H  H24  1  0.56391700  0.19482200  0.90885400  1
  C  C1  1  0.99901200  0.49879400  0.38105400  1
  C  C2  1  0.00054300  0.50106800  0.61948700  1
  C  C3  1  0.49901200  0.99879400  0.38105400  1
  C  C4  1  0.50054300  0.00106800  0.61948700  1
  C  C5  1  0.91820100  0.49917500  0.58028600  1
  C  C6  1  0.08133100  0.50064200  0.42019900  1
  C  C7  1  0.41820100  0.99917500  0.58028600  1
  C  C8  1  0.58133100  0.00064200  0.42019900  1
  C  C9  1  0.73516600  0.47161700  0.71671200  1
  C  C10  1  0.26438300  0.47145500  0.28360700  1
  C  C11  1  0.23516600  0.97161700  0.71671200  1
  C  C12  1  0.76438300  0.97145500  0.28360700  1
  C  C13  1  0.76225300  0.52808600  0.68928000  1
  C  C14  1  0.23732000  0.52795200  0.31090300  1
  C  C15  1  0.26225300  0.02808600  0.68928000  1
  C  C16  1  0.73732000  0.02795200  0.31090300  1
  C  C17  1  0.87342200  0.49966400  0.62537000  1
  C  C18  1  0.12611100  0.50016400  0.37506300  1
  C  C19  1  0.37342200  0.99966400  0.62537000  1
  C  C20  1  0.62611100  0.00016400  0.37506300  1
  C  C21  1  0.62611200  0.49942300  0.87497400  1
  C  C22  1  0.37342100  0.49920500  0.12518600  1
  C  C23  1  0.12611200  0.99942300  0.87497400  1
  C  C24  1  0.87342100  0.99920500  0.12518600  1
  C  C25  1  0.76331200  0.44364800  0.73762700  1
  C  C26  1  0.23619300  0.44338600  0.26283900  1
  C  C27  1  0.26331200  0.94364800  0.73762700  1
  C  C28  1  0.73619300  0.94338600  0.26283900  1
  C  C29  1  0.79021900  0.50016000  0.71031500  1
  C  C30  1  0.20931400  0.49992600  0.29001500  1
  C  C31  1  0.29021900  0.00016000  0.71031500  1
  C  C32  1  0.70931400  0.99992600  0.29001500  1
  C  C33  1  0.73730000  0.47247000  0.81268900  1
  C  C34  1  0.26219600  0.47206700  0.18768400  1
  C  C35  1  0.23730000  0.97247000  0.81268900  1
  C  C36  1  0.76219600  0.97206700  0.18768400  1
  C  C37  1  0.70934300  0.50040800  0.79164600  1
  C  C38  1  0.29019000  0.50010500  0.20858800  1
  C  C39  1  0.20934300  0.00040800  0.79164600  1
  C  C40  1  0.79019000  0.00010500  0.20858800  1
  C  C41  1  0.76458900  0.52929000  0.78567300  1
  C  C42  1  0.23493100  0.52891300  0.21457000  1
  C  C43  1  0.26458900  0.02929000  0.78567300  1
  C  C44  1  0.73493100  0.02891300  0.21457000  1
  C  C45  1  0.73607000  0.55761500  0.76449300  1
  C  C46  1  0.26348500  0.55733500  0.23560800  1
  C  C47  1  0.23607000  0.05761500  0.76449300  1
  C  C48  1  0.76348500  0.05733500  0.23560800  1
  C  C49  1  0.83584400  0.49993600  0.66360600  1
  C  C50  1  0.16368800  0.49995700  0.33678200  1
  C  C51  1  0.33584400  0.99993600  0.66360600  1
  C  C52  1  0.66368800  0.99995700  0.33678200  1
  C  C53  1  0.66370400  0.49981400  0.83759900  1
  C  C54  1  0.33582900  0.49954400  0.16259000  1
  C  C55  1  0.16370400  0.99981400  0.83759900  1
  C  C56  1  0.83582900  0.99954400  0.16259000  1
  C  C57  1  0.01544900  0.54863500  0.26693900  1
  C  C58  1  0.98986700  0.55315000  0.72874100  1
  C  C59  1  0.51544900  0.04863500  0.26693900  1
  C  C60  1  0.48986700  0.05315000  0.72874100  1
  C  C61  1  0.01640600  0.54857400  0.20284900  1
  C  C62  1  0.98908800  0.55260600  0.79265500  1
  C  C63  1  0.51640600  0.04857400  0.20284900  1
  C  C64  1  0.48908800  0.05260600  0.79265500  1
  C  C65  1  0.99988300  0.49985300  0.18674700  1
  C  C66  1  0.99974700  0.50022100  0.81375400  1
  C  C67  1  0.49988300  0.99985300  0.18674700  1
  C  C68  1  0.49974700  0.00022100  0.81375400  1
  C  C69  1  0.98275300  0.45116700  0.23439300  1
  C  C70  1  0.01084800  0.44824000  0.77144200  1
  C  C71  1  0.48275300  0.95116700  0.23439300  1
  C  C72  1  0.51084800  0.94824000  0.77144200  1
  C  C73  1  0.98313000  0.45020200  0.29718700  1
  C  C74  1  0.01061100  0.44817000  0.70849900  1
  C  C75  1  0.48313000  0.95020200  0.29718700  1
  C  C76  1  0.51061100  0.94817000  0.70849900  1
  C  C77  1  0.99919100  0.49919600  0.31391600  1
  C  C78  1  0.00038500  0.50079600  0.68666700  1
  C  C79  1  0.49919100  0.99919600  0.31391600  1
  C  C80  1  0.50038500  0.00079600  0.68666700  1
  C  C81  1  0.49991500  0.37946300  0.00118900  1
  C  C82  1  0.99991500  0.87946300  0.00118900  1
  C  C83  1  0.58132300  0.49911100  0.91876700  1
  C  C84  1  0.41821200  0.49893900  0.08136600  1
  C  C85  1  0.08132300  0.99911100  0.91876700  1
  C  C86  1  0.91821200  0.99893900  0.08136600  1
  C  C87  1  0.49962800  0.61879400  0.99900400  1
  C  C88  1  0.99962800  0.11879400  0.99900400  1
  C  C89  1  0.99907700  0.38007300  0.00065200  1
  C  C90  1  0.49907700  0.88007300  0.00065200  1
  C  C91  1  0.99950900  0.50001300  0.12036500  1
  C  C92  1  0.00018200  0.50003600  0.87999900  1
  C  C93  1  0.49950900  0.00001300  0.12036500  1
  C  C94  1  0.50018200  0.00003600  0.87999900  1
  C  C95  1  0.00063000  0.61946000  0.99964600  1
  C  C96  1  0.50063000  0.11946000  0.99964600  1
  C  C97  1  0.46482700  0.28096700  0.05187200  1
  C  C98  1  0.53546000  0.28149200  0.94928800  1
  C  C99  1  0.96482700  0.78096700  0.05187200  1
  C  C100  1  0.03546000  0.78149200  0.94928800  1
  C  C101  1  0.96482200  0.71795600  0.05100100  1
  C  C102  1  0.03580000  0.71848800  0.94940300  1
  C  C103  1  0.46482200  0.21795600  0.05100100  1
  C  C104  1  0.53580000  0.21848800  0.94940300  1
  C  C105  1  0.00040200  0.68640400  0.00002500  1
  C  C106  1  0.50040200  0.18640400  0.00002500  1
  C  C107  1  0.50006500  0.31280300  0.00078000  1
  C  C108  1  0.00006500  0.81280300  0.00078000  1
  C  C109  1  0.52546400  0.71796300  0.01381300  1
  C  C110  1  0.47351600  0.71807000  0.98519200  1
  C  C111  1  0.02546400  0.21796300  0.01381300  1
  C  C112  1  0.97351600  0.21807000  0.98519200  1
  C  C113  1  0.02525200  0.28097300  0.01435800  1
  C  C114  1  0.97350600  0.28107300  0.98535600  1
  C  C115  1  0.52525200  0.78097300  0.01435800  1
  C  C116  1  0.47350600  0.78107300  0.98535600  1
  C  C117  1  0.99930500  0.31302400  0.00007800  1
  C  C118  1  0.49930500  0.81302400  0.00007800  1
  C  C119  1  0.49953300  0.68592600  0.99935100  1
  C  C120  1  0.99953300  0.18592600  0.99935100  1
  Cl  Cl1  1  0.78019300  0.56518400  0.60443400  1
  Cl  Cl2  1  0.21943600  0.56523500  0.39562500  1
  Cl  Cl3  1  0.28019300  0.06518400  0.60443400  1
  Cl  Cl4  1  0.71943600  0.06523500  0.39562500  1
  Cl  Cl5  1  0.41943200  0.32031100  0.11658600  1
  Cl  Cl6  1  0.58065100  0.32148800  0.88505600  1
  Cl  Cl7  1  0.91943200  0.82031100  0.11658600  1
  Cl  Cl8  1  0.08065100  0.82148800  0.88505600  1
  Cl  Cl9  1  0.56088700  0.68030500  0.02803400  1
  Cl  Cl10  1  0.43822500  0.68054100  0.97053100  1
  Cl  Cl11  1  0.06088700  0.18030500  0.02803400  1
  Cl  Cl12  1  0.93822500  0.18054100  0.97053100  1
  Cl  Cl13  1  0.05695900  0.31884000  0.03728900  1
  Cl  Cl14  1  0.94169400  0.31908300  0.96276000  1
  Cl  Cl15  1  0.55695900  0.81884000  0.03728900  1
  Cl  Cl16  1  0.44169400  0.81908300  0.96276000  1
  Cl  Cl17  1  0.71475900  0.43334800  0.67098300  1
  Cl  Cl18  1  0.28481100  0.43334700  0.32939500  1
  Cl  Cl19  1  0.21475900  0.93334800  0.67098300  1
  Cl  Cl20  1  0.78481100  0.93334700  0.32939500  1
  Cl  Cl21  1  0.71933300  0.43433500  0.89696200  1
  Cl  Cl22  1  0.28011100  0.43376800  0.10352600  1
  Cl  Cl23  1  0.21933300  0.93433500  0.89696200  1
  Cl  Cl24  1  0.78011100  0.93376800  0.10352600  1
  Cl  Cl25  1  0.78221900  0.36727600  0.71941200  1
  Cl  Cl26  1  0.21725700  0.36703000  0.28129300  1
  Cl  Cl27  1  0.28221900  0.86727600  0.71941200  1
  Cl  Cl28  1  0.71725700  0.86703000  0.28129300  1
  Cl  Cl29  1  0.03652100  0.61215100  0.14451700  1
  Cl  Cl30  1  0.97591000  0.61918300  0.84558700  1
  Cl  Cl31  1  0.53652100  0.11215100  0.14451700  1
  Cl  Cl32  1  0.47591000  0.11918300  0.84558700  1
  O  O1  1  0.99760300  0.44590900  0.41066000  1
  O  O2  1  0.99954800  0.44844100  0.59160800  1
  O  O3  1  0.49760300  0.94590900  0.41066000  1
  O  O4  1  0.49954800  0.94844100  0.59160800  1
  O  O5  1  0.00060200  0.55137500  0.40836400  1
  O  O6  1  0.00132500  0.55392800  0.59040100  1
  O  O7  1  0.50060200  0.05137500  0.40836400  1
  O  O8  1  0.50132500  0.05392800  0.59040100  1
  O  O9  1  0.93727100  0.44616400  0.56031600  1
  O  O10  1  0.06159300  0.44810200  0.43775600  1
  O  O11  1  0.43727100  0.94616400  0.56031600  1
  O  O12  1  0.56159300  0.94810200  0.43775600  1
  O  O13  1  0.93793400  0.55173300  0.56200900  1
  O  O14  1  0.06226800  0.55363600  0.44092900  1
  O  O15  1  0.43793400  0.05173300  0.56200900  1
  O  O16  1  0.56226800  0.05363600  0.44092900  1
  O  O17  1  0.50068500  0.40806800  0.94753400  1
  O  O18  1  0.49903700  0.40763600  0.05514300  1
  O  O19  1  0.00068500  0.90806800  0.94753400  1
  O  O20  1  0.99903700  0.90763600  0.05514300  1
  O  O21  1  0.56167900  0.50073300  0.88494600  1
  O  O22  1  0.43786100  0.49762300  0.11518900  1
  O  O23  1  0.06167900  0.00073300  0.88494600  1
  O  O24  1  0.93786100  0.99762300  0.11518900  1
  O  O25  1  0.56216200  0.49771800  0.99041600  1
  O  O26  1  0.43737100  0.50044200  0.00972200  1
  O  O27  1  0.06216200  0.99771800  0.99041600  1
  O  O28  1  0.93737100  0.00044200  0.00972200  1
  O  O29  1  0.50036400  0.59031300  0.94532000  1
  O  O30  1  0.49899500  0.58988000  0.05239200  1
  O  O31  1  0.00036400  0.09031300  0.94532000  1
  O  O32  1  0.99899500  0.08988000  0.05239200  1
  O  O33  1  0.03493500  0.40903200  0.96472400  1
  O  O34  1  0.96301900  0.40838700  0.03699900  1
  O  O35  1  0.53493500  0.90903200  0.96472400  1
  O  O36  1  0.46301900  0.90838700  0.03699900  1
  O  O37  1  0.03528200  0.50192200  0.05681200  1
  O  O38  1  0.96438100  0.49887300  0.94352800  1
  O  O39  1  0.53528200  0.00192200  0.05681200  1
  O  O40  1  0.46438100  0.99887300  0.94352800  1
  O  O41  1  0.96330600  0.49745900  0.12750500  1
  O  O42  1  0.03643600  0.50098200  0.87276500  1
  O  O43  1  0.46330600  0.99745900  0.12750500  1
  O  O44  1  0.53643600  0.00098200  0.87276500  1
  O  O45  1  0.03668700  0.59122000  0.96226200  1
  O  O46  1  0.96477000  0.59057400  0.03662900  1
  O  O47  1  0.53668700  0.09122000  0.96226200  1
  O  O48  1  0.46477000  0.09057400  0.03662900  1
