# generated using pymatgen
data_Zn6H44C83O33
_symmetry_space_group_name_H-M   'P 1'
_cell_length_a   27.84270500
_cell_length_b   27.85108000
_cell_length_c   27.94121600
_cell_angle_alpha   109.31724600
_cell_angle_beta   109.71981200
_cell_angle_gamma   109.20770400
_symmetry_Int_Tables_number   1
_chemical_formula_structural   Zn6H44C83O33
_chemical_formula_sum   'Zn6 H44 C83 O33'
_cell_volume   16713.66238899
_cell_formula_units_Z   1
loop_
 _symmetry_equiv_pos_site_id
 _symmetry_equiv_pos_as_xyz
  1  'x, y, z'
loop_
 _atom_site_type_symbol
 _atom_site_label
 _atom_site_symmetry_multiplicity
 _atom_site_fract_x
 _atom_site_fract_y
 _atom_site_fract_z
 _atom_site_occupancy
  Zn  Zn1  1  0.00223200  0.05003200  0.54561200  1
  Zn  Zn2  1  0.00229600  0.95603700  0.45176500  1
  Zn  Zn3  1  0.45652700  0.95531800  0.00135500  1
  Zn  Zn4  1  0.55009200  0.04945700  0.00106900  1
  Zn  Zn5  1  0.45578500  0.50372600  0.45333100  1
  Zn  Zn6  1  0.55063000  0.50315800  0.54679500  1
  H  H1  1  0.71795600  0.90889000  0.24527800  1
  H  H2  1  0.66710100  0.98107400  0.26211400  1
  H  H3  1  0.72436700  0.92876800  0.15430700  1
  H  H4  1  0.83940600  0.02624200  0.23834500  1
  H  H5  1  0.78145800  0.07771700  0.34680300  1
  H  H6  1  0.81761000  0.73086500  0.46567200  1
  H  H7  1  0.68635200  0.77530800  0.53100700  1
  H  H8  1  0.76265900  0.85135300  0.53084800  1
  H  H9  1  0.24522000  0.97397500  0.65374500  1
  H  H10  1  0.32136100  0.97395300  0.73065400  1
  H  H11  1  0.15505600  0.18912300  0.41332700  1
  H  H12  1  0.35251900  0.31751600  0.58767600  1
  H  H13  1  0.53352800  0.35019800  0.25911400  1
  H  H14  1  0.46936100  0.15440500  0.23978500  1
  H  H15  1  0.59252300  0.81856600  0.84953000  1
  H  H16  1  0.59233100  0.74226600  0.77319800  1
  H  H17  1  0.41664600  0.68782600  0.65354900  1
  H  H18  1  0.20496000  0.93768000  0.81040900  1
  H  H19  1  0.19100900  0.97729900  0.86497400  1
  H  H20  1  0.25663900  0.97094600  0.88727100  1
  H  H21  1  0.12638300  0.93766200  0.73102500  1
  H  H22  1  0.08268900  0.97091900  0.71155500  1
  H  H23  1  0.11014300  0.97726000  0.78328900  1
  H  H24  1  0.26269100  0.21075300  0.38916600  1
  H  H25  1  0.25422600  0.24255800  0.34234100  1
  H  H26  1  0.19001500  0.18549800  0.33192200  1
  H  H27  1  0.24495300  0.29593400  0.61186400  1
  H  H28  1  0.31768600  0.32120500  0.66902200  1
  H  H29  1  0.25353500  0.26424200  0.65878600  1
  H  H30  1  0.44760900  0.24173200  0.12831100  1
  H  H31  1  0.48681600  0.24983700  0.08914100  1
  H  H32  1  0.49336700  0.31399800  0.14230900  1
  H  H33  1  0.51603100  0.25464400  0.40970500  1
  H  H34  1  0.55524000  0.26279400  0.37054200  1
  H  H35  1  0.50943600  0.19050300  0.35646400  1
  H  H36  1  0.39355100  0.70986400  0.76176000  1
  H  H37  1  0.33546200  0.68354100  0.68926600  1
  H  H38  1  0.34566100  0.74071400  0.75311000  1
  H  H39  1  0.87069800  0.13138600  0.32019500  1
  H  H40  1  0.83014200  0.16556100  0.34138300  1
  H  H41  1  0.86559800  0.18662800  0.30277600  1
  H  H42  1  0.79584400  0.68507900  0.55169900  1
  H  H43  1  0.82229100  0.65378300  0.50556900  1
  H  H44  1  0.76512100  0.60677400  0.51234300  1
  C  C1  1  0.92083500  0.92129000  0.49755600  1
  C  C2  1  0.92124900  0.00456200  0.41846800  1
  C  C3  1  0.08370600  0.08477300  0.49983600  1
  C  C4  1  0.08326900  0.00149600  0.57890000  1
  C  C5  1  0.70684100  0.99156400  0.25766300  1
  C  C6  1  0.73324200  0.95180700  0.24686200  1
  C  C7  1  0.87669100  0.00463800  0.37383100  1
  C  C8  1  0.63042700  0.00357900  0.12730600  1
  C  C9  1  0.76803300  0.04433600  0.30260000  1
  C  C10  1  0.79362900  0.00437700  0.29067100  1
  C  C11  1  0.77290000  0.05396800  0.25398300  1
  C  C12  1  0.71272900  0.00262400  0.21001600  1
  C  C13  1  0.79968600  0.01532900  0.24285700  1
  C  C14  1  0.73828000  0.96280600  0.19838000  1
  C  C15  1  0.83919800  0.00457900  0.33628300  1
  C  C16  1  0.66769300  0.00325400  0.16470000  1
  C  C17  1  0.74661900  0.69813200  0.48106900  1
  C  C18  1  0.70945400  0.71052900  0.49884500  1
  C  C19  1  0.71531200  0.76557900  0.51684800  1
  C  C20  1  0.75804900  0.80818200  0.51672600  1
  C  C21  1  0.79475200  0.79564900  0.49834600  1
  C  C22  1  0.78892200  0.74061200  0.48030500  1
  C  C23  1  0.66483000  0.66619200  0.49882100  1
  C  C24  1  0.83905800  0.83990300  0.49799000  1
  C  C25  1  0.87634100  0.87706000  0.49775000  1
  C  C26  1  0.62746600  0.62890000  0.49884000  1
  C  C27  1  0.28964400  0.98436600  0.73846100  1
  C  C28  1  0.29249700  0.99851000  0.79185200  1
  C  C29  1  0.25175200  0.01140400  0.80188600  1
  C  C30  1  0.20888000  0.01140200  0.75858500  1
  C  C31  1  0.20709300  0.99851600  0.70559200  1
  C  C32  1  0.24698100  0.98437400  0.69536900  1
  C  C33  1  0.33807500  0.99988200  0.83694100  1
  C  C34  1  0.16386800  0.99995900  0.66098100  1
  C  C35  1  0.12723700  0.00082900  0.62351300  1
  C  C36  1  0.37599100  0.00063200  0.87475200  1
  C  C37  1  0.24162800  0.25966600  0.45153200  1
  C  C38  1  0.29679900  0.29597900  0.50071500  1
  C  C39  1  0.30909000  0.28933100  0.54944300  1
  C  C40  1  0.26595700  0.24694100  0.54945700  1
  C  C41  1  0.21077500  0.21065100  0.50028500  1
  C  C42  1  0.19849700  0.21727900  0.45154700  1
  C  C43  1  0.34150200  0.34057500  0.50108900  1
  C  C44  1  0.16598200  0.16620900  0.49997500  1
  C  C45  1  0.12841200  0.12900300  0.49986900  1
  C  C46  1  0.37892800  0.37795100  0.50122100  1
  C  C47  1  0.50181400  0.08239400  0.08171500  1
  C  C48  1  0.58584500  0.00367800  0.08271700  1
  C  C49  1  0.50479100  0.92238300  0.92069700  1
  C  C50  1  0.42073900  0.00106100  0.91968400  1
  C  C51  1  0.50194200  0.42240000  0.41785900  1
  C  C52  1  0.58302900  0.58445500  0.49886800  1
  C  C53  1  0.50446200  0.58447000  0.58227400  1
  C  C54  1  0.42338000  0.42242300  0.50124200  1
  C  C55  1  0.51931700  0.30712500  0.25473200  1
  C  C56  1  0.50153000  0.29536900  0.29194600  1
  C  C57  1  0.48401900  0.24064400  0.28697300  1
  C  C58  1  0.48353600  0.19746700  0.24414400  1
  C  C59  1  0.50135500  0.20923300  0.20695200  1
  C  C60  1  0.51882600  0.26394500  0.21189800  1
  C  C61  1  0.50161800  0.34021000  0.33613400  1
  C  C62  1  0.50149100  0.16445800  0.16292200  1
  C  C63  1  0.50161900  0.12695900  0.12587600  1
  C  C64  1  0.50175200  0.37776800  0.37338200  1
  C  C65  1  0.55369300  0.74697400  0.76375700  1
  C  C66  1  0.50441500  0.71040100  0.70882800  1
  C  C67  1  0.45512500  0.71639100  0.69673800  1
  C  C68  1  0.45491800  0.75870700  0.73974700  1
  C  C69  1  0.50452000  0.79574100  0.79452900  1
  C  C70  1  0.55378900  0.78971700  0.80655300  1
  C  C71  1  0.50443500  0.66610500  0.66421900  1
  C  C72  1  0.50478600  0.84042200  0.83906000  1
  C  C73  1  0.50484000  0.87784600  0.87636200  1
  C  C74  1  0.50444700  0.62886800  0.62679100  1
  C  C75  1  0.22567400  0.97584900  0.85445000  1
  C  C76  1  0.12006200  0.97582500  0.74776800  1
  C  C77  1  0.23422000  0.22419100  0.36485400  1
  C  C78  1  0.27345500  0.28251800  0.63617200  1
  C  C79  1  0.48882800  0.27014200  0.13175700  1
  C  C80  1  0.51401100  0.23438000  0.36707800  1
  C  C81  1  0.36840900  0.72261700  0.73312600  1
  C  C82  1  0.84150600  0.14928300  0.30720600  1
  C  C83  1  0.78310700  0.64758300  0.51042200  1
  O  O1  1  0.93932100  0.97641400  0.53235000  1
  O  O2  1  0.94104800  0.90446300  0.46281000  1
  O  O3  1  0.94131200  0.04128900  0.47337600  1
  O  O4  1  0.93965900  0.96766200  0.40215300  1
  O  O5  1  0.06349400  0.10160300  0.53457900  1
  O  O6  1  0.06521500  0.02965400  0.46503500  1
  O  O7  1  0.06484800  0.03838600  0.59522600  1
  O  O8  1  0.06319900  0.96476100  0.52399600  1
  O  O9  1  0.46523500  0.02740300  0.06183400  1
  O  O10  1  0.53852700  0.09884000  0.06330100  1
  O  O11  1  0.53071200  0.96873800  0.06429500  1
  O  O12  1  0.60234000  0.03850100  0.06241900  1
  O  O13  1  0.46807100  0.90593000  0.93910400  1
  O  O14  1  0.54137500  0.97737200  0.94058500  1
  O  O15  1  0.40428100  0.96627500  0.94001700  1
  O  O16  1  0.47586900  0.03603100  0.93808500  1
  O  O17  1  0.46685000  0.44272900  0.40136000  1
  O  O18  1  0.53715000  0.44062200  0.47289100  1
  O  O19  1  0.52782300  0.56457400  0.46226100  1
  O  O20  1  0.59979800  0.56580600  0.53545600  1
  O  O21  1  0.46925200  0.56624800  0.52723800  1
  O  O22  1  0.53956000  0.56414700  0.59876400  1
  O  O23  1  0.40660900  0.44105300  0.46463600  1
  O  O24  1  0.47858700  0.44229000  0.53784000  1
  O  O25  1  0.25616800  0.02786100  0.85579300  1
  O  O26  1  0.17078200  0.02784600  0.76955700  1
  O  O27  1  0.22928300  0.26677900  0.40346700  1
  O  O28  1  0.27829300  0.23984900  0.59753400  1
  O  O29  1  0.53717100  0.27581100  0.17544300  1
  O  O30  1  0.46568700  0.22878300  0.32343700  1
  O  O31  1  0.40629900  0.76516300  0.72757900  1
  O  O32  1  0.79026000  0.10694900  0.25352600  1
  O  O33  1  0.74030700  0.64329300  0.46251000  1
