# generated using pymatgen
data_Co2H13C29N3O8
_symmetry_space_group_name_H-M   'P 1'
_cell_length_a   6.68666400
_cell_length_b   9.29544100
_cell_length_c   12.45155100
_cell_angle_alpha   90.00000000
_cell_angle_beta   80.25356700
_cell_angle_gamma   90.00000000
_symmetry_Int_Tables_number   1
_chemical_formula_structural   Co2H13C29N3O8
_chemical_formula_sum   'Co2 H13 C29 N3 O8'
_cell_volume   762.76178857
_cell_formula_units_Z   1
loop_
 _symmetry_equiv_pos_site_id
 _symmetry_equiv_pos_as_xyz
  1  'x, y, z'
loop_
 _atom_site_type_symbol
 _atom_site_label
 _atom_site_symmetry_multiplicity
 _atom_site_fract_x
 _atom_site_fract_y
 _atom_site_fract_z
 _atom_site_occupancy
  Co  Co1  1  0.98993100  0.14275700  0.00092200  1
  Co  Co2  1  0.00500900  0.85440200  0.99890200  1
  H  H1  1  0.33224900  0.65392900  0.10550300  1
  H  H2  1  0.31557200  0.39095300  0.11709500  1
  H  H3  1  0.38464800  0.74754500  0.95345400  1
  H  H4  1  0.35231400  0.22985500  0.98229600  1
  H  H5  1  0.68232500  0.60650100  0.88165000  1
  H  H6  1  0.66602800  0.34347900  0.89336900  1
  H  H7  1  0.61290200  0.25004200  0.04447600  1
  H  H8  1  0.64615700  0.76667500  0.01535300  1
  H  H9  1  0.95458100  0.92244800  0.65881300  1
  H  H10  1  0.10354300  0.07807600  0.71284200  1
  H  H11  1  0.03517000  0.04748700  0.35008100  1
  H  H12  1  0.84571100  0.92806600  0.48465100  1
  H  H13  1  0.75897700  0.96630800  0.34943100  1
  C  C1  1  0.24002900  0.00372300  0.15024100  1
  C  C2  1  0.74994200  0.99170600  0.85216700  1
  C  C3  1  0.31178100  0.00915400  0.83914000  1
  C  C4  1  0.67992500  0.98925000  0.15825900  1
  C  C5  1  0.36680800  0.63409000  0.94386600  1
  C  C6  1  0.34913000  0.34102300  0.95864300  1
  C  C7  1  0.53845400  0.55386300  0.90885800  1
  C  C8  1  0.52938300  0.40667100  0.91562800  1
  C  C9  1  0.17044800  0.41916000  0.97765700  1
  C  C10  1  0.17978100  0.56809900  0.97267100  1
  C  C11  1  0.81865400  0.42908100  0.02738500  1
  C  C12  1  0.82805700  0.57798400  0.02240700  1
  C  C13  1  0.63125600  0.36322100  0.05513200  1
  C  C14  1  0.64927200  0.65602000  0.04026800  1
  C  C15  1  0.45962100  0.44348300  0.09016000  1
  C  C16  1  0.46886300  0.59064000  0.08334500  1
  C  C17  1  0.66867400  0.98660100  0.74946000  1
  C  C18  1  0.80034800  0.95330900  0.65509000  1
  C  C19  1  0.73702900  0.95651700  0.55540300  1
  C  C20  1  0.46762900  0.01299700  0.74304400  1
  C  C21  1  0.40526100  0.02008000  0.64305900  1
  C  C22  1  0.53888800  0.99301100  0.54865400  1
  C  C23  1  0.46874700  0.99819300  0.45004600  1
  C  C24  1  0.59830500  0.97941800  0.35276600  1
  C  C25  1  0.52809500  0.98617300  0.25541000  1
  C  C26  1  0.20562900  0.05179100  0.63839100  1
  C  C27  1  0.26653500  0.02629700  0.44836600  1
  C  C28  1  0.19448100  0.02823100  0.35029300  1
  C  C29  1  0.32428800  0.00638700  0.25261600  1
  N  N1  1  0.99029100  0.35031800  0.00318600  1
  N  N2  1  0.00824000  0.64684500  0.99732100  1
  N  N3  1  0.13910000  0.05325100  0.54211700  1
  O  O1  1  0.17610500  0.12484400  0.11300600  1
  O  O2  1  0.19092300  0.87925500  0.11089200  1
  O  O3  1  0.80134300  0.11636400  0.89017100  1
  O  O4  1  0.81852600  0.87204200  0.88801900  1
  O  O5  1  0.22308300  0.12838300  0.87612300  1
  O  O6  1  0.24044600  0.88427700  0.87657500  1
  O  O7  1  0.75473000  0.11357500  0.12260900  1
  O  O8  1  0.77004000  0.86984900  0.12262000  1
