# Generated by REPEAT Assigner based on pymatgen
data_DB0-m3_o440_o156_f0_fsc.sym.57
_audit_creation_date              2022-05-24
_audit_creation_method            REPEAT_Assigner
_cell_length_a                    17.476207
_cell_length_b                    8.549378
_cell_length_c                    13.462766
_cell_angle_alpha                 90.000000
_cell_angle_beta                  90.974646
_cell_angle_gamma                 90.000000
_cell_volume                      2011.190329
_symmetry_space_group_name_H-M    P1
_symmetry_Int_Tables_number       1
loop_
    _symmetry_equiv_pos_site_id
    _symmetry_equiv_pos_as_xyz
    1  x,y,z
loop_
    _atom_site_type_symbol
    _atom_site_label
    _atom_site_fract_x
    _atom_site_fract_y
    _atom_site_fract_z
    _atom_type_partial_charge
    C   C1   0.009747  0.127814  0.695891  -0.049438
    C   C2   0.990237  0.848447  0.304059  0.006023
    C   C3   0.990253  0.127814  0.304109  -0.049449
    C   C4   0.009763  0.848447  0.695941  0.006057
    C   C5   0.000891  0.128619  0.797460  -0.299040
    C   C6   0.999096  0.847721  0.202493  -0.280787
    C   C7   0.999110  0.128619  0.202541  -0.299050
    C   C8   0.000904  0.847721  0.797507  -0.280781
    H   H1   0.996362  0.238148  0.837044  0.139987
    H   H2   0.003622  0.738224  0.162873  0.136458
    H   H3   0.003639  0.238148  0.162956  0.139977
    H   H4   0.996378  0.738224  0.837127  0.136456
    C   C9   0.000256  0.988191  0.848674  0.346573
    C   C10  0.999744  0.988191  0.151326  0.346615
    C   C11  0.019047  0.988112  0.647460  -0.108824
    C   C12  0.980953  0.988112  0.352540  -0.108769
    C   C13  0.999713  0.988223  0.955243  -0.181400
    C   C14  0.000287  0.988223  0.044757  -0.181430
    H   H5   0.029746  0.988079  0.569285  0.130485
    H   H6   0.970254  0.988079  0.430715  0.130465
    O   O1   0.069720  0.657236  0.595804  -0.636841
    O   O2   0.930243  0.318906  0.404306  -0.755119
    O   O3   0.930281  0.657236  0.404196  -0.636602
    O   O4   0.069757  0.318906  0.595694  -0.755135
    O   O5   0.938442  0.651525  0.610428  -0.677542
    O   O6   0.061605  0.324816  0.389550  -0.706224
    O   O7   0.061559  0.651525  0.389572  -0.677421
    O   O8   0.938395  0.324816  0.610450  -0.706060
    C   C15  0.006221  0.706331  0.635811  0.725419
    C   C16  0.993788  0.269889  0.364283  0.873560
    C   C17  0.993779  0.706331  0.364189  0.725142
    C   C18  0.006212  0.269889  0.635717  0.873463
    Zn  Zn1  0.914944  0.488170  0.506228  1.039531
    Zn  Zn2  0.085056  0.488170  0.493772  1.039977
    C   C19  0.777280  0.489615  0.422260  -0.031614
    C   C20  0.222720  0.489615  0.577740  -0.031532
    N   N1   0.814723  0.488380  0.510538  0.085072
    N   N2   0.185278  0.488380  0.489462  0.084862
    C   C21  0.776197  0.490636  0.596177  -0.236607
    C   C22  0.223803  0.490636  0.403823  -0.236613
    C   C23  0.658814  0.501521  0.326939  0.226922
    C   C24  0.341186  0.501521  0.673061  0.226876
    C   C25  0.698158  0.496561  0.417417  -0.047083
    C   C26  0.301842  0.496561  0.582584  -0.047099
    C   C27  0.657951  0.493967  0.504560  0.020009
    C   C28  0.342049  0.493967  0.495440  0.020165
    C   C29  0.697171  0.491864  0.594284  0.254372
    C   C30  0.302829  0.491864  0.405717  0.254217
    C   C31  0.657383  0.491584  0.681829  -0.393023
    C   C32  0.342617  0.491584  0.318171  -0.392995
    C   C33  0.540076  0.496031  0.234914  -0.108678
    C   C34  0.459924  0.496031  0.765086  -0.108360
    C   C35  0.579704  0.495342  0.324749  0.004237
    C   C36  0.420296  0.495342  0.675251  0.004107
    C   C37  0.539868  0.492947  0.412377  0.040409
    C   C38  0.460132  0.492947  0.587623  0.040320
    C   C39  0.461274  0.493692  0.232926  -0.286527
    C   C40  0.538726  0.493692  0.767074  -0.286732
    C   C41  0.421566  0.492461  0.320464  0.256826
    C   C42  0.578434  0.492461  0.679536  0.256696
    C   C43  0.578989  0.493338  0.502200  -0.083588
    C   C44  0.421011  0.493338  0.497800  -0.083504
    C   C45  0.539161  0.492493  0.589785  0.027352
    C   C46  0.460839  0.492493  0.410215  0.027073
    H   H7   0.810483  0.481140  0.355784  0.124755
    H   H8   0.189517  0.481140  0.644216  0.124748
    H   H9   0.688057  0.490910  0.752236  0.174084
    H   H10  0.311943  0.490910  0.247764  0.174032
    H   H11  0.569855  0.498136  0.165248  0.121237
    H   H12  0.430145  0.498136  0.834752  0.121157
    H   H13  0.430847  0.493930  0.162342  0.155050
    H   H14  0.569153  0.493930  0.837659  0.155086
    H   H15  0.807314  0.490157  0.666261  0.176835
    H   H16  0.192686  0.490157  0.333739  0.176928
    O   O9   0.696247  0.515778  0.240838  -0.372102
    C   C47  0.743213  0.637937  0.224898  0.787823
    O   O10  0.750039  0.740560  0.287303  -0.536350
    C   C48  0.785902  0.648770  0.130366  -0.485374
    H   H17  0.772090  0.545955  0.083145  0.110651
    H   H18  0.848259  0.651056  0.147008  0.166165
    H   H19  0.769150  0.757369  0.090539  0.146306
    O   O11  0.303754  0.515778  0.759162  -0.372060
    C   C49  0.256787  0.637937  0.775102  0.787724
    O   O12  0.249961  0.740560  0.712697  -0.536323
    C   C50  0.214098  0.648770  0.869634  -0.485129
    H   H20  0.227910  0.545955  0.916855  0.110567
    H   H21  0.151742  0.651056  0.852992  0.166102
    H   H22  0.230850  0.757369  0.909461  0.146251
