# Generated by REPEAT Assigner based on pymatgen
data_DB0-m2_o20_o23_f0_nbo.sym.59
_audit_creation_date              2022-05-24
_audit_creation_method            REPEAT_Assigner
_cell_length_a                    41.845258
_cell_length_b                    28.845205
_cell_length_c                    29.294637
_cell_angle_alpha                 90.000000
_cell_angle_beta                  45.230002
_cell_angle_gamma                 90.000000
_cell_volume                      25103.218078
_symmetry_space_group_name_H-M    P1
_symmetry_Int_Tables_number       1
loop_
    _symmetry_equiv_pos_site_id
    _symmetry_equiv_pos_as_xyz
    1  x,y,z
loop_
    _atom_site_type_symbol
    _atom_site_label
    _atom_site_fract_x
    _atom_site_fract_y
    _atom_site_fract_z
    _atom_type_partial_charge
    O   O1    0.997292  0.562654  0.589585  -0.604662
    O   O2    0.996820  0.482738  0.590161  -0.610144
    O   O3    0.496763  0.019424  0.551841  -0.604905
    O   O4    0.497930  0.939503  0.550934  -0.611938
    C   C1    0.995500  0.522737  0.613227  0.837690
    C   C2    0.496110  0.979507  0.574444  0.842642
    O   O5    0.060583  0.562342  0.460618  -0.554095
    O   O6    0.060096  0.482266  0.461285  -0.540721
    O   O7    0.559143  0.020207  0.423086  -0.528577
    O   O8    0.560389  0.940158  0.422116  -0.554994
    C   C3    0.080863  0.522105  0.437633  0.725558
    C   C4    0.580376  0.980575  0.399445  0.739085
    Cu  Cu1   0.995071  0.568828  0.525357  1.043500
    Cu  Cu2   0.994603  0.476433  0.525938  1.040623
    Cu  Cu3   0.493588  0.025364  0.488585  1.045523
    Cu  Cu4   0.494933  0.933011  0.487550  1.042195
    O   O9    0.996341  0.562433  0.457616  -0.610369
    O   O10   0.996002  0.482664  0.458047  -0.606245
    O   O11   0.494171  0.018816  0.421536  -0.615522
    O   O12   0.495331  0.939106  0.420646  -0.615141
    O   O13   0.929735  0.562886  0.593225  -0.578299
    O   O14   0.929398  0.483054  0.593597  -0.573187
    O   O15   0.428485  0.018107  0.557180  -0.570129
    O   O16   0.429576  0.938288  0.556374  -0.571858
    C   C5    0.994439  0.522542  0.437767  0.750340
    C   C6    0.492843  0.978851  0.401213  0.746665
    C   C7    0.908902  0.523000  0.611949  0.684240
    C   C8    0.408244  0.977955  0.576383  0.671051
    C   C9    0.243604  0.545847  0.276477  0.332628
    C   C10   0.226707  0.460447  0.295005  0.301286
    C   C11   0.718496  0.040235  0.304160  0.290470
    C   C12   0.736040  0.954830  0.281963  0.235429
    C   C13   0.276896  0.453702  0.242247  0.352888
    C   C14   0.291320  0.538310  0.212871  0.272953
    C   C15   0.784891  0.965287  0.241789  0.518247
    C   C16   0.767361  0.050585  0.264222  0.410940
    H   H1    0.210274  0.432848  0.291252  -0.013863
    H   H2    0.231647  0.579384  0.274721  0.006129
    H   H3    0.734260  0.924416  0.260805  0.001284
    H   H4    0.704015  0.069162  0.298903  0.037040
    H   H5    0.283762  0.418201  0.222895  0.010451
    H   H6    0.298529  0.563193  0.177843  -0.006615
    H   H7    0.805235  0.938926  0.203321  -0.038859
    H   H8    0.775509  0.084844  0.241470  0.023642
    C   C17   0.383570  0.475360  0.095414  -0.213141
    C   C18   0.882752  0.027738  0.136086  -0.289035
    C   C19   0.215322  0.507020  0.285112  0.268202
    C   C20   0.714971  0.996251  0.279212  0.188162
    C   C21   0.295969  0.489058  0.189615  -0.145925
    C   C22   0.795701  0.013533  0.212354  -0.281008
    C   C23   0.270680  0.485653  0.169642  0.717638
    C   C24   0.787723  0.014387  0.168844  0.774422
    C   C25   0.223721  0.504659  0.225589  -0.452280
    C   C26   0.738060  0.003264  0.210307  -0.493153
    C   C27   0.343635  0.480358  0.136437  0.003145
    C   C28   0.842976  0.022652  0.172437  0.048296
    C   C29   0.168085  0.516257  0.340369  -0.116144
    C   C30   0.667723  0.987094  0.319070  -0.033904
    C   C31   0.128429  0.520815  0.385566  -0.182685
    C   C32   0.628002  0.982323  0.354535  -0.221890
    H   H9    0.220240  0.539920  0.214427  0.117196
    H   H10   0.198511  0.481473  0.234882  0.160468
    H   H11   0.719562  0.028668  0.208032  0.168200
    H   H12   0.735707  0.970042  0.193826  0.121532
    C   C33   0.996634  0.522828  0.662056  -0.258420
    C   C34   0.497744  0.979583  0.622763  -0.259058
    C   C35   0.997475  0.522996  0.702931  0.150377
    C   C36   0.498886  0.979373  0.663334  0.140540
    C   C37   0.998358  0.523286  0.751196  -0.059454
    C   C38   0.499955  0.978899  0.711416  -0.051540
    C   C39   0.999008  0.523601  0.792271  0.011929
    C   C40   0.500656  0.978397  0.752444  0.007452
    C   C41   0.999591  0.524059  0.840846  0.067971
    C   C42   0.501224  0.977775  0.801049  0.075935
    C   C43   0.999876  0.524530  0.882291  -0.152186
    C   C44   0.501416  0.977295  0.842600  -0.174433
    C   C45   0.861090  0.522351  0.657957  -0.120144
    C   C46   0.360619  0.978188  0.629239  -0.111194
    C   C47   0.821030  0.519011  0.695176  0.041359
    C   C48   0.320756  0.981353  0.674604  0.033935
    C   C49   0.774571  0.512491  0.737148  0.018321
    C   C50   0.274504  0.987879  0.727788  0.017554
    C   C51   0.735100  0.505477  0.772235  -0.024931
    C   C52   0.235143  0.995080  0.772738  -0.015533
    C   C53   0.689091  0.496561  0.812989  0.080639
    C   C54   0.189159  0.004428  0.824137  0.069903
    C   C55   0.649625  0.489362  0.848328  -0.176012
    C   C56   0.149635  0.012135  0.866694  -0.163965
    C   C57   0.995369  0.522577  0.386845  -0.171166
    C   C58   0.493733  0.978665  0.350336  -0.149375
    C   C59   0.996149  0.522803  0.344331  0.071833
    C   C60   0.494676  0.978450  0.307664  0.068545
    C   C61   0.997052  0.523227  0.294261  0.025482
    C   C62   0.495907  0.978120  0.257277  0.017438
    C   C63   0.997763  0.523666  0.251813  -0.054296
    C   C64   0.496947  0.977807  0.214510  -0.062172
    C   C65   0.998487  0.524240  0.201919  0.145697
    C   C66   0.498087  0.977425  0.164214  0.144799
    C   C67   0.998959  0.524774  0.159712  -0.274481
    C   C68   0.498898  0.977119  0.121679  -0.246360
    O   O17   0.508075  0.543662  0.018729  -0.621804
    O   O18   0.515166  0.409228  0.011575  -0.581324
    O   O19   0.018075  0.092289  0.040083  -0.607538
    O   O20   0.010591  0.957892  0.046987  -0.588480
    O   O21   0.514073  0.544443  0.934126  -0.591322
    O   O22   0.521091  0.410017  0.927092  -0.607265
    O   O23   0.017852  0.092757  0.961655  -0.610577
    O   O24   0.010266  0.958355  0.968424  -0.603123
    C   C69   0.510749  0.565645  0.976926  0.810485
    C   C70   0.520015  0.388101  0.967378  0.805720
    C   C71   0.019961  0.114056  0.998980  0.777607
    C   C72   0.010137  0.936544  0.007888  0.872785
    O   O25   0.448838  0.471088  0.073292  -0.580730
    O   O26   0.951087  0.027038  0.107475  -0.552124
    O   O27   0.454541  0.475698  0.988935  -0.561821
    O   O28   0.950889  0.027574  0.028845  -0.594932
    C   C73   0.431136  0.472500  0.050235  0.803136
    C   C74   0.930439  0.030508  0.088856  0.829203
    Cu  Cu5   0.513331  0.476533  0.019702  0.996566
    Cu  Cu6   0.016527  0.024932  0.047452  0.991090
    Cu  Cu7   0.520225  0.477380  0.922005  1.011068
    Cu  Cu8   0.016208  0.025472  0.956738  1.005715
    O   O29   0.578975  0.478414  0.952654  -0.607359
    O   O30   0.081706  0.019280  0.975405  -0.593000
    O   O31   0.584750  0.482937  0.868414  -0.582367
    O   O32   0.081376  0.019709  0.897057  -0.572614
    C   C75   0.602439  0.482349  0.891519  0.767055
    C   C76   0.102349  0.019825  0.915160  0.735071
    O   O33   0.041679  0.459292  0.980384  -0.564986
    O   O34   0.036908  0.593973  0.984979  -0.581296
    O   O35   0.537488  0.908234  0.946632  -0.593493
    O   O36   0.542698  0.042903  0.941477  -0.571493
    O   O37   0.964060  0.456439  0.058267  -0.570569
    O   O38   0.959482  0.591285  0.062641  -0.583374
    O   O39   0.459980  0.910845  0.024003  -0.562983
    O   O40   0.465166  0.045664  0.018739  -0.584774
    C   C77   0.003670  0.436340  0.016529  0.783817
    C   C78   0.997542  0.614191  0.022396  0.699457
    C   C79   0.498101  0.887961  0.984104  0.740607
    C   C80   0.504723  0.065832  0.977433  0.745565
    O   O41   0.038563  0.524752  0.915269  -0.608559
    O   O42   0.539742  0.977505  0.876230  -0.611809
    O   O43   0.961224  0.521985  0.992865  -0.603166
    O   O44   0.462304  0.976370  0.953465  -0.607834
    C   C81   0.999872  0.525227  0.932277  0.735247
    C   C82   0.501188  0.976859  0.892838  0.763682
    Cu  Cu9   0.044384  0.526822  0.975902  1.046904
    Cu  Cu10  0.545176  0.975364  0.937288  1.049209
    Cu  Cu11  0.954766  0.523606  0.065790  1.024947
    Cu  Cu12  0.455588  0.978539  0.026611  1.024198
    O   O45   0.038118  0.524936  0.048663  -0.611294
    O   O46   0.538525  0.977463  0.010394  -0.592076
    O   O47   0.960611  0.522192  0.126402  -0.587604
    O   O48   0.460898  0.976460  0.087789  -0.583916
    C   C83   0.999220  0.525483  0.109462  0.856636
    C   C84   0.499501  0.976847  0.071100  0.814951
    C   C85   0.506622  0.615224  0.981119  -0.206417
    C   C86   0.519012  0.338372  0.967810  -0.207959
    C   C87   0.018947  0.163790  0.000305  -0.161820
    C   C88   0.006135  0.886952  0.011770  -0.276440
    C   C89   0.503451  0.656886  0.983968  0.092283
    C   C90   0.517277  0.296636  0.968960  0.095597
    C   C91   0.017119  0.205527  0.002434  0.053535
    C   C92   0.003047  0.845283  0.015065  0.150349
    C   C93   0.500323  0.705756  0.986361  -0.012214
    C   C94   0.514561  0.247763  0.970916  -0.016414
    C   C95   0.014201  0.254397  0.005706  0.017751
    C   C96   0.999936  0.796410  0.018650  -0.059970
    C   C97   0.011408  0.296081  0.008769  -0.031000
    C   C98   0.997922  0.754672  0.021148  0.043163
    C   C99   0.498348  0.747493  0.987462  0.001867
    C   C100  0.511980  0.206074  0.972783  0.003142
    C   C101  0.008146  0.344930  0.012250  0.109493
    C   C102  0.996525  0.705721  0.023070  0.022790
    C   C103  0.497028  0.796442  0.987540  0.067244
    C   C104  0.508944  0.157227  0.974923  0.067541
    C   C105  0.005723  0.386636  0.014700  -0.220600
    C   C106  0.996336  0.663935  0.023553  -0.118343
    C   C107  0.496895  0.838221  0.986553  -0.167413
    C   C108  0.506677  0.115523  0.976403  -0.170394
    O   O49   0.320261  0.544881  0.219885  -0.402000
    C   C109  0.352815  0.577596  0.188367  0.837251
    O   O50   0.357078  0.605656  0.153247  -0.558958
    C   C110  0.384276  0.578951  0.196203  -0.633300
    H   H13   0.375521  0.550846  0.229270  0.146066
    H   H14   0.381492  0.612974  0.216392  0.186267
    H   H15   0.419227  0.573928  0.148702  0.213463
    O   O51   0.295033  0.460287  0.266720  -0.502352
    C   C111  0.319888  0.428448  0.264262  0.834182
    O   O52   0.328079  0.390711  0.239197  -0.565248
    C   C112  0.337940  0.440027  0.292066  -0.526516
    H   H16   0.327112  0.475534  0.312482  0.144729
    H   H17   0.375227  0.438409  0.253816  0.172265
    H   H18   0.324865  0.414862  0.330573  0.152957
    O   O53   0.774625  0.050446  0.303288  -0.466601
    C   C113  0.790503  0.087012  0.311235  0.796449
    O   O54   0.800860  0.123114  0.281872  -0.566194
    C   C114  0.795569  0.082927  0.356497  -0.489298
    H   H19   0.784442  0.047999  0.378751  0.118034
    H   H20   0.774595  0.109637  0.394592  0.152544
    H   H21   0.831379  0.088034  0.329872  0.164345
    O   O55   0.792855  0.963299  0.279996  -0.489666
    C   C115  0.824235  0.935924  0.268150  0.807814
    O   O56   0.849039  0.911549  0.220301  -0.543286
    C   C116  0.829202  0.936449  0.313669  -0.525509
    H   H22   0.804046  0.960466  0.353883  0.140639
    H   H23   0.863570  0.948318  0.288126  0.175306
    H   H24   0.823636  0.901040  0.332879  0.147972
    O   O57   0.242045  0.545120  0.324968  -0.492506
    C   C117  0.226878  0.580424  0.366298  0.845987
    O   O58   0.212974  0.616174  0.363126  -0.575748
    C   C118  0.227151  0.575365  0.416562  -0.559533
    H   H25   0.240808  0.540804  0.411971  0.131261
    H   H26   0.192312  0.578624  0.464813  0.175647
    H   H27   0.248613  0.602765  0.410179  0.172642
    O   O59   0.212899  0.459284  0.353718  -0.407165
    C   C119  0.183037  0.428494  0.400796  0.783236
    O   O60   0.166506  0.398486  0.393375  -0.555738
    C   C120  0.169834  0.431718  0.462965  -0.568396
    H   H28   0.188172  0.460869  0.460754  0.130899
    H   H29   0.178483  0.398882  0.471881  0.181910
    H   H30   0.133075  0.437930  0.502435  0.186662
    O   O61   0.696126  0.034718  0.367439  -0.465442
    C   C121  0.659782  0.059768  0.416743  0.822406
    O   O62   0.644835  0.090469  0.407508  -0.566136
    C   C122  0.637056  0.048852  0.483565  -0.541028
    H   H31   0.655354  0.020330  0.482451  0.123585
    H   H32   0.601883  0.037940  0.512164  0.170804
    H   H33   0.637079  0.080030  0.505688  0.166088
    O   O63   0.714613  0.946239  0.344279  -0.441562
    C   C123  0.692957  0.906337  0.376107  0.818085
    O   O64   0.690418  0.874910  0.350940  -0.569834
    C   C124  0.671550  0.900960  0.443239  -0.532202
    H   H34   0.677462  0.932737  0.457718  0.119106
    H   H35   0.686491  0.870729  0.446018  0.166463
    H   H36   0.634841  0.895541  0.475877  0.173260
    O   O65   0.292128  0.511858  0.115320  -0.480151
    C   C125  0.277453  0.515990  0.086581  0.849480
    O   O66   0.244083  0.495226  0.107110  -0.563184
    C   C126  0.302863  0.545719  0.028489  -0.536860
    H   H37   0.332176  0.561263  0.016758  0.157326
    H   H38   0.280573  0.573663  0.038071  0.145890
    H   H39   0.314805  0.524335  0.987439  0.176325
    O   O67   0.266614  0.440130  0.159682  -0.528852
    C   C127  0.299184  0.414036  0.107294  0.864530
    O   O68   0.334966  0.430948  0.059553  -0.538032
    C   C128  0.290490  0.364021  0.107396  -0.568240
    H   H40   0.256361  0.354950  0.154200  0.148426
    H   H41   0.315915  0.342903  0.100144  0.169870
    H   H42   0.292669  0.357053  0.068040  0.178570
    O   O69   0.803156  0.056152  0.135662  -0.491342
    C   C129  0.781702  0.094426  0.141365  0.851299
    O   O70   0.743884  0.104763  0.191823  -0.568023
    C   C130  0.807026  0.127270  0.086324  -0.578780
    H   H43   0.841263  0.113376  0.045485  0.152457
    H   H44   0.809608  0.161349  0.101044  0.180373
    H   H45   0.789064  0.131484  0.071467  0.186670
    O   O71   0.813342  0.979691  0.124059  -0.492538
    C   C131  0.818635  0.974194  0.073255  0.869260
    O   O72   0.798867  0.999147  0.066163  -0.567194
    C   C132  0.849027  0.937170  0.025383  -0.650346
    H   H46   0.863793  0.918182  0.039850  0.177287
    H   H47   0.876365  0.953073  0.977394  0.212842
    H   H48   0.829560  0.912784  0.023365  0.182483
