# generated using pymatgen
data_Zn2H22C33S(NO4)2
_symmetry_space_group_name_H-M   'P 1'
_cell_length_a   8.51876000
_cell_length_b   12.99047400
_cell_length_c   14.19622600
_cell_angle_alpha   90.63296400
_cell_angle_beta   93.35508100
_cell_angle_gamma   86.46184600
_symmetry_Int_Tables_number   1
_chemical_formula_structural   Zn2H22C33S(NO4)2
_chemical_formula_sum   'Zn2 H22 C33 S1 N2 O8'
_cell_volume   1565.26758838
_cell_formula_units_Z   1
loop_
 _symmetry_equiv_pos_site_id
 _symmetry_equiv_pos_as_xyz
  1  'x, y, z'
loop_
 _atom_site_type_symbol
 _atom_site_label
 _atom_site_symmetry_multiplicity
 _atom_site_fract_x
 _atom_site_fract_y
 _atom_site_fract_z
 _atom_site_occupancy
  Zn  Zn1  1  0.48898900  0.50940400  0.89422200  1
  Zn  Zn2  1  0.50676900  0.48613800  0.10361700  1
  H  H1  1  0.01345600  0.56789900  0.04099200  1
  H  H2  1  0.70429100  0.82863100  0.99715100  1
  H  H3  1  0.68168600  0.98239000  0.02640400  1
  H  H4  1  0.64939100  0.16251900  0.00882200  1
  H  H5  1  0.98230800  0.42764000  0.95684900  1
  H  H6  1  0.29146900  0.16690700  0.00068700  1
  H  H7  1  0.31407400  0.01314900  0.97142400  1
  H  H8  1  0.34637100  0.83301900  0.98901200  1
  H  H9  1  0.72576500  0.40266800  0.44331900  1
  H  H10  1  0.70288400  0.40690600  0.60108000  1
  H  H11  1  0.69871600  0.58687600  0.57406200  1
  H  H12  1  0.69596500  0.58915000  0.42115000  1
  H  H13  1  0.50715700  0.65376200  0.40355600  1
  H  H14  1  0.26997300  0.43561400  0.57130200  1
  H  H15  1  0.25314600  0.57300300  0.55934500  1
  H  H16  1  0.28717900  0.41306700  0.41555400  1
  H  H17  1  0.52214600  0.34147300  0.58857000  1
  H  H18  1  0.55609000  0.32556500  0.43268300  1
  H  H19  1  0.26278500  0.55049900  0.39899400  1
  H  H20  1  0.27242600  0.82491200  0.54356900  1
  H  H21  1  0.29136400  0.70936600  0.47529800  1
  H  H22  1  0.41768600  0.81426400  0.45654700  1
  C  C1  1  0.12454600  0.70554800  0.01663300  1
  C  C2  1  0.99676400  0.64980000  0.03040500  1
  C  C3  1  0.84774800  0.69538400  0.02102500  1
  C  C4  1  0.82464100  0.79967500  0.00837000  1
  C  C5  1  0.95271800  0.86085600  0.00718200  1
  C  C6  1  0.10293400  0.81198800  0.00590000  1
  C  C7  1  0.93287500  0.96887200  0.00375400  1
  C  C8  1  0.06288500  0.02666700  0.99407700  1
  C  C9  1  0.20986000  0.97502000  0.98563600  1
  C  C10  1  0.22965700  0.86963100  0.99348700  1
  C  C11  1  0.78590100  0.02051900  0.01219400  1
  C  C12  1  0.76610500  0.12590800  0.00434600  1
  C  C13  1  0.89282700  0.18355100  0.99193500  1
  C  C14  1  0.04304200  0.13468300  0.99065200  1
  C  C15  1  0.87121500  0.28999300  0.98120500  1
  C  C16  1  0.99899800  0.34574000  0.96743400  1
  C  C17  1  0.14801400  0.30015500  0.97681600  1
  C  C18  1  0.17112000  0.19586400  0.98946800  1
  C  C19  1  0.28080700  0.36505500  0.98409500  1
  C  C20  1  0.27550000  0.64532400  0.00988300  1
  C  C21  1  0.71495600  0.63048400  0.01374800  1
  C  C22  1  0.72026000  0.35021800  0.98795700  1
  C  C23  1  0.58413000  0.40813900  0.56449600  1
  C  C24  1  0.57312400  0.59744500  0.54890600  1
  C  C25  1  0.57232100  0.58978900  0.44174000  1
  C  C26  1  0.49078900  0.50768500  0.58730300  1
  C  C27  1  0.60003900  0.39985300  0.45886400  1
  C  C28  1  0.50473500  0.48864900  0.41048100  1
  C  C29  1  0.33454800  0.48806600  0.43667100  1
  C  C30  1  0.32579000  0.50246200  0.54242900  1
  C  C31  1  0.51137400  0.47809200  0.30803400  1
  C  C32  1  0.48429300  0.51775600  0.68979100  1
  C  C33  1  0.35830500  0.77090100  0.50964200  1
  S  S1  1  0.50267500  0.72133400  0.60039500  1
  N  N1  1  0.51460400  0.47304700  0.22673700  1
  N  N2  1  0.48115600  0.52250800  0.77110400  1
  O  O1  1  0.33741200  0.38871400  0.06883000  1
  O  O2  1  0.32791500  0.40393700  0.90666200  1
  O  O3  1  0.31908800  0.61738300  0.92541000  1
  O  O4  1  0.33836600  0.60161300  0.08734900  1
  O  O5  1  0.65834700  0.60682400  0.92901500  1
  O  O6  1  0.66785000  0.59160100  0.09118000  1
  O  O7  1  0.67667700  0.37816100  0.07243300  1
  O  O8  1  0.65739400  0.39392900  0.91048800  1
