# Generated by REPEAT Assigner based on pymatgen
data_DB0-m2_o12_o27_f0_pcu.sym.60_sqe
_audit_creation_date              2022-05-24
_audit_creation_method            REPEAT_Assigner
_cell_length_a                    19.259134
_cell_length_b                    11.225948
_cell_length_c                    9.594397
_cell_angle_alpha                 112.211068
_cell_angle_beta                  99.665873
_cell_angle_gamma                 90.009553
_cell_volume                      1888.537416
_symmetry_space_group_name_H-M    P1
_symmetry_Int_Tables_number       1
loop_
    _symmetry_equiv_pos_site_id
    _symmetry_equiv_pos_as_xyz
    1  x,y,z
loop_
    _atom_site_type_symbol
    _atom_site_label
    _atom_site_fract_x
    _atom_site_fract_y
    _atom_site_fract_z
    _atom_type_partial_charge
    O   O1   0.504983  0.341378  0.593055  -0.623277
    O   O2   0.495397  0.657888  0.406574  -0.624250
    O   O3   0.490601  0.292950  0.334309  -0.606312
    O   O4   0.509734  0.706317  0.665325  -0.606511
    C   C1   0.497041  0.258151  0.450760  0.800971
    C   C2   0.503347  0.741111  0.548874  0.802307
    O   O5   0.408586  0.518393  0.625367  -0.551190
    O   O6   0.591763  0.480843  0.374256  -0.551675
    O   O7   0.389478  0.478220  0.368193  -0.494475
    O   O8   0.610872  0.521105  0.631462  -0.497537
    C   C3   0.366236  0.497774  0.495214  0.571048
    C   C4   0.634111  0.501589  0.504449  0.574195
    Cu  Cu1  0.511482  0.528316  0.650834  0.848813
    Cu  Cu2  0.488867  0.470952  0.348806  0.846544
    C   C5   0.263224  0.513467  0.621779  -0.181526
    C   C6   0.737149  0.486162  0.378004  -0.182223
    H   H1   0.298139  0.529612  0.728849  0.113029
    H   H2   0.702254  0.469919  0.270884  0.113482
    C   C7   0.191516  0.512026  0.617833  0.090653
    C   C8   0.808865  0.487744  0.382047  0.091413
    H   H3   0.172374  0.528608  0.722790  0.059394
    H   H4   0.828035  0.471161  0.277125  0.059100
    C   C9   0.144786  0.493098  0.483816  -0.507285
    C   C10  0.855573  0.506780  0.516124  -0.507284
    C   C11  0.170738  0.471409  0.349426  0.307848
    C   C12  0.829589  0.528494  0.650477  0.308123
    C   C13  0.243519  0.474640  0.355598  -0.189358
    C   C14  0.756812  0.525118  0.644221  -0.189571
    H   H5   0.265816  0.461674  0.255691  0.069873
    H   H6   0.734514  0.538090  0.744131  0.070599
    C   C15  0.289633  0.495656  0.491039  0.045132
    C   C16  0.710717  0.503909  0.508702  0.044110
    N   N1   0.023298  0.534724  0.396275  -0.263174
    N   N2   0.977070  0.465220  0.603755  -0.263822
    N   N3   0.955573  0.538774  0.405640  -0.336839
    N   N4   0.044796  0.461167  0.594383  -0.335872
    C   C17  0.931567  0.504958  0.510294  0.819911
    C   C18  0.068801  0.494977  0.489724  0.819289
    H   H7   0.492064  0.866457  0.357019  0.118731
    H   H8   0.508487  0.132776  0.642623  0.118522
    C   C19  0.495029  0.119120  0.415392  -0.413500
    C   C20  0.505436  0.880149  0.584251  -0.414021
    C   C21  0.501474  0.069994  0.522636  0.014486
    C   C22  0.499058  0.929258  0.477002  0.014195
    H   H9   0.512301  0.945023  0.703423  0.196524
    H   H10  0.488149  0.054246  0.296223  0.196378
    H   H11  0.454511  0.430869  0.832397  0.084338
    H   H12  0.545922  0.568231  0.167166  0.083922
    N   N5   0.471460  0.426730  0.122414  -0.185613
    N   N6   0.528880  0.572520  0.877221  -0.186687
    C   C23  0.506015  0.501660  0.079899  0.071010
    C   C24  0.494363  0.497516  0.919699  0.070980
    C   C25  0.120137  0.440626  0.200164  -0.336318
    C   C26  0.154019  0.385108  0.058742  0.337385
    C   C27  0.097125  0.338591  0.916268  -0.312984
    H   H13  0.063109  0.258752  0.916003  0.067700
    H   H14  0.064515  0.419274  0.913190  0.091385
    H   H15  0.122305  0.303153  0.813486  0.026589
    H   H16  0.188801  0.460756  0.052008  -0.013786
    H   H17  0.184347  0.301996  0.062281  -0.033211
    H   H18  0.079040  0.367115  0.189906  0.101805
    H   H19  0.095357  0.529533  0.199255  0.059227
    C   C28  0.880155  0.559410  0.799787  -0.337064
    C   C29  0.846254  0.615039  0.941180  0.337323
    C   C30  0.903168  0.661854  0.083610  -0.311355
    H   H20  0.935824  0.581275  0.086882  0.090944
    H   H21  0.937146  0.741613  0.083569  0.067214
    H   H22  0.878017  0.697474  0.186426  0.026241
    H   H23  0.815841  0.698022  0.937474  -0.033283
    H   H24  0.811541  0.539396  0.948118  -0.013929
    H   H25  0.904931  0.470532  0.800799  0.059456
    H   H26  0.921251  0.632887  0.809970  0.101934
    C   C31  0.582456  0.664988  0.992590  0.001711
    C   C32  0.609968  0.766300  0.942142  0.133405
    C   C33  0.668138  0.852457  0.067072  -0.289303
    H   H27  0.647313  0.900567  0.174325  0.048706
    H   H28  0.712272  0.794244  0.087564  0.046852
    H   H29  0.687858  0.926978  0.030775  0.066740
    H   H30  0.632243  0.722867  0.837095  0.019095
    H   H31  0.566866  0.827947  0.926733  0.013783
    H   H32  0.558678  0.722008  0.092876  0.061800
    H   H33  0.626990  0.613133  0.026593  0.053488
    C   C34  0.417718  0.334505  0.007213  -0.000114
    C   C35  0.390295  0.233077  0.057596  0.132701
    C   C36  0.331888  0.147267  0.933010  -0.289476
    H   H34  0.287794  0.205754  0.913080  0.047015
    H   H35  0.352453  0.099131  0.825426  0.048756
    H   H36  0.312184  0.072768  0.969356  0.066760
    H   H37  0.433391  0.171235  0.072461  0.014318
    H   H38  0.368252  0.276383  0.162961  0.019629
    H   H39  0.373178  0.386558  0.973640  0.053842
    H   H40  0.441311  0.277467  0.906662  0.062102
