# generated using pymatgen
data_FeH16(C3O)8
_symmetry_space_group_name_H-M   'P 1'
_cell_length_a   15.88781300
_cell_length_b   16.12888400
_cell_length_c   13.69625200
_cell_angle_alpha   88.51511900
_cell_angle_beta   97.55286800
_cell_angle_gamma   104.34119100
_symmetry_Int_Tables_number   1
_chemical_formula_structural   FeH16(C3O)8
_chemical_formula_sum   'Fe2 H32 C48 O16'
_cell_volume   3370.74988148
_cell_formula_units_Z   2
loop_
 _symmetry_equiv_pos_site_id
 _symmetry_equiv_pos_as_xyz
  1  'x, y, z'
loop_
 _atom_site_type_symbol
 _atom_site_label
 _atom_site_symmetry_multiplicity
 _atom_site_fract_x
 _atom_site_fract_y
 _atom_site_fract_z
 _atom_site_occupancy
  Fe  Fe1  1  0.50508500  0.98222300  0.78821700  1
  Fe  Fe2  1  0.50508000  0.96781400  0.22505600  1
  H  H1  1  0.23781300  0.98678200  0.78609800  1
  H  H2  1  0.09271100  0.98825500  0.82530900  1
  H  H3  1  0.18798400  0.00467000  0.13043100  1
  H  H4  1  0.83546200  0.99067700  0.88987100  1
  H  H5  1  0.77322500  0.99702100  0.23056800  1
  H  H6  1  0.54993200  0.89879100  0.51740200  1
  H  H7  1  0.53494100  0.67499000  0.35740200  1
  H  H8  1  0.42270100  0.53519500  0.37959800  1
  H  H9  1  0.42602400  0.38482700  0.37400400  1
  H  H10  1  0.62437400  0.42544800  0.62256500  1
  H  H11  1  0.62411600  0.57639600  0.62486900  1
  H  H12  1  0.52853100  0.29161300  0.34781600  1
  H  H13  1  0.50149200  0.06113600  0.51504800  1
  H  H14  1  0.50870800  0.29279000  0.65646000  1
  H  H15  1  0.00082700  0.07141600  0.20418300  1
  H  H16  1  0.97946000  0.95643400  0.21288700  1
  H  H17  1  0.88115100  0.95644100  0.33812700  1
  H  H18  1  0.90045100  0.07246700  0.32841300  1
  H  H19  1  0.05871500  0.08738400  0.37901300  1
  H  H20  1  0.04019300  0.97224500  0.38736100  1
  H  H21  1  0.95994000  0.08544600  0.50603900  1
  H  H22  1  0.04973900  0.03843200  0.55087400  1
  H  H23  1  0.94179800  0.97020900  0.51456900  1
  H  H24  1  0.46673400  0.67718800  0.74408300  1
  H  H25  1  0.50721100  0.59287700  0.70623900  1
  H  H26  1  0.37131900  0.54227800  0.59035800  1
  H  H27  1  0.33818500  0.63894700  0.61159000  1
  H  H28  1  0.32834500  0.60009600  0.78580500  1
  H  H29  1  0.36893600  0.50662400  0.76929600  1
  H  H30  1  0.19996200  0.54275000  0.66020800  1
  H  H31  1  0.20688300  0.47037600  0.76233800  1
  H  H32  1  0.23990600  0.44832900  0.64632800  1
  C  C1  1  0.22761300  0.98976000  0.86228000  1
  C  C2  1  0.14611000  0.99150400  0.88394200  1
  C  C3  1  0.13286600  0.99862600  0.98009100  1
  C  C4  1  0.20076700  0.00186900  0.05518100  1
  C  C5  1  0.28317000  0.99909800  0.03438800  1
  C  C6  1  0.29678200  0.99536900  0.93630400  1
  C  C7  1  0.04727900  0.00023500  0.00142000  1
  C  C8  1  0.97491100  0.00062400  0.01858000  1
  C  C9  1  0.82087300  0.99223300  0.96455000  1
  C  C10  1  0.73587600  0.98551100  0.98330900  1
  C  C11  1  0.72040100  0.98614900  0.08116900  1
  C  C12  1  0.78918200  0.99720700  0.15647800  1
  C  C13  1  0.87395700  0.00338800  0.13728800  1
  C  C14  1  0.88867200  0.99942300  0.04055800  1
  C  C15  1  0.48766200  0.12203600  0.68133200  1
  C  C16  1  0.38285800  0.00090400  0.90607800  1
  C  C17  1  0.66666667  0.98293100  0.89885800  1
  C  C18  1  0.52006500  0.83445700  0.68791200  1
  C  C19  1  0.51636900  0.11996100  0.33385700  1
  C  C20  1  0.35212300  0.99579700  0.11672600  1
  C  C21  1  0.63280300  0.97032000  0.11077300  1
  C  C22  1  0.55042600  0.84643200  0.34329200  1
  C  C23  1  0.53765700  0.79112400  0.42887000  1
  C  C24  1  0.52922100  0.70433800  0.42548000  1
  C  C25  1  0.51804200  0.65593800  0.51017600  1
  C  C26  1  0.50763300  0.69419700  0.59745900  1
  C  C27  1  0.52318400  0.78357500  0.60119400  1
  C  C28  1  0.53872700  0.82996400  0.51669600  1
  C  C29  1  0.46782900  0.51167100  0.43258900  1
  C  C30  1  0.47002600  0.42667100  0.42913400  1
  C  C31  1  0.52449300  0.39447500  0.49891000  1
  C  C32  1  0.57966100  0.44900100  0.56905600  1
  C  C33  1  0.57899900  0.53422100  0.57088300  1
  C  C34  1  0.52033300  0.56534700  0.50559800  1
  C  C35  1  0.52252400  0.25817600  0.41693500  1
  C  C36  1  0.51642400  0.17101800  0.42101200  1
  C  C37  1  0.50813700  0.12932500  0.50967800  1
  C  C38  1  0.50635800  0.17283000  0.59369000  1
  C  C39  1  0.51326400  0.25961100  0.59053500  1
  C  C40  1  0.52114800  0.30268700  0.50198600  1
  C  C41  1  0.95072300  0.01211200  0.21707900  1
  C  C42  1  0.92828000  0.01660700  0.32113900  1
  C  C43  1  0.01087000  0.02714900  0.39415600  1
  C  C44  1  0.98897300  0.03051300  0.49817700  1
  C  C45  1  0.46868600  0.63915000  0.67938300  1
  C  C46  1  0.37416600  0.59234400  0.64524600  1
  C  C47  1  0.33088900  0.55039300  0.73256500  1
  C  C48  1  0.23835000  0.49966600  0.69788500  1
  O  O1  1  0.55204400  0.09655300  0.73341700  1
  O  O2  1  0.44988500  0.06408800  0.93764300  1
  O  O3  1  0.40732500  0.07579500  0.68264900  1
  O  O4  1  0.38891000  0.95023500  0.83543800  1
  O  O5  1  0.58412000  0.97095700  0.91213700  1
  O  O6  1  0.68831600  0.99690400  0.80958000  1
  O  O7  1  0.49781300  0.90720600  0.67128300  1
  O  O8  1  0.55260400  0.81661200  0.77679600  1
  O  O9  1  0.49882800  0.03631200  0.34301500  1
  O  O10  1  0.53346800  0.15619600  0.24941600  1
  O  O11  1  0.41894100  0.96481600  0.10321200  1
  O  O12  1  0.34340500  0.01791300  0.20560200  1
  O  O13  1  0.61879300  0.91220800  0.35103400  1
  O  O14  1  0.61675500  0.02200000  0.17446600  1
  O  O15  1  0.48182900  0.85084800  0.28012800  1
  O  O16  1  0.57730100  0.89581800  0.09108900  1
