# generated using pymatgen
data_ZnH13C16SNO4
_symmetry_space_group_name_H-M   'P 1'
_cell_length_a   14.25474000
_cell_length_b   8.57724000
_cell_length_c   10.77877400
_cell_angle_alpha   90.00000000
_cell_angle_beta   97.68411100
_cell_angle_gamma   90.00000000
_symmetry_Int_Tables_number   1
_chemical_formula_structural   ZnH13C16SNO4
_chemical_formula_sum   'Zn2 H26 C32 S2 N2 O8'
_cell_volume   1306.04694392
_cell_formula_units_Z   2
loop_
 _symmetry_equiv_pos_site_id
 _symmetry_equiv_pos_as_xyz
  1  'x, y, z'
loop_
 _atom_site_type_symbol
 _atom_site_label
 _atom_site_symmetry_multiplicity
 _atom_site_fract_x
 _atom_site_fract_y
 _atom_site_fract_z
 _atom_site_occupancy
  Zn  Zn1  1  0.10442500  0.50964000  0.49779400  1
  Zn  Zn2  1  0.89557500  0.50964000  0.50220600  1
  H  H1  1  0.05362000  0.38038700  0.90547500  1
  H  H2  1  0.94638000  0.38038700  0.09452500  1
  H  H3  1  0.00748600  0.62510200  0.88658000  1
  H  H4  1  0.99251400  0.62510200  0.11342000  1
  H  H5  1  0.09844000  0.72073100  0.07692400  1
  H  H6  1  0.90156000  0.72073100  0.92307600  1
  H  H7  1  0.05256400  0.00847400  0.59201000  1
  H  H8  1  0.94743600  0.00847400  0.40799000  1
  H  H9  1  0.59921100  0.69312200  0.64118100  1
  H  H10  1  0.40079000  0.69312200  0.35881900  1
  H  H11  1  0.44033400  0.72930600  0.59065900  1
  H  H12  1  0.55966600  0.72930600  0.40934100  1
  H  H13  1  0.41576400  0.49911200  0.29838200  1
  H  H14  1  0.58423600  0.49911200  0.70161900  1
  H  H15  1  0.57103600  0.56648600  0.30561400  1
  H  H16  1  0.42896500  0.56648600  0.69438700  1
  H  H17  1  0.44133000  0.29884100  0.60448100  1
  H  H18  1  0.55867100  0.29884100  0.39552000  1
  H  H19  1  0.40755300  0.26777400  0.43843500  1
  H  H20  1  0.59244700  0.26777500  0.56156600  1
  H  H21  1  0.26020900  0.23548000  0.14259600  1
  H  H22  1  0.16507100  0.14849500  0.04046200  1
  H  H23  1  0.17042300  0.12921300  0.20985900  1
  H  H24  1  0.73979100  0.23548000  0.85740400  1
  H  H25  1  0.83493000  0.14849500  0.95953900  1
  H  H26  1  0.82957700  0.12921300  0.79014100  1
  C  C1  1  0.04102000  0.00908000  0.68892500  1
  C  C2  1  0.95898100  0.00908000  0.31107500  1
  C  C3  1  0.02743400  0.14885700  0.74672700  1
  C  C4  1  0.97256600  0.14885700  0.25327400  1
  C  C5  1  0.01113500  0.15062200  0.87019900  1
  C  C6  1  0.98886500  0.15062200  0.12980100  1
  C  C7  1  0.99627800  0.30348600  0.92913700  1
  C  C8  1  0.00372200  0.30348600  0.07086300  1
  C  C9  1  0.02707800  0.87006500  0.74761100  1
  C  C10  1  0.97292300  0.87006500  0.25238900  1
  C  C11  1  0.00749100  0.87207800  0.87024100  1
  C  C12  1  0.99250900  0.87207800  0.12975900  1
  C  C13  1  0.00652900  0.01192400  0.93399400  1
  C  C14  1  0.99347200  0.01192400  0.06600600  1
  C  C15  1  0.97985600  0.72731200  0.93156500  1
  C  C16  1  0.02014500  0.72731200  0.06843600  1
  C  C17  1  0.01905100  0.29062500  0.67003600  1
  C  C18  1  0.98095000  0.29062500  0.32996400  1
  C  C19  1  0.98109000  0.72855600  0.32972600  1
  C  C20  1  0.01891000  0.72855600  0.67027500  1
  C  C21  1  0.45662900  0.60409800  0.60775100  1
  C  C22  1  0.54337100  0.60409800  0.39224900  1
  C  C23  1  0.43725000  0.57965500  0.37757200  1
  C  C24  1  0.56275100  0.57965500  0.62242800  1
  C  C25  1  0.41121800  0.50910600  0.49719000  1
  C  C26  1  0.58878300  0.50910600  0.50281000  1
  C  C27  1  0.55165400  0.34355200  0.49037600  1
  C  C28  1  0.44834600  0.34355200  0.50962500  1
  C  C29  1  0.69168500  0.50916200  0.50560700  1
  C  C30  1  0.30831500  0.50916200  0.49439300  1
  C  C31  1  0.18365800  0.20704200  0.13187900  1
  C  C32  1  0.81634200  0.20704200  0.86812200  1
  S  S1  1  0.11716300  0.38722700  0.13649500  1
  S  S2  1  0.88283700  0.38722700  0.86350600  1
  N  N1  1  0.77296900  0.50925800  0.50680100  1
  N  N2  1  0.22703100  0.50925800  0.49319900  1
  O  O1  1  0.93354900  0.34107600  0.62911600  1
  O  O2  1  0.06645100  0.34107600  0.37088500  1
  O  O3  1  0.09543400  0.34643100  0.63028500  1
  O  O4  1  0.90456600  0.34643100  0.36971500  1
  O  O5  1  0.06646400  0.67726000  0.37000100  1
  O  O6  1  0.93353600  0.67726000  0.62999900  1
  O  O7  1  0.90466800  0.67349300  0.37018100  1
  O  O8  1  0.09533300  0.67349300  0.62981900  1
