# generated using pymatgen
data_ZnH12C34(NO4)7
_symmetry_space_group_name_H-M   'P 1'
_cell_length_a   27.58084800
_cell_length_b   27.07415100
_cell_length_c   18.24972800
_cell_angle_alpha   90.00000000
_cell_angle_beta   90.00000000
_cell_angle_gamma   90.00000000
_symmetry_Int_Tables_number   1
_chemical_formula_structural   ZnH12C34(NO4)7
_chemical_formula_sum   'Zn4 H48 C136 N28 O112'
_cell_volume   13627.58368312
_cell_formula_units_Z   4
loop_
 _symmetry_equiv_pos_site_id
 _symmetry_equiv_pos_as_xyz
  1  'x, y, z'
loop_
 _atom_site_type_symbol
 _atom_site_label
 _atom_site_symmetry_multiplicity
 _atom_site_fract_x
 _atom_site_fract_y
 _atom_site_fract_z
 _atom_site_occupancy
  Zn  Zn1  1  0.99999600  0.50000000  0.58337200  1
  Zn  Zn2  1  0.00000200  0.50000000  0.41669800  1
  Zn  Zn3  1  0.50000200  0.00000300  0.58330500  1
  Zn  Zn4  1  0.49999600  0.00000400  0.41663100  1
  H  H1  1  0.92390600  0.35814000  0.30773300  1
  H  H2  1  0.00451800  0.65929400  0.86076200  1
  H  H3  1  0.99587100  0.65932200  0.13932100  1
  H  H4  1  0.99546900  0.34071000  0.86076700  1
  H  H5  1  0.50451800  0.84070900  0.13924400  1
  H  H6  1  0.50413600  0.15932000  0.86069200  1
  H  H7  1  0.49546600  0.15929400  0.13923600  1
  H  H8  1  0.49587800  0.84067900  0.86068200  1
  H  H9  1  0.91435300  0.39215600  0.71659300  1
  H  H10  1  0.15172800  0.52113400  0.29596600  1
  H  H11  1  0.08564000  0.60782200  0.71660700  1
  H  H12  1  0.92417500  0.64201300  0.69231000  1
  H  H13  1  0.84828100  0.47887500  0.29595400  1
  H  H14  1  0.08534100  0.39176600  0.28350800  1
  H  H15  1  0.84834400  0.52137200  0.70406500  1
  H  H16  1  0.91466000  0.60820500  0.28349100  1
  H  H17  1  0.15164200  0.47864000  0.70407600  1
  H  H18  1  0.41466700  0.89178100  0.71650800  1
  H  H19  1  0.65164000  0.02136600  0.29592300  1
  H  H20  1  0.58534300  0.10823200  0.71649600  1
  H  H21  1  0.34834200  0.97863700  0.29594400  1
  H  H22  1  0.58563100  0.89216700  0.28339500  1
  H  H23  1  0.07609900  0.64186200  0.30773900  1
  H  H24  1  0.34828200  0.02113000  0.70405300  1
  H  H25  1  0.41435400  0.10785000  0.28341200  1
  H  H26  1  0.65173100  0.97887100  0.70403000  1
  H  H27  1  0.86047700  0.22369100  0.63965700  1
  H  H28  1  0.26572000  0.59413600  0.31702100  1
  H  H29  1  0.13952100  0.77630000  0.63970000  1
  H  H30  1  0.73428500  0.40587600  0.31699400  1
  H  H31  1  0.13897100  0.22335300  0.36062200  1
  H  H32  1  0.73439800  0.59443800  0.68290400  1
  H  H33  1  0.86102300  0.77663400  0.36056900  1
  H  H34  1  0.07581500  0.35799000  0.69231500  1
  H  H35  1  0.26559300  0.40557900  0.68293000  1
  H  H36  1  0.36103200  0.72336100  0.63941200  1
  H  H37  1  0.76559400  0.09442400  0.31707400  1
  H  H38  1  0.63897500  0.27664800  0.63938500  1
  H  H39  1  0.23439100  0.90557900  0.31711400  1
  H  H40  1  0.63951300  0.72369600  0.36031600  1
  H  H41  1  0.23428400  0.09412500  0.68300800  1
  H  H42  1  0.36047900  0.27631400  0.36035100  1
  H  H43  1  0.76572500  0.90587500  0.68296600  1
  H  H44  1  0.42417000  0.85799400  0.30769200  1
  H  H45  1  0.42390900  0.14186400  0.69227100  1
  H  H46  1  0.57581300  0.14201500  0.30768700  1
  H  H47  1  0.57610300  0.85814200  0.69226100  1
  H  H48  1  0.00413700  0.34068100  0.13931500  1
  C  C1  1  0.06872400  0.43252900  0.50002000  1
  C  C2  1  0.99017500  0.54245200  0.80841100  1
  C  C3  1  0.01539300  0.41047800  0.84798600  1
  C  C4  1  0.48459500  0.91047800  0.15202000  1
  C  C5  1  0.48442000  0.08948800  0.84794100  1
  C  C6  1  0.51539100  0.08952600  0.15201600  1
  C  C7  1  0.51559200  0.91051200  0.84793500  1
  C  C8  1  0.90682200  0.36067200  0.61911400  1
  C  C9  1  0.14646400  0.55250500  0.39367000  1
  C  C10  1  0.09317600  0.63931800  0.61913600  1
  C  C11  1  0.85353900  0.44750000  0.39365600  1
  C  C12  1  0.09284000  0.36039100  0.38107200  1
  C  C13  1  0.00990000  0.54243400  0.19165500  1
  C  C14  1  0.85363900  0.55274300  0.60636500  1
  C  C15  1  0.90715600  0.63959600  0.38104300  1
  C  C16  1  0.14635300  0.44726300  0.60637900  1
  C  C17  1  0.40716100  0.86040000  0.61895000  1
  C  C18  1  0.64635300  0.05274100  0.39362100  1
  C  C19  1  0.59284300  0.13960900  0.61893400  1
  C  C20  1  0.35363700  0.94726400  0.39364200  1
  C  C21  1  0.59316900  0.86067900  0.38087000  1
  C  C22  1  0.35354000  0.05250400  0.60635000  1
  C  C23  1  0.40682300  0.13933300  0.38089300  1
  C  C24  1  0.00981300  0.45755100  0.80841300  1
  C  C25  1  0.64646500  0.94750000  0.60632700  1
  C  C26  1  0.84030300  0.28567900  0.59079400  1
  C  C27  1  0.21336600  0.63135800  0.36674300  1
  C  C28  1  0.15969500  0.71431500  0.59082900  1
  C  C29  1  0.78663600  0.36865000  0.36671700  1
  C  C30  1  0.15928000  0.28533600  0.40937100  1
  C  C31  1  0.78679500  0.63163800  0.63325100  1
  C  C32  1  0.84071500  0.71465400  0.40932800  1
  C  C33  1  0.21319900  0.36837200  0.63328000  1
  C  C34  1  0.34072000  0.78534300  0.59066200  1
  C  C35  1  0.49017400  0.95755200  0.19159200  1
  C  C36  1  0.71320000  0.13163100  0.36672500  1
  C  C37  1  0.65928300  0.21466400  0.59063500  1
  C  C38  1  0.28678900  0.86837300  0.36675700  1
  C  C39  1  0.65968900  0.78568500  0.40917600  1
  C  C40  1  0.28663500  0.13135200  0.63328600  1
  C  C41  1  0.34030400  0.21432600  0.40921300  1
  C  C42  1  0.71337100  0.86865000  0.63324900  1
  C  C43  1  0.49010900  0.04243300  0.80835000  1
  C  C44  1  0.50981200  0.04245300  0.19159000  1
  C  C45  1  0.50990100  0.95756800  0.80834700  1
  C  C46  1  0.98840700  0.45831300  0.26766100  1
  C  C47  1  0.98847500  0.54171100  0.73240600  1
  C  C48  1  0.01160100  0.54168800  0.26766300  1
  C  C49  1  0.93127300  0.56747100  0.50001000  1
  C  C50  1  0.01151200  0.45829100  0.73240700  1
  C  C51  1  0.48847400  0.95829400  0.26759700  1
  C  C52  1  0.48840800  0.04168900  0.73234200  1
  C  C53  1  0.51151100  0.04171300  0.26759500  1
  C  C54  1  0.51160300  0.95831400  0.73234000  1
  C  C55  1  0.88265500  0.36043600  0.54771000  1
  C  C56  1  0.14448000  0.59757200  0.43923900  1
  C  C57  1  0.11734300  0.63956100  0.54773300  1
  C  C58  1  0.85552000  0.40243100  0.43922100  1
  C  C59  1  0.11706200  0.36017400  0.45242800  1
  C  C60  1  0.93113700  0.43267300  0.50005400  1
  C  C61  1  0.85568500  0.59781200  0.56081100  1
  C  C62  1  0.88293400  0.63982100  0.45240000  1
  C  C63  1  0.14431000  0.40219200  0.56083100  1
  C  C64  1  0.38293600  0.86018000  0.54759600  1
  C  C65  1  0.64431100  0.09781100  0.43917200  1
  C  C66  1  0.61706400  0.13982700  0.54757700  1
  C  C67  1  0.35568200  0.90219400  0.43919300  1
  C  C68  1  0.61734000  0.86044000  0.45227000  1
  C  C69  1  0.35552100  0.09757200  0.56078400  1
  C  C70  1  0.38265600  0.13956900  0.45229600  1
  C  C71  1  0.06886100  0.56732700  0.50006200  1
  C  C72  1  0.64448100  0.90243300  0.56075900  1
  C  C73  1  0.84931200  0.32333100  0.53458800  1
  C  C74  1  0.17826000  0.63494000  0.42714300  1
  C  C75  1  0.15068600  0.67666600  0.53461700  1
  C  C76  1  0.82174000  0.36506400  0.42711900  1
  C  C77  1  0.15037100  0.32303600  0.46554200  1
  C  C78  1  0.82193600  0.63521000  0.57289400  1
  C  C79  1  0.84962500  0.67695900  0.46550700  1
  C  C80  1  0.17805900  0.36479500  0.57292200  1
  C  C81  1  0.34962700  0.82304200  0.53448800  1
  C  C82  1  0.56886000  0.93267600  0.49993900  1
  C  C83  1  0.67806000  0.13520800  0.42708200  1
  C  C84  1  0.65037300  0.17696500  0.53446300  1
  C  C85  1  0.32193200  0.86479700  0.42711000  1
  C  C86  1  0.65068300  0.82333500  0.46538500  1
  C  C87  1  0.32174100  0.13493900  0.57288600  1
  C  C88  1  0.34931300  0.17667300  0.46541800  1
  C  C89  1  0.67826200  0.86506500  0.57285300  1
  C  C90  1  0.82010500  0.32460200  0.47333800  1
  C  C91  1  0.17989300  0.67539900  0.47336800  1
  C  C92  1  0.17963100  0.32431300  0.52673500  1
  C  C93  1  0.43113700  0.06733100  0.49995100  1
  C  C94  1  0.82036500  0.67568800  0.52669900  1
  C  C95  1  0.32036300  0.82431700  0.47329900  1
  C  C96  1  0.67963300  0.17568900  0.47327000  1
  C  C97  1  0.67989400  0.82460500  0.52663100  1
  C  C98  1  0.32010600  0.17540100  0.52666700  1
  C  C99  1  0.99999700  0.50000300  0.92690700  1
  C  C100  1  0.00000100  0.50000300  0.07316600  1
  C  C101  1  0.50000200  0.99999900  0.92683700  1
  C  C102  1  0.49999700  0.00000000  0.07309500  1
  C  C103  1  0.88863200  0.39865900  0.49723400  1
  C  C104  1  0.43127300  0.93253200  0.49999200  1
  C  C105  1  0.11136600  0.60134100  0.49724900  1
  C  C106  1  0.11117100  0.39844000  0.50285200  1
  C  C107  1  0.88882600  0.60155900  0.50283300  1
  C  C108  1  0.38882600  0.89844400  0.49716800  1
  C  C109  1  0.61117200  0.10156200  0.49715200  1
  C  C110  1  0.61136500  0.89866200  0.50275100  1
  C  C111  1  0.38863300  0.10134500  0.50277200  1
  C  C112  1  0.21659000  0.71419500  0.46444500  1
  C  C113  1  0.78340700  0.28580800  0.46441000  1
  C  C114  1  0.78366700  0.71449000  0.53557800  1
  C  C115  1  0.56872500  0.06747400  0.49998300  1
  C  C116  1  0.21633000  0.28551300  0.53562100  1
  C  C117  1  0.71633100  0.21448900  0.46438500  1
  C  C118  1  0.28366500  0.78551600  0.46441900  1
  C  C119  1  0.28340700  0.21419500  0.53559500  1
  C  C120  1  0.71659200  0.78581000  0.53555300  1
  C  C121  1  0.00000300  0.50000200  0.15334900  1
  C  C122  1  0.99999500  0.50000200  0.84672200  1
  C  C123  1  0.49999400  0.00000200  0.15328100  1
  C  C124  1  0.50000400  0.00000000  0.84665400  1
  C  C125  1  0.97163600  0.41269000  0.30299300  1
  C  C126  1  0.99010800  0.45756800  0.19165300  1
  C  C127  1  0.97180200  0.58737000  0.69707300  1
  C  C128  1  0.02837000  0.58731000  0.30299700  1
  C  C129  1  0.02818600  0.41263200  0.69707600  1
  C  C130  1  0.47179900  0.91263500  0.30293000  1
  C  C131  1  0.47163800  0.08731200  0.69701100  1
  C  C132  1  0.52818500  0.08737300  0.30292600  1
  C  C133  1  0.52837300  0.91269200  0.69700500  1
  C  C134  1  0.98442000  0.41051300  0.15206300  1
  C  C135  1  0.98459500  0.58952600  0.84798300  1
  C  C136  1  0.01558800  0.58949000  0.15206700  1
  N  N1  1  0.00000400  0.50000000  0.30643400  1
  N  N2  1  0.45778000  0.99973000  0.96375800  1
  N  N3  1  0.45777700  0.00000700  0.03616700  1
  N  N4  1  0.54222100  0.00026800  0.96376400  1
  N  N5  1  0.73600800  0.29754800  0.46389500  1
  N  N6  1  0.20313300  0.76199900  0.46388300  1
  N  N7  1  0.26399000  0.70245600  0.46392800  1
  N  N8  1  0.79686300  0.23800400  0.46384400  1
  N  N9  1  0.26372900  0.29725400  0.53606200  1
  N  N10  1  0.79712400  0.76229300  0.53619000  1
  N  N11  1  0.73626800  0.70275100  0.53602100  1
  N  N12  1  0.99999300  0.50000100  0.69363500  1
  N  N13  1  0.20287400  0.23770900  0.53623500  1
  N  N14  1  0.29712300  0.73771200  0.46380000  1
  N  N15  1  0.76373000  0.20274900  0.46394600  1
  N  N16  1  0.70287500  0.26229300  0.46376800  1
  N  N17  1  0.23626600  0.79725400  0.46398400  1
  N  N18  1  0.70313500  0.73800600  0.53612200  1
  N  N19  1  0.23600800  0.20245400  0.53610800  1
  N  N20  1  0.29686200  0.26199900  0.53616400  1
  N  N21  1  0.76399200  0.79754900  0.53606200  1
  N  N22  1  0.49999200  0.00000400  0.30636800  1
  N  N23  1  0.50000500  0.00000200  0.69356800  1
  N  N24  1  0.95777900  0.50027000  0.03624500  1
  N  N25  1  0.04221900  0.50001300  0.96383000  1
  N  N26  1  0.04222100  0.49973700  0.03623900  1
  N  N27  1  0.95777700  0.49999400  0.96383500  1
  N  N28  1  0.54221900  0.99999300  0.03617300  1
  O  O1  1  0.05154500  0.44858900  0.56261900  1
  O  O2  1  0.44884000  0.05214200  0.43686400  1
  O  O3  1  0.74347300  0.09066700  0.36095000  1
  O  O4  1  0.69605900  0.21294000  0.62765700  1
  O  O5  1  0.62698300  0.25369200  0.59956500  1
  O  O6  1  0.28307900  0.83479700  0.32255000  1
  O  O7  1  0.25651500  0.90933600  0.36098600  1
  O  O8  1  0.69649100  0.78748700  0.37222200  1
  O  O9  1  0.62745600  0.74660900  0.40014400  1
  O  O10  1  0.28293700  0.16493000  0.67749200  1
  O  O11  1  0.25638300  0.09037500  0.63910500  1
  O  O12  1  0.30349800  0.21252600  0.37226600  1
  O  O13  1  0.44834900  0.05130700  0.56255200  1
  O  O14  1  0.37253900  0.25339900  0.40017600  1
  O  O15  1  0.71707200  0.83507100  0.67745200  1
  O  O16  1  0.74362400  0.90962600  0.63906700  1
  O  O17  1  0.55115200  0.94786500  0.43685600  1
  O  O18  1  0.44844700  0.94859200  0.43739000  1
  O  O19  1  0.55105300  0.05224800  0.56307300  1
  O  O20  1  0.55154500  0.05141500  0.43738300  1
  O  O21  1  0.44894900  0.94775800  0.56307900  1
  O  O22  1  0.99575800  0.39295000  0.35021700  1
  O  O23  1  0.92954000  0.38951100  0.27882200  1
  O  O24  1  0.99597200  0.60706200  0.64986000  1
  O  O25  1  0.94894900  0.55224500  0.43692400  1
  O  O26  1  0.92974400  0.61063000  0.72122200  1
  O  O27  1  0.00424700  0.60705000  0.35022000  1
  O  O28  1  0.07046700  0.61049000  0.27882900  1
  O  O29  1  0.00401700  0.39293900  0.64986200  1
  O  O30  1  0.07024400  0.38937300  0.72122700  1
  O  O31  1  0.49596800  0.89294200  0.35014300  1
  O  O32  1  0.42974100  0.88937700  0.27878000  1
  O  O33  1  0.49576100  0.10705200  0.64978600  1
  O  O34  1  0.42954200  0.11049200  0.72118100  1
  O  O35  1  0.50401700  0.10706400  0.35014300  1
  O  O36  1  0.94844800  0.55141200  0.56261300  1
  O  O37  1  0.57024200  0.11063200  0.27877400  1
  O  O38  1  0.50424900  0.89295200  0.64978300  1
  O  O39  1  0.57047000  0.88951400  0.72117200  1
  O  O40  1  0.95437900  0.40631800  0.10345000  1
  O  O41  1  0.01284500  0.36999900  0.17107400  1
  O  O42  1  0.95450100  0.59382800  0.89650100  1
  O  O43  1  0.01317100  0.62994300  0.82903700  1
  O  O44  1  0.04563000  0.59368500  0.10345500  1
  O  O45  1  0.98716300  0.63000400  0.17107800  1
  O  O46  1  0.04548700  0.40617700  0.89650400  1
  O  O47  1  0.05105300  0.44775500  0.43693000  1
  O  O48  1  0.98681600  0.37006100  0.82904100  1
  O  O49  1  0.45450100  0.90617600  0.10350300  1
  O  O50  1  0.51317100  0.87006200  0.17096800  1
  O  O51  1  0.45437600  0.09368200  0.89655100  1
  O  O52  1  0.51284500  0.13000200  0.82893400  1
  O  O53  1  0.54548400  0.09382800  0.10349800  1
  O  O54  1  0.48681400  0.12994300  0.17096200  1
  O  O55  1  0.54563400  0.90631800  0.89654700  1
  O  O56  1  0.48716800  0.86999700  0.82892400  1
  O  O57  1  0.93161200  0.32564900  0.63816400  1
  O  O58  1  0.94834900  0.44869600  0.43745200  1
  O  O59  1  0.89746900  0.39877900  0.66837400  1
  O  O60  1  0.14476800  0.51196000  0.42259400  1
  O  O61  1  0.15106400  0.55546400  0.31785500  1
  O  O62  1  0.06838900  0.67434100  0.63819600  1
  O  O63  1  0.10252500  0.60120400  0.66838600  1
  O  O64  1  0.85523400  0.48804400  0.42258400  1
  O  O65  1  0.84894400  0.44454400  0.31784100  1
  O  O66  1  0.06794200  0.32541300  0.36216100  1
  O  O67  1  0.10226400  0.39840800  0.33169100  1
  O  O68  1  0.85526400  0.51219900  0.57742900  1
  O  O69  1  0.05115300  0.55213800  0.56314600  1
  O  O70  1  0.84905900  0.55570300  0.68218200  1
  O  O71  1  0.93204800  0.67457400  0.36211900  1
  O  O72  1  0.89773700  0.60156900  0.33167600  1
  O  O73  1  0.14473000  0.48780600  0.57743800  1
  O  O74  1  0.15092900  0.44430800  0.68219800  1
  O  O75  1  0.43205800  0.82542100  0.63786400  1
  O  O76  1  0.39774200  0.89842100  0.66832700  1
  O  O77  1  0.64472900  0.01219800  0.42256000  1
  O  O78  1  0.65092800  0.05569800  0.31780300  1
  O  O79  1  0.56794600  0.17458800  0.63784800  1
  O  O80  1  0.05165400  0.55130300  0.43745800  1
  O  O81  1  0.60226600  0.10159000  0.66831200  1
  O  O82  1  0.35526300  0.98780800  0.42257900  1
  O  O83  1  0.34905600  0.94430700  0.31782400  1
  O  O84  1  0.56837900  0.82565600  0.36182000  1
  O  O85  1  0.60251700  0.89878800  0.33161300  1
  O  O86  1  0.35523500  0.01196000  0.57742300  1
  O  O87  1  0.34894500  0.05546100  0.68216600  1
  O  O88  1  0.43161400  0.17435600  0.36184400  1
  O  O89  1  0.39747000  0.10122700  0.33163100  1
  O  O90  1  0.64476800  0.98804500  0.57740300  1
  O  O91  1  0.94884000  0.44786300  0.56314000  1
  O  O92  1  0.65106700  0.94454100  0.68214200  1
  O  O93  1  0.80349700  0.28747900  0.62774100  1
  O  O94  1  0.87253700  0.24660500  0.59983200  1
  O  O95  1  0.21706200  0.66493700  0.32254000  1
  O  O96  1  0.24362100  0.59038300  0.36092200  1
  O  O97  1  0.19650000  0.71251100  0.62777700  1
  O  O98  1  0.12746100  0.75338800  0.59987100  1
  O  O99  1  0.78294000  0.33507300  0.32251100  1
  O  O100  1  0.75638300  0.40962600  0.36089800  1
  O  O101  1  0.19605700  0.28705800  0.37235200  1
  O  O102  1  0.55165300  0.94869900  0.56254400  1
  O  O103  1  0.12697800  0.24631000  0.40044100  1
  O  O104  1  0.78309000  0.66521600  0.67745500  1
  O  O105  1  0.75651900  0.59067800  0.63902800  1
  O  O106  1  0.80393900  0.71292700  0.37230800  1
  O  O107  1  0.87301500  0.75368200  0.40039200  1
  O  O108  1  0.21690500  0.33479700  0.67748900  1
  O  O109  1  0.24347200  0.40933500  0.63905300  1
  O  O110  1  0.30394500  0.78706700  0.62768700  1
  O  O111  1  0.37302200  0.74631600  0.59959000  1
  O  O112  1  0.71690800  0.16520700  0.32251700  1
