# generated using pymatgen
data_Zn3H44(C7O2)6
_symmetry_space_group_name_H-M   'P 1'
_cell_length_a   37.99372500
_cell_length_b   21.84127100
_cell_length_c   21.76303000
_cell_angle_alpha   90.00000000
_cell_angle_beta   122.77829200
_cell_angle_gamma   90.00000000
_symmetry_Int_Tables_number   1
_chemical_formula_structural   Zn3H44(C7O2)6
_chemical_formula_sum   'Zn12 H176 C168 O48'
_cell_volume   15184.03763009
_cell_formula_units_Z   4
loop_
 _symmetry_equiv_pos_site_id
 _symmetry_equiv_pos_as_xyz
  1  'x, y, z'
loop_
 _atom_site_type_symbol
 _atom_site_label
 _atom_site_symmetry_multiplicity
 _atom_site_fract_x
 _atom_site_fract_y
 _atom_site_fract_z
 _atom_site_occupancy
  Zn  Zn1  1  0.99985300  0.92801300  0.99982600  1
  Zn  Zn2  1  0.49985300  0.42801300  0.99982600  1
  Zn  Zn3  1  0.99978200  0.06685000  0.99983200  1
  Zn  Zn4  1  0.49978200  0.56685000  0.99983200  1
  Zn  Zn5  1  0.49876200  0.99621700  0.56840000  1
  Zn  Zn6  1  0.50088500  0.99637700  0.43127000  1
  Zn  Zn7  1  0.99876200  0.49621700  0.56840000  1
  Zn  Zn8  1  0.00088500  0.49637700  0.43127000  1
  Zn  Zn9  1  0.95232400  0.99568300  0.45522200  1
  Zn  Zn10  1  0.04721800  0.99558700  0.54433700  1
  Zn  Zn11  1  0.45232400  0.49568300  0.45522200  1
  Zn  Zn12  1  0.54721800  0.49558700  0.54433700  1
  H  H1  1  0.28071200  0.95883000  0.37144500  1
  H  H2  1  0.71880900  0.95981400  0.62730700  1
  H  H3  1  0.78071200  0.45883000  0.37144500  1
  H  H4  1  0.21880900  0.45981400  0.62730700  1
  H  H5  1  0.21124600  0.95044600  0.29735900  1
  H  H6  1  0.78824200  0.95072600  0.70117700  1
  H  H7  1  0.71124600  0.45044600  0.29735900  1
  H  H8  1  0.28824200  0.45072500  0.70117800  1
  H  H9  1  0.21091600  0.09523800  0.21183200  1
  H  H10  1  0.78910900  0.09383100  0.79002000  1
  H  H11  1  0.71091600  0.59523800  0.21183200  1
  H  H12  1  0.28910900  0.59383100  0.79002000  1
  H  H13  1  0.21337900  0.05994200  0.28854100  1
  H  H14  1  0.78651300  0.06000400  0.71251000  1
  H  H15  1  0.71337900  0.55994200  0.28854100  1
  H  H16  1  0.28651300  0.56000400  0.71251000  1
  H  H17  1  0.28314500  0.06694200  0.35401700  1
  H  H18  1  0.71677000  0.06754600  0.64720900  1
  H  H19  1  0.78314500  0.56694200  0.35401700  1
  H  H20  1  0.21677000  0.56754600  0.64720900  1
  H  H21  1  0.21513900  0.95156500  0.12531600  1
  H  H22  1  0.78436000  0.94847500  0.87322200  1
  H  H23  1  0.71513900  0.45156500  0.12531600  1
  H  H24  1  0.28436000  0.44847500  0.87322200  1
  H  H25  1  0.22049700  0.03333700  0.12841500  1
  H  H26  1  0.77930300  0.03023300  0.87200200  1
  H  H27  1  0.72049700  0.53333700  0.12841500  1
  H  H28  1  0.27930300  0.53023300  0.87200200  1
  H  H29  1  0.28478900  0.93822300  0.20732200  1
  H  H30  1  0.71466300  0.93599400  0.79093100  1
  H  H31  1  0.78478900  0.43822300  0.20732200  1
  H  H32  1  0.21466300  0.43599400  0.79093100  1
  H  H33  1  0.28777500  0.90446100  0.31715100  1
  H  H34  1  0.71155100  0.90433100  0.68034900  1
  H  H35  1  0.78777500  0.40446100  0.31715100  1
  H  H36  1  0.21155100  0.40433100  0.68034900  1
  H  H37  1  0.29074600  0.01743600  0.19291000  1
  H  H38  1  0.70899700  0.01485000  0.80716100  1
  H  H39  1  0.79074600  0.51743600  0.19291000  1
  H  H40  1  0.20899700  0.51485000  0.80716100  1
  H  H41  1  0.95316400  0.06791000  0.14979900  1
  H  H42  1  0.04684000  0.06943300  0.84964000  1
  H  H43  1  0.45316400  0.56791000  0.14979900  1
  H  H44  1  0.54684000  0.56943300  0.84964000  1
  H  H45  1  0.95192200  0.06571500  0.26120000  1
  H  H46  1  0.04800600  0.06651600  0.73828200  1
  H  H47  1  0.45192200  0.56571400  0.26120000  1
  H  H48  1  0.54800600  0.56651600  0.73828200  1
  H  H49  1  0.04502200  0.92574600  0.34870500  1
  H  H50  1  0.95418100  0.92751500  0.65108500  1
  H  H51  1  0.54502200  0.42574600  0.34870500  1
  H  H52  1  0.45418100  0.42751500  0.65108500  1
  H  H53  1  0.04395100  0.92463600  0.23513700  1
  H  H54  1  0.95519500  0.92728100  0.76451100  1
  H  H55  1  0.54395100  0.42463600  0.23513700  1
  H  H56  1  0.45519500  0.42728100  0.76451100  1
  H  H57  1  0.50964000  0.80130000  0.41093300  1
  H  H58  1  0.49067600  0.80186400  0.58710500  1
  H  H59  1  0.00964000  0.30130100  0.41093300  1
  H  H60  1  0.99067600  0.30186400  0.58710500  1
  H  H61  1  0.45179500  0.18937000  0.38692800  1
  H  H62  1  0.54704200  0.19035200  0.61429200  1
  H  H63  1  0.95179500  0.68937000  0.38692800  1
  H  H64  1  0.04704200  0.69035200  0.61429200  1
  H  H65  1  0.95041000  0.80147300  0.38684600  1
  H  H66  1  0.04782100  0.80246200  0.61308700  1
  H  H67  1  0.45041000  0.30147300  0.38684600  1
  H  H68  1  0.54782100  0.30246200  0.61308700  1
  H  H69  1  0.23316200  0.86650800  0.20976500  1
  H  H70  1  0.17982400  0.88195500  0.17962400  1
  H  H71  1  0.19098600  0.84664800  0.29533900  1
  H  H72  1  0.24570600  0.83256100  0.33144500  1
  H  H73  1  0.22608500  0.75834000  0.23131400  1
  H  H74  1  0.17126100  0.77244500  0.19502400  1
  H  H75  1  0.23598700  0.72280100  0.34813400  1
  H  H76  1  0.19621600  0.67878800  0.27124600  1
  H  H77  1  0.18110600  0.73690000  0.31182900  1
  H  H78  1  0.76602600  0.86488000  0.78683800  1
  H  H79  1  0.81941900  0.88030000  0.81732000  1
  H  H80  1  0.80811600  0.84712500  0.70080400  1
  H  H81  1  0.75334800  0.83315700  0.66440200  1
  H  H82  1  0.77271700  0.75722200  0.76282200  1
  H  H83  1  0.82758800  0.77120500  0.79940700  1
  H  H84  1  0.76267100  0.72384600  0.64519800  1
  H  H85  1  0.80228900  0.67877700  0.72105700  1
  H  H86  1  0.81760000  0.73782300  0.68179900  1
  H  H87  1  0.73316200  0.36650800  0.20976500  1
  H  H88  1  0.67982400  0.38195500  0.17962400  1
  H  H89  1  0.69098600  0.34664800  0.29533900  1
  H  H90  1  0.74570600  0.33256100  0.33144500  1
  H  H91  1  0.72608500  0.25834000  0.23131400  1
  H  H92  1  0.67126200  0.27244500  0.19502400  1
  H  H93  1  0.73598700  0.22280100  0.34813400  1
  H  H94  1  0.69621600  0.17878800  0.27124600  1
  H  H95  1  0.68110600  0.23690000  0.31182900  1
  H  H96  1  0.26602600  0.36488000  0.78683800  1
  H  H97  1  0.31941900  0.38030000  0.81732000  1
  H  H98  1  0.30811600  0.34712500  0.70080400  1
  H  H99  1  0.25334800  0.33315700  0.66440200  1
  H  H100  1  0.27271700  0.25722200  0.76282300  1
  H  H101  1  0.32758800  0.27120500  0.79940700  1
  H  H102  1  0.26267100  0.22384600  0.64519800  1
  H  H103  1  0.30228900  0.17877700  0.72105700  1
  H  H104  1  0.31760000  0.23782300  0.68179900  1
  H  H105  1  0.99360600  0.20696100  0.34240000  1
  H  H106  1  0.99938500  0.13451300  0.38442300  1
  H  H107  1  0.07572700  0.16059700  0.47669800  1
  H  H108  1  0.06831000  0.22930500  0.42462800  1
  H  H109  1  0.04355000  0.16325200  0.31307600  1
  H  H110  1  0.05600500  0.09639500  0.37040800  1
  H  H111  1  0.11741400  0.19741600  0.38970500  1
  H  H112  1  0.11378900  0.12114400  0.35438600  1
  H  H113  1  0.12981300  0.13147200  0.44856600  1
  H  H114  1  0.00743300  0.20756400  0.65686000  1
  H  H115  1  0.00091600  0.13501500  0.61460100  1
  H  H116  1  0.92471600  0.16271000  0.52267700  1
  H  H117  1  0.93291600  0.23098200  0.57587500  1
  H  H118  1  0.95762100  0.16356600  0.68660900  1
  H  H119  1  0.94384600  0.09749800  0.62767300  1
  H  H120  1  0.88425400  0.20008600  0.61199700  1
  H  H121  1  0.88693600  0.12337800  0.64555500  1
  H  H122  1  0.87052600  0.13507400  0.55137200  1
  H  H123  1  0.49360600  0.70696100  0.34240000  1
  H  H124  1  0.49938500  0.63451300  0.38442300  1
  H  H125  1  0.57572700  0.66059700  0.47669800  1
  H  H126  1  0.56831000  0.72930500  0.42462800  1
  H  H127  1  0.54355000  0.66325200  0.31307600  1
  H  H128  1  0.55600500  0.59639500  0.37040800  1
  H  H129  1  0.61741400  0.69741600  0.38970500  1
  H  H130  1  0.61378900  0.62114400  0.35438600  1
  H  H131  1  0.62981300  0.63147200  0.44856600  1
  H  H132  1  0.50743300  0.70756400  0.65686000  1
  H  H133  1  0.50091600  0.63501500  0.61460100  1
  H  H134  1  0.42471600  0.66271000  0.52267700  1
  H  H135  1  0.43291600  0.73098200  0.57587600  1
  H  H136  1  0.45762100  0.66356600  0.68660900  1
  H  H137  1  0.44384600  0.59749800  0.62767300  1
  H  H138  1  0.38425400  0.70008600  0.61199800  1
  H  H139  1  0.38693600  0.62337800  0.64555500  1
  H  H140  1  0.37052600  0.63507300  0.55137200  1
  H  H141  1  0.26931000  0.11751900  0.21103500  1
  H  H142  1  0.32092500  0.10898400  0.29088500  1
  H  H143  1  0.30306300  0.17132600  0.36377600  1
  H  H144  1  0.25009900  0.18057900  0.28599900  1
  H  H145  1  0.27713300  0.22958800  0.21646500  1
  H  H146  1  0.33019900  0.22015200  0.29420400  1
  H  H147  1  0.26037900  0.29324700  0.29203400  1
  H  H148  1  0.30366200  0.32468300  0.28966600  1
  H  H149  1  0.31352600  0.28382800  0.36978100  1
  H  H150  1  0.73079100  0.11547000  0.79133400  1
  H  H151  1  0.67915000  0.10797800  0.71128100  1
  H  H152  1  0.69723200  0.17194000  0.63989300  1
  H  H153  1  0.75026000  0.18013000  0.71779400  1
  H  H154  1  0.72354200  0.22751900  0.78863900  1
  H  H155  1  0.67041000  0.21916000  0.71076400  1
  H  H156  1  0.74052200  0.29279200  0.71453000  1
  H  H157  1  0.69742600  0.32380800  0.71777500  1
  H  H158  1  0.68731000  0.28445500  0.63664500  1
  H  H159  1  0.76931000  0.61751900  0.21103500  1
  H  H160  1  0.82092500  0.60898400  0.29088500  1
  H  H161  1  0.80306300  0.67132600  0.36377600  1
  H  H162  1  0.75009900  0.68057900  0.28599900  1
  H  H163  1  0.77713300  0.72958800  0.21646500  1
  H  H164  1  0.83019900  0.72015200  0.29420400  1
  H  H165  1  0.76037900  0.79324700  0.29203400  1
  H  H166  1  0.80366200  0.82468300  0.28966600  1
  H  H167  1  0.81352600  0.78382800  0.36978100  1
  H  H168  1  0.23079100  0.61547100  0.79133400  1
  H  H169  1  0.17915000  0.60797800  0.71128100  1
  H  H170  1  0.19723200  0.67194000  0.63989300  1
  H  H171  1  0.25026000  0.68013000  0.71779300  1
  H  H172  1  0.22354200  0.72751900  0.78863900  1
  H  H173  1  0.17041000  0.71916000  0.71076400  1
  H  H174  1  0.24052200  0.79279200  0.71453000  1
  H  H175  1  0.19742600  0.82380800  0.71777500  1
  H  H176  1  0.18731000  0.78445500  0.63664500  1
  C  C1  1  0.99846300  0.99611800  0.11860400  1
  C  C2  1  0.00113800  0.99869700  0.88104400  1
  C  C3  1  0.49846300  0.49611800  0.11860400  1
  C  C4  1  0.50113800  0.49869700  0.88104400  1
  C  C5  1  0.08169700  0.99870600  0.07958300  1
  C  C6  1  0.91796400  0.99614400  0.92008500  1
  C  C7  1  0.58169700  0.49870600  0.07958300  1
  C  C8  1  0.41796400  0.49614400  0.92008500  1
  C  C9  1  0.22527300  0.94427100  0.26444700  1
  C  C10  1  0.77419500  0.94376800  0.73394700  1
  C  C11  1  0.72527300  0.44427100  0.26444700  1
  C  C12  1  0.27419500  0.44376800  0.73394700  1
  C  C13  1  0.22471300  0.05680600  0.25120500  1
  C  C14  1  0.77516800  0.05602800  0.74976700  1
  C  C15  1  0.72471300  0.55680600  0.25120500  1
  C  C16  1  0.27516800  0.55602800  0.74976700  1
  C  C17  1  0.27230200  0.05993400  0.29590400  1
  C  C18  1  0.72759000  0.05952600  0.70515200  1
  C  C19  1  0.77230200  0.55993400  0.29590400  1
  C  C20  1  0.22759000  0.55952600  0.70515200  1
  C  C21  1  0.37300000  0.99672600  0.37429300  1
  C  C22  1  0.62666400  0.99670400  0.62535700  1
  C  C23  1  0.87300000  0.49672600  0.37429300  1
  C  C24  1  0.12666400  0.49670400  0.62535700  1
  C  C25  1  0.21022000  0.99682800  0.20944800  1
  C  C26  1  0.78944100  0.99540600  0.79014100  1
  C  C27  1  0.71022000  0.49682800  0.20944800  1
  C  C28  1  0.28944100  0.49540600  0.79014100  1
  C  C29  1  0.27263700  0.94834700  0.31539700  1
  C  C30  1  0.72684700  0.94833500  0.68310600  1
  C  C31  1  0.77263700  0.44834700  0.31539700  1
  C  C32  1  0.22684700  0.44833500  0.68310600  1
  C  C33  1  0.28943400  0.99849900  0.28983000  1
  C  C34  1  0.71023600  0.99780700  0.70982100  1
  C  C35  1  0.78943400  0.49849900  0.28983000  1
  C  C36  1  0.21023600  0.49780700  0.70982100  1
  C  C37  1  0.27555800  0.98549900  0.21124100  1
  C  C38  1  0.72406700  0.98343400  0.78809800  1
  C  C39  1  0.77555800  0.48549900  0.21124100  1
  C  C40  1  0.22406700  0.48343400  0.78809800  1
  C  C41  1  0.22841000  0.99156300  0.16239300  1
  C  C42  1  0.77123600  0.98904400  0.83707100  1
  C  C43  1  0.72841000  0.49156400  0.16239300  1
  C  C44  1  0.27123600  0.48904400  0.83707100  1
  C  C45  1  0.33527300  0.99743100  0.33651900  1
  C  C46  1  0.66439300  0.99714400  0.66312600  1
  C  C47  1  0.83527300  0.49743100  0.33651900  1
  C  C48  1  0.16439300  0.49714400  0.66312600  1
  C  C49  1  0.16437100  0.99783600  0.16276500  1
  C  C50  1  0.83529100  0.99599100  0.83683900  1
  C  C51  1  0.66437100  0.49783600  0.16276500  1
  C  C52  1  0.33529100  0.49599100  0.83683900  1
  C  C53  1  0.12665100  0.99841600  0.12458800  1
  C  C54  1  0.87301200  0.99623500  0.87504000  1
  C  C55  1  0.62665100  0.49841600  0.12458800  1
  C  C56  1  0.37301200  0.49623500  0.87504000  1
  C  C57  1  0.97318900  0.03639500  0.19326700  1
  C  C58  1  0.02661400  0.03798700  0.80625100  1
  C  C59  1  0.47318900  0.53639500  0.19326700  1
  C  C60  1  0.52661400  0.53798700  0.80625100  1
  C  C61  1  0.97222200  0.03479000  0.25557300  1
  C  C62  1  0.02754800  0.03595100  0.74392600  1
  C  C63  1  0.47222200  0.53479000  0.25557300  1
  C  C64  1  0.52754800  0.53595100  0.74392600  1
  C  C65  1  0.99831800  0.99546100  0.31167300  1
  C  C66  1  0.00125200  0.99668500  0.68789500  1
  C  C67  1  0.49831800  0.49546100  0.31167300  1
  C  C68  1  0.50125200  0.49668500  0.68789500  1
  C  C69  1  0.02463300  0.95672600  0.30485000  1
  C  C70  1  0.97473500  0.95847500  0.69482200  1
  C  C71  1  0.52463300  0.45672600  0.30485000  1
  C  C72  1  0.47473500  0.45847500  0.69482200  1
  C  C73  1  0.02380500  0.95582400  0.24085100  1
  C  C74  1  0.97553600  0.95805200  0.75880300  1
  C  C75  1  0.52380500  0.45582400  0.24085100  1
  C  C76  1  0.47553600  0.45805200  0.75880300  1
  C  C77  1  0.99845600  0.99616100  0.18542600  1
  C  C78  1  0.00111900  0.99829600  0.81417900  1
  C  C79  1  0.49845600  0.49616100  0.18542600  1
  C  C80  1  0.50111900  0.49829600  0.81417900  1
  C  C81  1  0.49944300  0.18277600  0.50064700  1
  C  C82  1  0.99944300  0.68277600  0.50064700  1
  C  C83  1  0.50001000  0.87632100  0.49864200  1
  C  C84  1  0.00001000  0.37632100  0.49864200  1
  C  C85  1  0.41796600  0.99621400  0.41828000  1
  C  C86  1  0.58169700  0.99641800  0.58138600  1
  C  C87  1  0.91796600  0.49621400  0.41828000  1
  C  C88  1  0.08169700  0.49641800  0.58138600  1
  C  C89  1  0.49962200  0.11598500  0.50101700  1
  C  C90  1  0.99962200  0.61598500  0.50101700  1
  C  C91  1  0.99894600  0.87597400  0.49952000  1
  C  C92  1  0.49894600  0.37597400  0.49952000  1
  C  C93  1  0.99833400  0.99525400  0.37847700  1
  C  C94  1  0.00123500  0.99603600  0.62106900  1
  C  C95  1  0.49833400  0.49525400  0.37847700  1
  C  C96  1  0.50123500  0.49603600  0.62106900  1
  C  C97  1  0.00059200  0.11530200  0.50005400  1
  C  C98  1  0.50059200  0.61530200  0.50005400  1
  C  C99  1  0.50543000  0.77718900  0.44985500  1
  C  C100  1  0.49498400  0.77750500  0.54843900  1
  C  C101  1  0.00543000  0.27718900  0.44985500  1
  C  C102  1  0.99498400  0.27750500  0.54843900  1
  C  C103  1  0.00565900  0.21401000  0.44987600  1
  C  C104  1  0.99502700  0.21432900  0.54911700  1
  C  C105  1  0.50565900  0.71401000  0.44987600  1
  C  C106  1  0.49502700  0.71432900  0.54911700  1
  C  C107  1  0.00044100  0.18219400  0.49970100  1
  C  C108  1  0.50044100  0.68219300  0.49970100  1
  C  C109  1  0.50014400  0.80918100  0.49898200  1
  C  C110  1  0.00014400  0.30918200  0.49898200  1
  C  C111  1  0.47280400  0.21412900  0.43676000  1
  C  C112  1  0.52589800  0.21467800  0.56418000  1
  C  C113  1  0.97280400  0.71412900  0.43676000  1
  C  C114  1  0.02589800  0.71467800  0.56418000  1
  C  C115  1  0.97180500  0.77722200  0.43687000  1
  C  C116  1  0.02655000  0.77777400  0.56335000  1
  C  C117  1  0.47180500  0.27722200  0.43687000  1
  C  C118  1  0.52655000  0.27777400  0.56335000  1
  C  C119  1  0.99909400  0.80915400  0.49992800  1
  C  C120  1  0.49909400  0.30915400  0.49992800  1
  C  C121  1  0.21230600  0.88118800  0.22799500  1
  C  C122  1  0.21396600  0.83415100  0.28098300  1
  C  C123  1  0.20308900  0.77142100  0.24542500  1
  C  C124  1  0.20419100  0.72446600  0.29769600  1
  C  C125  1  0.78693300  0.88012800  0.76894400  1
  C  C126  1  0.78509700  0.83410800  0.71488300  1
  C  C127  1  0.79575400  0.77081800  0.74900000  1
  C  C128  1  0.79447500  0.72487300  0.69565700  1
  C  C129  1  0.71230600  0.38118800  0.22799500  1
  C  C130  1  0.71396600  0.33415100  0.28098300  1
  C  C131  1  0.70308900  0.27142100  0.24542500  1
  C  C132  1  0.70419100  0.22446600  0.29769600  1
  C  C133  1  0.28693300  0.38012800  0.76894400  1
  C  C134  1  0.28509700  0.33410800  0.71488300  1
  C  C135  1  0.29575400  0.27081800  0.74900000  1
  C  C136  1  0.29447500  0.22487300  0.69565800  1
  C  C137  1  0.01140700  0.18198900  0.39507000  1
  C  C138  1  0.05745800  0.18163400  0.42161100  1
  C  C139  1  0.06392000  0.14499500  0.36929600  1
  C  C140  1  0.10924200  0.14910900  0.39209200  1
  C  C141  1  0.98929600  0.18270000  0.60415900  1
  C  C142  1  0.94331000  0.18315600  0.57806100  1
  C  C143  1  0.93672200  0.14626300  0.63006300  1
  C  C144  1  0.89161700  0.15163700  0.60820600  1
  C  C145  1  0.51140700  0.68198900  0.39507000  1
  C  C146  1  0.55745800  0.68163400  0.42161100  1
  C  C147  1  0.56392000  0.64499500  0.36929600  1
  C  C148  1  0.60924200  0.64910900  0.39209200  1
  C  C149  1  0.48929600  0.68270000  0.60415900  1
  C  C150  1  0.44331000  0.68315600  0.57806100  1
  C  C151  1  0.43672200  0.64626300  0.63006300  1
  C  C152  1  0.39161700  0.65163700  0.60820600  1
  C  C153  1  0.28747400  0.11411500  0.27145900  1
  C  C154  1  0.28310500  0.17343700  0.30327600  1
  C  C155  1  0.29712200  0.22678400  0.27692200  1
  C  C156  1  0.29339800  0.28597800  0.30929800  1
  C  C157  1  0.71262300  0.11306500  0.73084300  1
  C  C158  1  0.71723600  0.17303800  0.70042800  1
  C  C159  1  0.70350500  0.22573500  0.72813000  1
  C  C160  1  0.70748100  0.28558400  0.69716500  1
  C  C161  1  0.78747400  0.61411500  0.27145900  1
  C  C162  1  0.78310500  0.67343700  0.30327600  1
  C  C163  1  0.79712200  0.72678400  0.27692200  1
  C  C164  1  0.79339800  0.78597800  0.30929800  1
  C  C165  1  0.21262300  0.61306500  0.73084200  1
  C  C166  1  0.21723600  0.67303800  0.70042800  1
  C  C167  1  0.20350500  0.72573500  0.72813000  1
  C  C168  1  0.20748100  0.78558400  0.69716400  1
  O  O1  1  0.99834700  0.94314400  0.09021500  1
  O  O2  1  0.99941100  0.94594700  0.90805300  1
  O  O3  1  0.49834700  0.44314400  0.09021500  1
  O  O4  1  0.49941100  0.44594700  0.90805300  1
  O  O5  1  0.99908200  0.04897400  0.09059700  1
  O  O6  1  0.00244400  0.05167100  0.91053300  1
  O  O7  1  0.49908200  0.54897400  0.09059700  1
  O  O8  1  0.50244400  0.55167100  0.91053300  1
  O  O9  1  0.06208400  0.94589100  0.06102800  1
  O  O10  1  0.93728700  0.94320300  0.94119200  1
  O  O11  1  0.56208400  0.44589100  0.06102800  1
  O  O12  1  0.43728700  0.44320300  0.94119200  1
  O  O13  1  0.06235300  0.05169300  0.06001100  1
  O  O14  1  0.93758700  0.04894500  0.93715300  1
  O  O15  1  0.56235300  0.55169300  0.06001100  1
  O  O16  1  0.43758700  0.54894500  0.93715300  1
  O  O17  1  0.50001700  0.90517000  0.55157500  1
  O  O18  1  0.49988000  0.90482900  0.44544300  1
  O  O19  1  0.00001700  0.40517000  0.55157500  1
  O  O20  1  0.99988000  0.40482900  0.44544300  1
  O  O21  1  0.43683000  0.99800700  0.48967100  1
  O  O22  1  0.56283100  0.99540500  0.50997700  1
  O  O23  1  0.93683000  0.49800700  0.48967100  1
  O  O24  1  0.06283100  0.49540600  0.50997700  1
  O  O25  1  0.43807600  0.99427100  0.38482000  1
  O  O26  1  0.56158300  0.99734500  0.61486400  1
  O  O27  1  0.93807600  0.49427100  0.38482000  1
  O  O28  1  0.06158300  0.49734500  0.61486400  1
  O  O29  1  0.50044200  0.08771200  0.55496500  1
  O  O30  1  0.49896400  0.08737200  0.44736400  1
  O  O31  1  0.00044200  0.58771200  0.55496500  1
  O  O32  1  0.99896400  0.58737200  0.44736400  1
  O  O33  1  0.96276200  0.90424300  0.46236900  1
  O  O34  1  0.03503000  0.90460900  0.53621700  1
  O  O35  1  0.46276200  0.40424300  0.46236900  1
  O  O36  1  0.53503000  0.40460900  0.53621700  1
  O  O37  1  0.96215500  0.99540800  0.37261000  1
  O  O38  1  0.03736000  0.99864400  0.62686600  1
  O  O39  1  0.46215500  0.49540800  0.37261000  1
  O  O40  1  0.53736000  0.49864400  0.62686600  1
  O  O41  1  0.03451300  0.99541900  0.44117700  1
  O  O42  1  0.96509600  0.99347600  0.55840300  1
  O  O43  1  0.53451300  0.49541800  0.44117700  1
  O  O44  1  0.46509600  0.49347500  0.55840300  1
  O  O45  1  0.96444200  0.08673400  0.46583800  1
  O  O46  1  0.03684600  0.08707800  0.53463600  1
  O  O47  1  0.46444200  0.58673400  0.46583800  1
  O  O48  1  0.53684600  0.58707800  0.53463600  1
