# generated using pymatgen
data_FeH9C20O9
_symmetry_space_group_name_H-M   'P 1'
_cell_length_a   15.49863400
_cell_length_b   12.19127300
_cell_length_c   13.58964500
_cell_angle_alpha   99.57449600
_cell_angle_beta   101.88285500
_cell_angle_gamma   108.77797200
_symmetry_Int_Tables_number   1
_chemical_formula_structural   FeH9C20O9
_chemical_formula_sum   'Fe2 H18 C40 O18'
_cell_volume   2302.76711595
_cell_formula_units_Z   2
loop_
 _symmetry_equiv_pos_site_id
 _symmetry_equiv_pos_as_xyz
  1  'x, y, z'
loop_
 _atom_site_type_symbol
 _atom_site_label
 _atom_site_symmetry_multiplicity
 _atom_site_fract_x
 _atom_site_fract_y
 _atom_site_fract_z
 _atom_site_occupancy
  Fe  Fe1  1  0.50922200  0.02495400  0.79142600  1
  Fe  Fe2  1  0.51876900  0.02574500  0.22560400  1
  H  H1  1  0.78133800  0.97530900  0.24000100  1
  H  H2  1  0.83935600  0.98856000  0.90011700  1
  H  H3  1  0.05250600  0.04243000  0.10756400  1
  H  H4  1  0.94325100  0.89045200  0.88719900  1
  H  H5  1  0.05265600  0.94889300  0.78171800  1
  H  H6  1  0.16495100  0.96192100  0.09748800  1
  H  H7  1  0.50639100  0.13849400  0.51887000  1
  H  H8  1  0.48390600  0.41946000  0.72712700  1
  H  H9  1  0.47101700  0.88444400  0.47054300  1
  H  H10  1  0.52163600  0.61173500  0.28560500  1
  H  H11  1  0.52027800  0.44205300  0.33705300  1
  H  H12  1  0.48187500  0.59425000  0.67560800  1
  H  H13  1  0.93671900  0.11220000  0.34594400  1
  H  H14  1  0.04982600  0.09582900  0.37734100  1
  H  H15  1  0.94765500  0.98736900  0.39680100  1
  H  H16  1  0.11487200  0.82504300  0.64909900  1
  H  H17  1  0.20390500  0.89148200  0.58678500  1
  H  H18  1  0.10489400  0.94006800  0.58351200  1
  C  C1  1  0.79516900  0.97997800  0.16578100  1
  C  C2  1  0.88060800  0.97956900  0.15169000  1
  C  C3  1  0.89627100  0.97932000  0.05477100  1
  C  C4  1  0.82555700  0.98147600  0.97395200  1
  C  C5  1  0.73964500  0.98300500  0.98869800  1
  C  C6  1  0.72438600  0.97955200  0.08546600  1
  C  C7  1  0.99111200  0.99006900  0.04237600  1
  C  C8  1  0.00387600  0.93954300  0.95411800  1
  C  C9  1  0.11165900  0.95727300  0.84473400  1
  C  C10  1  0.20016500  0.98137800  0.82936300  1
  C  C11  1  0.27822100  0.99811600  0.91018400  1
  C  C12  1  0.26565500  0.98928000  0.00818700  1
  C  C13  1  0.17578700  0.96886000  0.02250000  1
  C  C14  1  0.09918200  0.95525200  0.94147900  1
  C  C15  1  0.48090700  0.18974800  0.69576700  1
  C  C16  1  0.37143400  0.02663400  0.88915300  1
  C  C17  1  0.66871500  0.99333600  0.90311400  1
  C  C18  1  0.47479700  0.81108900  0.63999500  1
  C  C19  1  0.50715900  0.22610300  0.35823500  1
  C  C20  1  0.34279500  0.99708600  0.09762500  1
  C  C21  1  0.63550600  0.97591000  0.10812000  1
  C  C22  1  0.51569100  0.82922900  0.29998900  1
  C  C23  1  0.50683500  0.29022000  0.45949000  1
  C  C24  1  0.50686800  0.22850800  0.53540000  1
  C  C25  1  0.49999700  0.27415400  0.63104100  1
  C  C26  1  0.49345200  0.38554800  0.65304700  1
  C  C27  1  0.49488400  0.45066000  0.57801700  1
  C  C28  1  0.50229500  0.40352500  0.48142800  1
  C  C29  1  0.48696800  0.56188800  0.59942000  1
  C  C30  1  0.48563500  0.62772100  0.52464900  1
  C  C31  1  0.49856100  0.58143300  0.43049800  1
  C  C32  1  0.50761500  0.47187000  0.41001000  1
  C  C33  1  0.47610300  0.74012400  0.54082100  1
  C  C34  1  0.47738800  0.79790600  0.46096700  1
  C  C35  1  0.49442700  0.75277100  0.37062600  1
  C  C36  1  0.50619400  0.64544700  0.35600800  1
  C  C37  1  0.95104200  0.97209000  0.23887300  1
  C  C38  1  0.97214400  0.04639900  0.34625200  1
  C  C39  1  0.21104200  0.00312200  0.72919700  1
  C  C40  1  0.15502900  0.90892400  0.63104800  1
  O  O1  1  0.55012400  0.18815700  0.76925600  1
  O  O2  1  0.43602800  0.13469000  0.92954700  1
  O  O3  1  0.40620500  0.09077500  0.65517300  1
  O  O4  1  0.38613100  0.95023000  0.81993600  1
  O  O5  1  0.60066300  0.02938900  0.92160700  1
  O  O6  1  0.67538100  0.97001400  0.80782800  1
  O  O7  1  0.50377000  0.92803700  0.65397900  1
  O  O8  1  0.44353800  0.76221500  0.71101100  1
  O  O9  1  0.54759800  0.14682300  0.35927000  1
  O  O10  1  0.45165400  0.22681100  0.27148400  1
  O  O11  1  0.43186400  0.02949000  0.09530700  1
  O  O12  1  0.32178000  0.97129700  0.18181300  1
  O  O13  1  0.60364200  0.87398900  0.29622200  1
  O  O14  1  0.63920400  0.05701600  0.18697600  1
  O  O15  1  0.45454500  0.87593800  0.26257700  1
  O  O16  1  0.55599800  0.88497000  0.05983400  1
  O  O17  1  0.99060600  0.90144800  0.22475000  1
  O  O18  1  0.25795700  0.10304800  0.72511100  1
