# generated using pymatgen
data_FeH13C23NO8
_symmetry_space_group_name_H-M   'P 1'
_cell_length_a   15.41802500
_cell_length_b   14.07448900
_cell_length_c   11.16995800
_cell_angle_alpha   84.95710900
_cell_angle_beta   101.87676700
_cell_angle_gamma   97.35490400
_symmetry_Int_Tables_number   1
_chemical_formula_structural   FeH13C23NO8
_chemical_formula_sum   'Fe2 H26 C46 N2 O16'
_cell_volume   2347.74818005
_cell_formula_units_Z   2
loop_
 _symmetry_equiv_pos_site_id
 _symmetry_equiv_pos_as_xyz
  1  'x, y, z'
loop_
 _atom_site_type_symbol
 _atom_site_label
 _atom_site_symmetry_multiplicity
 _atom_site_fract_x
 _atom_site_fract_y
 _atom_site_fract_z
 _atom_site_occupancy
  Fe  Fe1  1  0.46661500  0.97794300  0.71529600  1
  Fe  Fe2  1  0.50350100  0.97585900  0.26521900  1
  H  H1  1  0.77969000  0.99455500  0.25386100  1
  H  H2  1  0.92567300  0.99754900  0.20062300  1
  H  H3  1  0.80259400  0.92572800  0.83867700  1
  H  H4  1  0.98780200  0.88969700  0.99681000  1
  H  H5  1  0.05973000  0.03811500  0.75068000  1
  H  H6  1  0.20543300  0.01849400  0.71213000  1
  H  H7  1  0.70645500  0.57363700  0.46898500  1
  H  H8  1  0.68917600  0.43696500  0.41353300  1
  H  H9  1  0.66753200  0.27679400  0.36423500  1
  H  H10  1  0.29007100  0.51535900  0.57736700  1
  H  H11  1  0.26911800  0.38277100  0.50748300  1
  H  H12  1  0.31119600  0.67603200  0.62580500  1
  H  H13  1  0.70343700  0.73981200  0.45414300  1
  H  H14  1  0.27128900  0.21611200  0.52411300  1
  H  H15  1  0.08628800  0.20648600  0.04453400  1
  H  H16  1  0.00676000  0.27652900  0.94932600  1
  H  H17  1  0.07947100  0.21774800  0.87987200  1
  H  H18  1  0.90864300  0.07115100  0.77559500  1
  H  H19  1  0.93100900  0.19979700  0.77157000  1
  H  H20  1  0.84466500  0.14065600  0.84754500  1
  H  H21  1  0.19980200  0.14237400  0.19754700  1
  H  H22  1  0.19686100  0.06038000  0.33150600  1
  H  H23  1  0.09503500  0.09966900  0.24282300  1
  H  H24  1  0.16753200  0.85527300  0.15617000  1
  H  H25  1  0.11627100  0.88278100  0.27821200  1
  H  H26  1  0.23424400  0.91431600  0.28756100  1
  C  C1  1  0.78359100  0.98129100  0.16136300  1
  C  C2  1  0.86597700  0.98217000  0.13206100  1
  C  C3  1  0.87239900  0.96008200  0.01702900  1
  C  C4  1  0.79597800  0.93987100  0.92970400  1
  C  C5  1  0.71255100  0.94377600  0.95630600  1
  C  C6  1  0.70664800  0.96034900  0.07540300  1
  C  C7  1  0.96084900  0.95792800  0.98905400  1
  C  C8  1  0.01149800  0.03850400  0.96317400  1
  C  C9  1  0.11481600  0.03091300  0.82700600  1
  C  C10  1  0.19667500  0.01867400  0.80564800  1
  C  C11  1  0.26859600  0.01228800  0.90100300  1
  C  C12  1  0.25836200  0.01368100  0.02239600  1
  C  C13  1  0.17194200  0.01815400  0.04379000  1
  C  C14  1  0.10211800  0.03122600  0.94493600  1
  C  C15  1  0.41250900  0.12274200  0.55210200  1
  C  C16  1  0.35402400  0.00836800  0.86568500  1
  C  C17  1  0.63389300  0.94022500  0.85547200  1
  C  C18  1  0.45351400  0.79532700  0.63990700  1
  C  C19  1  0.52353600  0.15908200  0.34337200  1
  C  C20  1  0.33747500  0.01128000  0.12415300  1
  C  C21  1  0.62181100  0.95188000  0.11720000  1
  C  C22  1  0.56262900  0.83273800  0.43201900  1
  C  C23  1  0.64525400  0.69489100  0.47422100  1
  C  C24  1  0.57070000  0.73439600  0.48516600  1
  C  C25  1  0.49889800  0.67464000  0.51718900  1
  C  C26  1  0.43458600  0.71020100  0.56713100  1
  C  C27  1  0.36033400  0.65019700  0.58409600  1
  C  C28  1  0.64455500  0.59742500  0.47682000  1
  C  C29  1  0.56645500  0.53657700  0.48144500  1
  C  C30  1  0.49384600  0.57574500  0.50530500  1
  C  C31  1  0.41678200  0.51638700  0.51891900  1
  C  C32  1  0.62854000  0.39714300  0.43144900  1
  C  C33  1  0.56035400  0.43791200  0.46552400  1
  C  C34  1  0.48296900  0.37875500  0.47829300  1
  C  C35  1  0.61740700  0.30306600  0.40359100  1
  C  C36  1  0.54212100  0.24362200  0.41774300  1
  C  C37  1  0.34937300  0.55619600  0.55620200  1
  C  C38  1  0.41025300  0.41815200  0.50123600  1
  C  C39  1  0.33138300  0.35809100  0.50290200  1
  C  C40  1  0.47757700  0.27978900  0.46659100  1
  C  C41  1  0.40523000  0.22073100  0.49781200  1
  C  C42  1  0.33022900  0.26061900  0.50591200  1
  C  C43  1  0.04083100  0.21105300  0.95430800  1
  C  C44  1  0.91148700  0.13502000  0.82825300  1
  C  C45  1  0.16142200  0.07991000  0.23747400  1
  C  C46  1  0.16856100  0.90839900  0.22428400  1
  N  N1  1  0.97514800  0.12798100  0.94218800  1
  N  N2  1  0.14987600  0.99976000  0.16159700  1
  O  O1  1  0.48860600  0.10066100  0.61972800  1
  O  O2  1  0.41793000  0.07923400  0.88933400  1
  O  O3  1  0.33984500  0.06359300  0.55507700  1
  O  O4  1  0.35841700  0.94601700  0.78680000  1
  O  O5  1  0.56263600  0.97812400  0.86689000  1
  O  O6  1  0.63923500  0.91149000  0.74891100  1
  O  O7  1  0.46014900  0.88290700  0.58907800  1
  O  O8  1  0.44915000  0.78325500  0.75642500  1
  O  O9  1  0.50528400  0.07133900  0.38935800  1
  O  O10  1  0.53614400  0.17143800  0.23018300  1
  O  O11  1  0.40720100  0.96990500  0.11367300  1
  O  O12  1  0.34035200  0.05419500  0.22443800  1
  O  O13  1  0.63480400  0.89269700  0.42897100  1
  O  O14  1  0.61114300  0.01301800  0.19360600  1
  O  O15  1  0.48642100  0.85322700  0.36327800  1
  O  O16  1  0.56311400  0.87634200  0.09361900  1
