# Generated by REPEAT Assigner based on pymatgen
data_DB0-m3_o24_o93_f0_fsc.sym.2_sqe
_audit_creation_date              2022-05-24
_audit_creation_method            REPEAT_Assigner
_cell_length_a                    6.558690
_cell_length_b                    9.168285
_cell_length_c                    13.214533
_cell_angle_alpha                 100.905568
_cell_angle_beta                  100.617428
_cell_angle_gamma                 89.936731
_cell_volume                      766.437162
_symmetry_space_group_name_H-M    P1
_symmetry_Int_Tables_number       1
loop_
    _symmetry_equiv_pos_site_id
    _symmetry_equiv_pos_as_xyz
    1  x,y,z
loop_
    _atom_site_type_symbol
    _atom_site_label
    _atom_site_fract_x
    _atom_site_fract_y
    _atom_site_fract_z
    _atom_type_partial_charge
    C   C1   0.428934  0.094672  0.843050  -0.029464
    C   C2   0.571067  0.905328  0.156950  -0.029449
    H   H1   0.268399  0.113596  0.848768  0.133330
    H   H2   0.731602  0.886404  0.151232  0.133326
    C   C3   0.573458  0.087777  0.932478  -0.349644
    C   C4   0.426543  0.912223  0.067521  -0.349666
    H   H3   0.527086  0.106815  0.008143  0.170097
    H   H4   0.472915  0.893185  0.991856  0.170107
    C   C5   0.773940  0.048900  0.924259  0.328545
    C   C6   0.226061  0.951101  0.075741  0.328569
    C   C7   0.833235  0.032035  0.828481  -0.079836
    C   C8   0.166765  0.967966  0.171519  -0.079862
    H   H5   0.991663  0.005825  0.822140  0.029737
    H   H6   0.008338  0.994175  0.177860  0.029744
    C   C9   0.692239  0.047257  0.740199  0.003739
    C   C10  0.307762  0.952743  0.259801  0.003760
    C   C11  0.486546  0.070066  0.745865  -0.179310
    C   C12  0.513455  0.929934  0.254135  -0.179329
    N   N1   0.916922  0.023236  0.012411  -0.175885
    N   N2   0.083079  0.976764  0.987589  -0.175893
    O   O1   0.835789  0.900110  0.607924  -0.497913
    O   O2   0.164212  0.099890  0.392076  -0.497905
    O   O3   0.809990  0.151263  0.608766  -0.694084
    O   O4   0.190011  0.848738  0.391234  -0.694084
    C   C13  0.768217  0.030651  0.642474  0.669327
    C   C14  0.231784  0.969349  0.357526  0.669319
    O   O5   0.236912  0.161186  0.618694  -0.705353
    O   O6   0.763089  0.838815  0.381306  -0.705357
    O   O7   0.258993  0.907925  0.610330  -0.706937
    O   O8   0.741008  0.092075  0.389670  -0.706939
    C   C15  0.325256  0.045548  0.651032  0.851317
    C   C16  0.674745  0.954453  0.348968  0.851329
    Zn  Zn1  0.990741  0.163114  0.502430  0.929970
    Zn  Zn2  0.009260  0.836887  0.497570  0.929994
    C   C17  0.813376  0.449020  0.470564  -0.232175
    C   C18  0.186625  0.550980  0.529436  -0.232132
    C   C19  0.935790  0.526132  0.408558  -0.039306
    C   C20  0.064211  0.473869  0.591441  -0.039344
    H   H7   0.885033  0.549028  0.328439  0.070917
    H   H8   0.114968  0.450972  0.671561  0.070919
    H   H9   0.650614  0.405022  0.447316  0.132252
    H   H10  0.349387  0.594979  0.552684  0.132247
    N   N3   0.015895  0.645376  0.497673  0.280551
    N   N4   0.984106  0.354624  0.502327  0.280603
    C   C21  0.895719  0.574234  0.558658  0.164769
    C   C22  0.104282  0.425766  0.441342  0.164735
    C   C23  0.767279  0.662356  0.631503  -0.279679
    H   H11  0.689568  0.584923  0.668667  0.047928
    H   H12  0.869710  0.741877  0.693727  0.067724
    H   H13  0.647220  0.722077  0.586059  0.089360
    C   C24  0.232722  0.337644  0.368497  -0.279693
    H   H14  0.310433  0.415078  0.331333  0.047933
    H   H15  0.352781  0.277923  0.413941  0.089363
    H   H16  0.130291  0.258123  0.306273  0.067727
