# Generated by REPEAT Assigner based on pymatgen
data_DB0-m3_o11_o19_f0_pcu.sym.69
_audit_creation_date              2022-05-24
_audit_creation_method            REPEAT_Assigner
_cell_length_a                    11.894978
_cell_length_b                    11.137695
_cell_length_c                    9.944987
_cell_angle_alpha                 89.997375
_cell_angle_beta                  89.988945
_cell_angle_gamma                 89.995624
_cell_volume                      1317.538031
_symmetry_space_group_name_H-M    P1
_symmetry_Int_Tables_number       1
loop_
    _symmetry_equiv_pos_site_id
    _symmetry_equiv_pos_as_xyz
    1  x,y,z
loop_
    _atom_site_type_symbol
    _atom_site_label
    _atom_site_fract_x
    _atom_site_fract_y
    _atom_site_fract_z
    _atom_type_partial_charge
    O   O1   0.511262  0.333630  0.588783  -0.656881
    O   O2   0.506717  0.333935  0.357039  -0.650997
    C   C1   0.508787  0.277772  0.473131  0.731200
    O   O3   0.344859  0.512298  0.605622  -0.634469
    O   O4   0.338709  0.513025  0.373897  -0.677827
    C   C2   0.289505  0.512569  0.491292  0.883047
    Zn  Zn1  0.514301  0.511904  0.628131  1.079477
    Zn  Zn2  0.503226  0.513262  0.322045  1.019610
    O   O5   0.511527  0.691122  0.593672  -0.658824
    O   O6   0.506525  0.691903  0.360779  -0.651212
    O   O7   0.679006  0.512307  0.577022  -0.698400
    O   O8   0.672701  0.513109  0.344410  -0.730943
    C   C3   0.508865  0.747347  0.477542  0.721811
    C   C4   0.727986  0.512652  0.459147  0.997310
    C   C5   0.168866  0.512603  0.491283  -0.269916
    C   C6   0.067821  0.512641  0.482290  0.046856
    C   C7   0.949672  0.512680  0.467995  0.101679
    C   C8   0.848624  0.512689  0.459049  -0.340335
    C   C9   0.506663  0.945248  0.368671  -0.006815
    C   C10  0.509060  0.878898  0.481151  -0.286333
    H   H1   0.504537  0.900508  0.271978  0.093312
    H   H2   0.511236  0.918799  0.579917  0.159480
    C   C11  0.506666  0.078378  0.366932  -0.056109
    C   C12  0.508992  0.146317  0.477899  -0.264727
    H   H3   0.504583  0.121672  0.269396  0.111967
    H   H4   0.511089  0.107565  0.577221  0.160954
    C   C13  0.531989  0.603680  0.903995  0.121864
    N   N1   0.527800  0.510092  0.828635  -0.296106
    H   H5   0.530255  0.692228  0.859007  0.130132
    H   H6   0.546137  0.430100  0.875414  0.261893
    C   C14  0.547839  0.592712  0.051182  -0.142688
    N   N2   0.491760  0.516105  0.121071  0.091589
    H   H7   0.601954  0.656462  0.102047  0.191878
    O   O9   0.412901  0.460603  0.051288  -0.081630
    C   C15  0.326902  0.395724  0.107421  -0.023042
    C   C16  0.268772  0.326643  0.999638  0.055523
    C   C17  0.327490  0.241237  0.927647  -0.134653
    C   C18  0.274524  0.176649  0.827779  -0.092974
    C   C19  0.162722  0.197264  0.799633  -0.082182
    C   C20  0.103838  0.282429  0.871448  -0.054011
    C   C21  0.156636  0.347103  0.971415  -0.165732
    H   H8   0.265992  0.457772  0.154632  0.106442
    H   H9   0.360155  0.331406  0.181976  0.094690
    H   H10  0.415122  0.224512  0.949547  0.101709
    H   H11  0.320683  0.109764  0.771590  0.097909
    H   H12  0.121213  0.146615  0.721335  0.090190
    H   H13  0.016140  0.298534  0.849390  0.097426
    H   H14  0.109423  0.413608  0.026912  0.108856
