data_DB0-m3_o11_o29_f0_pcu.sym.4_repeat
_audit_creation_date              2024-02-20
_audit_creation_method            'Materials Studio'
_symmetry_space_group_name_H-M    'P1'
_symmetry_Int_Tables_number       1
_symmetry_cell_setting            triclinic
loop_
_symmetry_equiv_pos_as_xyz
  x,y,z
_cell_length_a                    27.5612
_cell_length_b                    11.1182
_cell_length_c                    9.9275
_cell_angle_alpha                 89.9974
_cell_angle_beta                  89.9930
_cell_angle_gamma                 89.9936
loop_
_atom_site_label
_atom_site_type_symbol
_atom_site_fract_x
_atom_site_fract_y
_atom_site_fract_z
_atom_site_U_iso_or_equiv
_atom_site_adp_type
_atom_site_occupancy
O1     O     0.49767   0.32191   0.61436   0.00000  Uiso   1.00
O2     O     0.49325   0.32082   0.38249   0.00000  Uiso   1.00
C1     C     0.49384   0.26540   0.49916   0.00000  Uiso   1.00
O3     O     0.43057   0.51302   0.62850   0.00000  Uiso   1.00
O4     O     0.42572   0.51040   0.39643   0.00000  Uiso   1.00
C2     C     0.40550   0.51490   0.51590   0.00000  Uiso   1.00
Zn1    Zn    0.50355   0.50066   0.64979   0.00000  Uiso   1.00
Zn2    Zn    0.49657   0.49964   0.34383   0.00000  Uiso   1.00
O5     O     0.50808   0.67919   0.61127   0.00000  Uiso   1.00
O6     O     0.50159   0.67879   0.37905   0.00000  Uiso   1.00
O7     O     0.57434   0.48738   0.59721   0.00000  Uiso   1.00
O8     O     0.56960   0.48956   0.36512   0.00000  Uiso   1.00
C3     C     0.50620   0.73485   0.49487   0.00000  Uiso   1.00
C4     C     0.59459   0.48480   0.47770   0.00000  Uiso   1.00
C5     C     0.17772   0.40439   0.51917   0.00000  Uiso   1.00
O9     O     0.20422   0.30340   0.50841   0.00000  Uiso   1.00
N1     N     0.20032   0.51065   0.53550   0.00000  Uiso   1.00
C6     C     0.17461   0.61300   0.54713   0.00000  Uiso   1.00
C7     C     0.27833   0.54132   0.64615   0.00000  Uiso   1.00
C8     C     0.32845   0.54141   0.64196   0.00000  Uiso   1.00
C9     C     0.32565   0.49376   0.40741   0.00000  Uiso   1.00
C10    C     0.27577   0.49146   0.41256   0.00000  Uiso   1.00
C11    C     0.25196   0.51512   0.53163   0.00000  Uiso   1.00
C12    C     0.10056   0.50268   0.52271   0.00000  Uiso   1.00
C13    C     0.12762   0.39891   0.51414   0.00000  Uiso   1.00
C14    C     0.10457   0.29037   0.49752   0.00000  Uiso   1.00
C15    C     0.12445   0.61042   0.53957   0.00000  Uiso   1.00
C16    C     0.35235   0.51768   0.52229   0.00000  Uiso   1.00
H1     H     0.34327   0.47413   0.31270   0.00000  Uiso   1.00
H2     H     0.25527   0.47135   0.32249   0.00000  Uiso   1.00
H3     H     0.12486   0.20768   0.48782   0.00000  Uiso   1.00
C17    C     0.64768   0.47888   0.47124   0.00000  Uiso   1.00
C18    C     0.97598   0.38487   0.50187   0.00000  Uiso   1.00
C19    C     0.97356   0.60139   0.49335   0.00000  Uiso   1.00
C20    C     0.94983   0.49125   0.49222   0.00000  Uiso   1.00
C21    C     0.95047   0.27699   0.51129   0.00000  Uiso   1.00
C22    C     0.90072   0.27480   0.50519   0.00000  Uiso   1.00
C23    C     0.87505   0.37971   0.48870   0.00000  Uiso   1.00
C24    C     0.89952   0.48747   0.48182   0.00000  Uiso   1.00
C25    C     0.87307   0.59147   0.46528   0.00000  Uiso   1.00
C26    C     0.82300   0.58645   0.45586   0.00000  Uiso   1.00
N2     N     0.79980   0.48027   0.46524   0.00000  Uiso   1.00
C27    C     0.82492   0.37753   0.48178   0.00000  Uiso   1.00
C28    C     0.72374   0.44778   0.58221   0.00000  Uiso   1.00
C29    C     0.67381   0.44960   0.58554   0.00000  Uiso   1.00
C30    C     0.67211   0.50597   0.35336   0.00000  Uiso   1.00
C31    C     0.72222   0.50644   0.35109   0.00000  Uiso   1.00
C32    C     0.74811   0.47733   0.46560   0.00000  Uiso   1.00
O10    O     0.80095   0.27257   0.49039   0.00000  Uiso   1.00
C33    C     0.02674   0.38873   0.50298   0.00000  Uiso   1.00
C34    C     0.05023   0.49882   0.51332   0.00000  Uiso   1.00
C35    C     0.02382   0.60513   0.51355   0.00000  Uiso   1.00
C36    C     0.05485   0.28498   0.49243   0.00000  Uiso   1.00
H4     H     0.65565   0.42756   0.67879   0.00000  Uiso   1.00
H5     H     0.74381   0.42571   0.67245   0.00000  Uiso   1.00
H6     H     0.88250   0.18911   0.51375   0.00000  Uiso   1.00
H7     H     0.96754   0.19146   0.52871   0.00000  Uiso   1.00
H8     H     0.03991   0.19712   0.47464   0.00000  Uiso   1.00
O11    O     0.19805   0.71817   0.56155   0.00000  Uiso   1.00
C37    C     0.09810   0.71507   0.54825   0.00000  Uiso   1.00
H9     H     0.34855   0.56063   0.73290   0.00000  Uiso   1.00
H10    H     0.25981   0.55955   0.73997   0.00000  Uiso   1.00
H11    H     0.11570   0.80068   0.56446   0.00000  Uiso   1.00
C38    C     0.94628   0.70528   0.47265   0.00000  Uiso   1.00
C39    C     0.89676   0.70005   0.45850   0.00000  Uiso   1.00
O12    O     0.79709   0.68806   0.44178   0.00000  Uiso   1.00
C40    C     0.04851   0.71281   0.53513   0.00000  Uiso   1.00
H12    H     0.96202   0.79323   0.46211   0.00000  Uiso   1.00
H13    H     0.65245   0.52994   0.26309   0.00000  Uiso   1.00
H14    H     0.87711   0.78295   0.44273   0.00000  Uiso   1.00
H15    H     0.74114   0.52953   0.25925   0.00000  Uiso   1.00
H16    H     0.03061   0.79807   0.54695   0.00000  Uiso   1.00
C41    C     0.49471   0.93399   0.39442   0.00000  Uiso   1.00
C42    C     0.51047   0.86613   0.49651   0.00000  Uiso   1.00
H17    H     0.48144   0.89121   0.30353   0.00000  Uiso   1.00
H18    H     0.52711   0.90678   0.58405   0.00000  Uiso   1.00
C43    C     0.49852   0.06647   0.39587   0.00000  Uiso   1.00
C44    C     0.48838   0.13440   0.50397   0.00000  Uiso   1.00
H19    H     0.50884   0.11002   0.30252   0.00000  Uiso   1.00
C45    C     0.49486   0.58927   0.92382   0.00000  Uiso   1.00
N3     N     0.50999   0.50173   0.85048   0.00000  Uiso   1.00
H20    H     0.47611   0.66411   0.87708   0.00000  Uiso   1.00
C46    C     0.50280   0.59100   0.07059   0.00000  Uiso   1.00
N4     N     0.49128   0.49961   0.14285   0.00000  Uiso   1.00
H21    H     0.51445   0.67360   0.11847   0.00000  Uiso   1.00
H22    H     0.47516   0.42969   0.09182   0.00000  Uiso   1.00
Cl1    Cl    0.46361   0.07413   0.65275   0.00000  Uiso   1.00
Cl2    Cl    0.55365   0.40935   0.92050   0.00000  Uiso   1.00
