# Generated by REPEAT Assigner based on pymatgen
data_DB0-m2_o7_o24_f0_pcu.sym.66
_audit_creation_date              2022-05-24
_audit_creation_method            REPEAT_Assigner
_cell_length_a                    17.767345
_cell_length_b                    16.269890
_cell_length_c                    10.783048
_cell_angle_alpha                 90.000000
_cell_angle_beta                  90.010837
_cell_angle_gamma                 90.000000
_cell_volume                      3117.085143
_symmetry_space_group_name_H-M    P1
_symmetry_Int_Tables_number       1
loop_
    _symmetry_equiv_pos_site_id
    _symmetry_equiv_pos_as_xyz
    1  x,y,z
loop_
    _atom_site_type_symbol
    _atom_site_label
    _atom_site_fract_x
    _atom_site_fract_y
    _atom_site_fract_z
    _atom_type_partial_charge
    O   O1   0.387463  0.574316  0.501044  -0.418435
    O   O2   0.605940  0.434105  0.498143  -0.445448
    O   O3   0.606124  0.574437  0.495834  -0.392031
    O   O4   0.387104  0.434238  0.504402  -0.461590
    C   C1   0.350730  0.504446  0.496808  0.496687
    C   C2   0.642254  0.504315  0.489188  0.456087
    O   O5   0.497783  0.573361  0.314634  -0.635376
    O   O6   0.495823  0.435024  0.677771  -0.482102
    O   O7   0.500937  0.576104  0.675162  -0.620398
    O   O8   0.492006  0.432547  0.317296  -0.566938
    C   C3   0.494316  0.502418  0.257706  0.798940
    C   C4   0.499097  0.506049  0.735017  0.627879
    Cu  Cu1  0.497046  0.586282  0.494834  0.696592
    Cu  Cu2  0.496329  0.422253  0.497660  0.738199
    C   C5   0.437697  0.543080  0.036472  -0.231323
    C   C6   0.557403  0.465154  0.956622  0.265032
    C   C7   0.500034  0.581141  0.959320  -0.082712
    C   C8   0.495145  0.427053  0.033989  -0.139370
    C   C9   0.437064  0.468660  0.951799  0.531143
    C   C10  0.557707  0.539517  0.041793  -0.081658
    C   C11  0.499257  0.506666  0.874080  -0.182388
    C   C12  0.495413  0.501592  0.118826  0.144184
    C   C13  0.842466  0.563715  0.564338  -0.076992
    C   C14  0.151280  0.424522  0.523232  -0.117126
    C   C15  0.146770  0.571236  0.543231  -0.336525
    C   C16  0.843720  0.426661  0.483294  -0.050715
    C   C17  0.768274  0.573280  0.525270  -0.010520
    C   C18  0.226691  0.429104  0.488196  0.012965
    C   C19  0.223802  0.576505  0.517351  -0.088040
    C   C20  0.766462  0.431783  0.459120  -0.236528
    C   C21  0.726779  0.503872  0.488745  0.024594
    C   C22  0.265982  0.503923  0.498899  -0.019799
    C   C23  0.880894  0.492297  0.536878  0.033998
    C   C24  0.111124  0.495703  0.544522  0.159473
    C   C25  0.961966  0.491147  0.547071  0.049027
    C   C26  0.029952  0.492310  0.549436  -0.072015
    C   C27  0.542510  0.835499  0.573718  -0.123647
    C   C28  0.452855  0.173872  0.413814  -0.128356
    C   C29  0.452132  0.834945  0.410492  -0.058103
    C   C30  0.544081  0.172864  0.575685  -0.052538
    C   C31  0.540620  0.750631  0.573465  0.034785
    C   C32  0.452840  0.258747  0.417896  0.037559
    C   C33  0.452492  0.749979  0.412656  -0.096159
    C   C34  0.542918  0.257770  0.575552  0.028813
    H   H1   0.575904  0.717138  0.636978  0.152842
    H   H2   0.417353  0.293156  0.355652  0.158378
    H   H3   0.417434  0.715612  0.349450  0.181615
    H   H4   0.578867  0.291404  0.637878  0.113038
    N   N1   0.496979  0.709206  0.492505  -0.022863
    N   N2   0.496390  0.299319  0.499679  -0.110080
    C   C35  0.497832  0.878467  0.491241  0.067449
    C   C36  0.498337  0.130109  0.494283  0.059980
    C   C37  0.498278  0.967153  0.490883  0.003494
    C   C38  0.498502  0.041423  0.492061  0.024342
    C   C39  0.365672  0.428966  0.902486  0.076758
    O   O9   0.383782  0.360197  0.831357  -0.645899
    H   H5   0.334676  0.473917  0.844400  -0.011110
    H   H6   0.329758  0.409738  0.981343  -0.004805
    H   H7   0.336746  0.346543  0.786653  0.392207
    C   C40  0.627698  0.580013  0.094925  0.273348
    O   O10  0.664169  0.525657  0.174671  -0.515304
    H   H8   0.611609  0.636177  0.146768  0.004928
    H   H9   0.666555  0.596920  0.018665  -0.048448
    H   H10  0.718373  0.534592  0.158279  0.320409
    C   C41  0.368355  0.588992  0.081057  0.143425
    O   O11  0.322924  0.536561  0.150525  -0.587273
    H   H11  0.336135  0.611920  0.000020  0.006301
    H   H12  0.385763  0.641611  0.139671  0.014568
    H   H13  0.276198  0.568360  0.164641  0.356262
    C   C42  0.628797  0.422758  0.913238  0.187726
    O   O12  0.610559  0.350945  0.849823  -0.562339
    H   H14  0.664174  0.407008  0.994572  -0.058563
    H   H15  0.660696  0.464398  0.851048  -0.040706
    H   H16  0.647887  0.310093  0.878906  0.375555
    C   C43  0.500959  0.671909  0.925809  0.299845
    O   O13  0.572001  0.695767  0.883780  -0.595231
    H   H17  0.487315  0.707973  0.010067  -0.002917
    H   H18  0.458069  0.684616  0.853661  -0.019472
    H   H19  0.592225  0.647871  0.838258  0.347169
    C   C44  0.491509  0.337300  0.072461  0.168837
    O   O14  0.554906  0.316979  0.142226  -0.521678
    H   H20  0.489830  0.297898  0.988656  0.008929
    H   H21  0.439996  0.326405  0.128034  -0.017245
    H   H22  0.566592  0.259701  0.117863  0.329472
    C   C45  0.881809  0.628525  0.639664  0.201765
    O   O15  0.915076  0.592970  0.743900  -0.606779
    H   H23  0.842077  0.675293  0.674927  0.003172
    H   H24  0.925190  0.659501  0.582633  0.052470
    H   H25  0.879355  0.604299  0.812289  0.388723
    C   C46  0.112126  0.343559  0.543365  0.323801
    O   O16  0.077150  0.343406  0.659180  -0.607810
    H   H26  0.151705  0.291069  0.543350  -0.030265
    H   H27  0.069581  0.333304  0.469818  0.017059
    H   H28  0.114524  0.317821  0.715267  0.370202
    C   C47  0.101093  0.645800  0.577459  0.534046
    O   O17  0.062430  0.675133  0.473751  -0.617721
    H   H29  0.136015  0.695397  0.617798  -0.085149
    H   H30  0.060559  0.630375  0.651890  -0.006289
    H   H31  0.086821  0.648246  0.401870  0.335604
    C   C48  0.888607  0.350255  0.456203  0.321212
    O   O18  0.931259  0.361578  0.348944  -0.628021
    H   H32  0.853241  0.294904  0.444971  -0.048186
    H   H33  0.926093  0.335697  0.535402  0.003249
    H   H34  0.921011  0.312070  0.298239  0.383197
    C   C49  0.738895  0.659085  0.504007  0.189028
    O   O19  0.707493  0.664916  0.385711  -0.560878
    H   H35  0.784243  0.705565  0.506561  0.008528
    H   H36  0.697144  0.675653  0.575806  0.000406
    H   H37  0.747684  0.689797  0.334372  0.352418
    C   C50  0.259594  0.358501  0.415589  0.190777
    O   O20  0.298703  0.388439  0.313013  -0.538089
    H   H38  0.215141  0.318082  0.377587  -0.020988
    H   H39  0.296754  0.320393  0.474761  -0.009746
    H   H40  0.272345  0.364340  0.240780  0.380186
    C   C51  0.256906  0.660157  0.491141  0.439649
    O   O21  0.294370  0.690321  0.595587  -0.597638
    H   H41  0.214291  0.705380  0.460613  -0.044131
    H   H42  0.295167  0.656957  0.410427  -0.034871
    H   H43  0.274319  0.658022  0.666044  0.342826
    C   C52  0.730572  0.366432  0.379934  0.577739
    O   O22  0.708446  0.299576  0.452593  -0.616023
    H   H44  0.770521  0.345822  0.307515  -0.061706
    H   H45  0.682029  0.390338  0.326854  -0.048834
    H   H46  0.718375  0.316538  0.539262  0.306083
    C   C53  0.593763  0.879222  0.661870  0.275737
    O   O23  0.649763  0.920424  0.596006  -0.565199
    H   H47  0.621108  0.834622  0.725169  -0.025196
    H   H48  0.561748  0.923288  0.719830  0.040766
    H   H49  0.694575  0.884573  0.603384  0.341049
    C   C54  0.404017  0.130583  0.322510  0.265027
    O   O24  0.448515  0.088429  0.237096  -0.545457
    H   H50  0.368870  0.175688  0.271924  -0.048985
    H   H51  0.366071  0.087030  0.370899  0.024646
    H   H52  0.449247  0.124361  0.163040  0.349327
    C   C55  0.402606  0.878752  0.320921  0.351452
    O   O25  0.346962  0.921601  0.385194  -0.577013
    H   H53  0.375401  0.834110  0.257539  -0.070079
    H   H54  0.436437  0.921775  0.264039  -0.004957
    H   H55  0.301480  0.886881  0.377175  0.358611
    C   C56  0.594890  0.128728  0.663876  0.284829
    O   O26  0.551990  0.086211  0.751066  -0.584937
    H   H56  0.631542  0.173127  0.713393  -0.034315
    H   H57  0.632030  0.085574  0.613102  0.016828
    H   H58  0.556047  0.119573  0.827566  0.356777
