# generated using pymatgen
data_ZnH8C16NO4
_symmetry_space_group_name_H-M   'P 1'
_cell_length_a   8.53287400
_cell_length_b   12.95717600
_cell_length_c   14.38865600
_cell_angle_alpha   90.95084000
_cell_angle_beta   90.07213700
_cell_angle_gamma   95.34836100
_symmetry_Int_Tables_number   1
_chemical_formula_structural   ZnH8C16NO4
_chemical_formula_sum   'Zn2 H16 C32 N2 O8'
_cell_volume   1583.68756750
_cell_formula_units_Z   2
loop_
 _symmetry_equiv_pos_site_id
 _symmetry_equiv_pos_as_xyz
  1  'x, y, z'
loop_
 _atom_site_type_symbol
 _atom_site_label
 _atom_site_symmetry_multiplicity
 _atom_site_fract_x
 _atom_site_fract_y
 _atom_site_fract_z
 _atom_site_occupancy
  Zn  Zn1  1  0.56301300  0.50960700  0.89574100  1
  Zn  Zn2  1  0.55851100  0.48544400  0.10143200  1
  H  H1  1  0.62614500  0.17021200  0.99642800  1
  H  H2  1  0.60353100  0.98321100  0.00930700  1
  H  H3  1  0.07083000  0.56840700  0.04029600  1
  H  H4  1  0.36053900  0.84589600  0.99269500  1
  H  H5  1  0.24778500  0.00132700  0.98556700  1
  H  H6  1  0.71708000  0.82461100  0.01383500  1
  H  H7  1  0.26941500  0.15824900  0.00554400  1
  H  H8  1  0.04570800  0.42615900  0.95394300  1
  H  H9  1  0.54315900  0.34530800  0.59150700  1
  H  H10  1  0.53998300  0.33265600  0.42125300  1
  H  H11  1  0.58334000  0.67386900  0.57725400  1
  H  H12  1  0.68573900  0.65989400  0.26550200  1
  H  H13  1  0.46802000  0.65733200  0.26701000  1
  H  H14  1  0.59046400  0.77647700  0.26982400  1
  H  H15  1  0.48525100  0.74018400  0.42315000  1
  H  H16  1  0.69531800  0.74158000  0.42177800  1
  C  C1  1  0.01387000  0.13258200  0.99292100  1
  C  C2  1  0.87862000  0.18512100  0.99035000  1
  C  C3  1  0.73224000  0.13080900  0.99765200  1
  C  C4  1  0.71910100  0.02462900  0.00453400  1
  C  C5  1  0.85144800  0.97117000  0.00360900  1
  C  C6  1  0.99974100  0.02417300  0.99792900  1
  C  C7  1  0.83384800  0.86413800  0.00853400  1
  C  C8  1  0.96429200  0.80863500  0.01012300  1
  C  C9  1  0.11239000  0.86057900  0.00309500  1
  C  C10  1  0.12976600  0.96681300  0.99494000  1
  C  C11  1  0.94973400  0.70200500  0.02016600  1
  C  C12  1  0.08252300  0.65076900  0.02967000  1
  C  C13  1  0.22939600  0.70128000  0.01753200  1
  C  C14  1  0.24473100  0.80629800  0.00253500  1
  C  C15  1  0.16003100  0.19046700  0.99301100  1
  C  C16  1  0.17027600  0.29513100  0.97769700  1
  C  C17  1  0.03648800  0.34400900  0.96564100  1
  C  C18  1  0.89118100  0.29180300  0.97868500  1
  C  C19  1  0.79966700  0.63826900  0.01312000  1
  C  C20  1  0.75776600  0.35503600  0.98534700  1
  C  C21  1  0.32049100  0.35821500  0.98433500  1
  C  C22  1  0.36293900  0.63900100  0.01155900  1
  C  C23  1  0.54951300  0.40803200  0.45521900  1
  C  C24  1  0.55975400  0.49626200  0.40226200  1
  C  C25  1  0.57216000  0.59388100  0.44620700  1
  C  C26  1  0.57385800  0.59906800  0.54224400  1
  C  C27  1  0.56357200  0.51062900  0.59429200  1
  C  C28  1  0.55134400  0.41494800  0.55077000  1
  C  C29  1  0.55747100  0.48236600  0.30307400  1
  C  C30  1  0.56505500  0.51785700  0.69393200  1
  C  C31  1  0.58427000  0.69710500  0.39883100  1
  C  C32  1  0.58166100  0.69510900  0.29344300  1
  N  N1  1  0.56570400  0.52133200  0.77433600  1
  N  N2  1  0.55614800  0.47386300  0.22285600  1
  O  O1  1  0.74384300  0.59244700  0.08821400  1
  O  O2  1  0.74218600  0.61607000  0.92972000  1
  O  O3  1  0.71581700  0.40129500  0.91008000  1
  O  O4  1  0.70600600  0.37766800  0.06853800  1
  O  O5  1  0.37710900  0.40303700  0.90886700  1
  O  O6  1  0.37922800  0.37908400  0.06761100  1
  O  O7  1  0.40521000  0.59341900  0.08713400  1
  O  O8  1  0.41560300  0.61734500  0.92850300  1
