# Generated by REPEAT Assigner based on pymatgen
data_DB0-m2_o9_o15_f0_nbo.sym.23
_audit_creation_date              2022-05-24
_audit_creation_method            REPEAT_Assigner
_cell_length_a                    18.576979
_cell_length_b                    18.940904
_cell_length_c                    18.777991
_cell_angle_alpha                 110.041146
_cell_angle_beta                  109.255624
_cell_angle_gamma                 109.075624
_cell_volume                      5088.593903
_symmetry_space_group_name_H-M    P1
_symmetry_Int_Tables_number       1
loop_
    _symmetry_equiv_pos_site_id
    _symmetry_equiv_pos_as_xyz
    1  x,y,z
loop_
    _atom_site_type_symbol
    _atom_site_label
    _atom_site_fract_x
    _atom_site_fract_y
    _atom_site_fract_z
    _atom_type_partial_charge
    O   O1    0.911929  0.960525  0.363854  -0.621290
    O   O2    0.912181  0.058385  0.478230  -0.614238
    C   C1    0.881372  0.010029  0.394212  0.772635
    O   O3    0.924172  0.862733  0.447545  -0.612074
    O   O4    0.916017  0.961437  0.553161  -0.579953
    C   C2    0.891883  0.881288  0.499627  0.772019
    Cu  Cu1   0.005399  0.948861  0.436363  0.964220
    Cu  Cu2   0.007111  0.063083  0.568697  0.946859
    O   O5    0.103746  0.957533  0.526726  -0.614671
    O   O6    0.096724  0.047016  0.640823  -0.600641
    O   O7    0.092500  0.050750  0.448360  -0.556427
    O   O8    0.092738  0.149501  0.561532  -0.499318
    C   C3    0.130254  0.000699  0.610109  0.817148
    C   C4    0.121782  0.130979  0.506677  0.587243
    H   H1    0.668496  0.644367  0.201674  0.102309
    C   C5    0.909829  0.884112  0.658560  -0.116602
    C   C6    0.913646  0.896297  0.736461  -0.166357
    C   C7    0.843222  0.843036  0.736703  0.023942
    C   C8    0.771194  0.773997  0.659192  -0.338464
    C   C9    0.768378  0.757773  0.579843  0.288894
    C   C10   0.835179  0.817587  0.579031  0.123349
    C   C11   0.699420  0.683288  0.501945  -0.403934
    C   C12   0.696112  0.670901  0.423169  0.277635
    C   C13   0.756179  0.736199  0.421228  0.159253
    C   C14   0.827178  0.810048  0.499618  -0.314150
    C   C15   0.632789  0.593195  0.345513  -0.268294
    C   C16   0.623725  0.583459  0.266652  -0.109999
    C   C17   0.677066  0.650923  0.263839  -0.070470
    C   C18   0.742854  0.726350  0.340109  -0.235176
    H   H2    0.967984  0.927202  0.662919  0.114857
    H   H3    0.971688  0.948818  0.797506  0.106329
    H   H4    0.845091  0.854113  0.797878  0.074288
    H   H5    0.717793  0.734589  0.663612  0.192917
    H   H6    0.589532  0.537491  0.343618  0.148141
    H   H7    0.573611  0.523163  0.206856  0.122417
    H   H8    0.781811  0.776378  0.332714  0.179959
    H   H9    0.377822  0.608615  0.006021  0.167986
    C   C19   0.433239  0.740932  0.100972  -0.043305
    H   H10   0.374060  0.731037  0.104415  0.117030
    C   C20   0.506707  0.822112  0.152019  -0.198007
    H   H11   0.505093  0.875527  0.195925  0.109539
    C   C21   0.582157  0.835397  0.146987  0.133822
    C   C22   0.584853  0.765854  0.093850  -0.223513
    H   H12   0.644528  0.774823  0.091837  0.129444
    C   C23   0.511380  0.684683  0.042841  0.394817
    C   C24   0.435382  0.672295  0.045961  -0.319221
    C   C25   0.732647  0.928332  0.268009  0.206224
    C   C26   0.807174  0.007478  0.330269  -0.131787
    C   C27   0.808736  0.081115  0.330482  -0.057909
    C   C28   0.740325  0.073562  0.264167  -0.108759
    H   H13   0.745792  0.131768  0.263292  0.108310
    C   C29   0.667356  0.994161  0.198944  -0.127557
    C   C30   0.661379  0.920977  0.204538  0.034080
    C   C31   0.868295  0.230905  0.441384  -0.176951
    H   H14   0.804005  0.213977  0.434709  0.107895
    C   C32   0.934785  0.315741  0.494621  -0.126285
    H   H15   0.922817  0.364951  0.530026  0.119907
    C   C33   0.015857  0.338054  0.500900  -0.059076
    H   H16   0.067303  0.404993  0.540949  0.082910
    C   C34   0.030823  0.275201  0.455318  -0.147315
    H   H17   0.094043  0.292519  0.459552  0.155372
    C   C35   0.964585  0.190240  0.402536  -0.167587
    H   H18   0.975898  0.142040  0.364324  0.109852
    C   C36   0.883030  0.167928  0.395392  0.245043
    H   H19   0.000080  0.730829  0.603292  0.096203
    C   C37   0.312165  0.116268  0.688939  -0.262047
    C   C38   0.396367  0.185011  0.738012  -0.053141
    C   C39   0.453538  0.196406  0.814676  -0.109506
    C   C40   0.429296  0.135078  0.838262  -0.203722
    C   C41   0.347118  0.060388  0.784480  0.305193
    C   C42   0.285702  0.056387  0.714403  0.162553
    C   C43   0.324152  0.991487  0.800502  -0.569539
    C   C44   0.238979  0.920084  0.744841  0.358804
    C   C45   0.175122  0.924093  0.684437  0.079208
    C   C46   0.198100  0.993886  0.671051  -0.236630
    C   C47   0.216473  0.843312  0.746881  -0.332601
    C   C48   0.131210  0.776226  0.696786  -0.055841
    C   C49   0.067132  0.783515  0.642581  -0.100546
    C   C50   0.088981  0.856261  0.635182  -0.192272
    H   H20   0.268307  0.110482  0.629991  0.125173
    H   H21   0.416156  0.231998  0.718213  0.096607
    H   H22   0.518144  0.253111  0.856150  0.103340
    H   H23   0.476145  0.149642  0.900669  0.158531
    H   H24   0.264366  0.831734  0.784596  0.186808
    H   H25   0.114826  0.717441  0.699780  0.107455
    H   H26   0.036927  0.856880  0.588456  0.138613
    O   O9    0.460740  0.415074  0.359620  -0.524584
    O   O10   0.558346  0.408208  0.466793  -0.464568
    C   C51   0.508792  0.381247  0.384249  0.499558
    O   O11   0.547689  0.593179  0.451432  -0.567217
    O   O12   0.652000  0.585907  0.552493  -0.623155
    C   C52   0.629748  0.617856  0.502284  0.795502
    Cu  Cu3   0.447660  0.502242  0.438810  0.880142
    Cu  Cu4   0.568422  0.501580  0.563376  0.953392
    O   O13   0.456069  0.594165  0.535329  -0.519363
    O   O14   0.556704  0.589836  0.642942  -0.579199
    O   O15   0.363977  0.416327  0.448064  -0.500120
    O   O16   0.468463  0.411924  0.552283  -0.590026
    C   C53   0.504644  0.619831  0.617677  0.614235
    C   C54   0.386432  0.384938  0.498694  0.667603
    O   O17   0.452326  0.029447  0.096480  -0.606222
    O   O18   0.526879  0.129463  0.065316  -0.619395
    C   C55   0.487432  0.108170  0.107837  0.723543
    O   O19   0.523937  0.923437  0.070916  -0.518819
    O   O20   0.629815  0.059918  0.114040  -0.587786
    C   C56   0.603432  0.991980  0.124616  0.732678
    Cu  Cu5   0.431514  0.933170  0.994132  0.898030
    Cu  Cu6   0.561013  0.051688  0.004265  0.940903
    O   O21   0.431485  0.855875  0.893479  -0.602880
    O   O22   0.574685  0.955279  0.941508  -0.543893
    O   O23   0.359887  0.962071  0.919221  -0.607014
    O   O24   0.471183  0.024108  0.892747  -0.661335
    C   C57   0.505204  0.876847  0.890083  0.694301
    C   C58   0.388282  0.992977  0.874422  0.954556
    C   C59   0.377264  0.271441  0.979114  -0.210082
    H   H27   0.394104  0.324713  0.966893  0.143474
    C   C60   0.430280  0.282117  0.057817  -0.175933
    H   H28   0.488170  0.344235  0.107268  0.119783
    C   C61   0.408857  0.214381  0.074006  0.099468
    C   C62   0.333866  0.135790  0.010541  -0.048129
    H   H29   0.314734  0.082924  0.023009  0.120821
    C   C63   0.280300  0.125598  0.932351  -0.302955
    H   H30   0.220904  0.064496  0.883498  0.161126
    C   C64   0.301722  0.193511  0.916804  0.341534
    C   C65   0.466330  0.295900  0.231062  -0.120138
    H   H31   0.438990  0.335080  0.217409  0.116090
    C   C66   0.505569  0.310466  0.315312  0.027672
    C   C67   0.538525  0.257207  0.330056  -0.035373
    C   C68   0.529926  0.191164  0.260594  -0.098913
    H   H32   0.555711  0.150182  0.272131  0.092993
    C   C69   0.490061  0.176805  0.176976  -0.052641
    C   C70   0.458294  0.229960  0.162026  0.003615
    C   C71   0.670002  0.287867  0.452660  -0.131831
    H   H33   0.705913  0.300103  0.419199  0.087326
    C   C72   0.711733  0.294036  0.532160  -0.116160
    H   H34   0.780111  0.311176  0.560827  0.113457
    C   C73   0.666262  0.278134  0.575001  -0.137219
    H   H35   0.698975  0.282915  0.637292  0.110566
    C   C74   0.578895  0.255592  0.538072  -0.083041
    H   H36   0.543007  0.242607  0.571350  0.090816
    C   C75   0.537171  0.249410  0.458585  -0.126448
    H   H37   0.468841  0.231694  0.429949  0.107845
    C   C76   0.582942  0.266964  0.416263  0.143593
    H   H38   0.271843  0.114981  0.135778  0.050323
    C   C77   0.248249  0.204024  0.217626  -0.125575
    H   H39   0.230738  0.227808  0.173530  0.092683
    C   C78   0.246575  0.236268  0.294590  -0.130876
    H   H40   0.225370  0.283576  0.309245  0.111647
    C   C79   0.269441  0.206396  0.351343  0.134462
    C   C80   0.289703  0.141047  0.328404  -0.113890
    H   H41   0.305278  0.115541  0.371249  0.085956
    C   C81   0.291622  0.108995  0.251574  -0.135899
    H   H42   0.308843  0.058753  0.234486  0.098006
    C   C82   0.271066  0.140616  0.196293  -0.014999
    C   C83   0.202829  0.177280  0.437489  -0.112442
    H   H43   0.162609  0.111837  0.382814  0.112538
    C   C84   0.190052  0.200916  0.508929  -0.014859
    C   C85   0.241422  0.287999  0.576426  0.031136
    C   C86   0.306215  0.345074  0.571521  -0.152605
    H   H44   0.348335  0.411341  0.624581  0.097595
    C   C87   0.316961  0.320703  0.499468  0.003459
    C   C88   0.263001  0.236465  0.430759  -0.027609
    C   C89   0.213723  0.396403  0.661914  -0.310455
    H   H45   0.209132  0.418638  0.615621  0.172967
    C   C90   0.205534  0.438223  0.732493  0.377671
    C   C91   0.213739  0.412526  0.793593  -0.298784
    H   H46   0.207891  0.445585  0.849296  0.175292
    C   C92   0.231541  0.345899  0.784556  -0.104455
    H   H47   0.240292  0.327043  0.833630  0.124733
    C   C93   0.239559  0.304022  0.713794  0.097075
    C   C94   0.227732  0.326894  0.650113  0.101413
    H   H48   0.123805  0.489387  0.375459  0.161675
    C   C95   0.224370  0.618997  0.474485  -0.012484
    H   H49   0.193813  0.647693  0.442976  0.114430
    C   C96   0.303186  0.671111  0.551915  -0.243240
    H   H50   0.334262  0.740587  0.580382  0.121475
    C   C97   0.343124  0.634804  0.591968  0.232615
    C   C98   0.302023  0.546015  0.555386  -0.421829
    H   H51   0.331621  0.517169  0.587310  0.174925
    C   C99   0.224003  0.493914  0.477134  0.509021
    C   C100  0.185083  0.530335  0.436716  -0.355959
    C   C101  0.430077  0.752838  0.743080  -0.132674
    H   H52   0.370929  0.756051  0.734098  0.119869
    C   C102  0.507141  0.811167  0.821782  -0.130896
    C   C103  0.583540  0.808526  0.831171  0.287571
    C   C104  0.579626  0.744476  0.763967  -0.257293
    H   H53   0.638911  0.741589  0.772849  0.150225
    C   C105  0.502479  0.685673  0.685566  0.002095
    C   C106  0.427056  0.691409  0.674298  0.009680
    C   C107  0.738910  0.920700  0.907347  0.506895
    C   C108  0.820289  0.975916  0.981614  -0.489212
    H   H54   0.874669  0.016243  0.978670  0.216486
    C   C109  0.832416  0.979547  0.059501  0.470190
    C   C110  0.763116  0.927936  0.063104  -0.391511
    H   H55   0.773028  0.930202  0.123998  0.184303
    C   C111  0.681525  0.873123  0.989010  0.062892
    H   H56   0.627353  0.832374  0.991681  0.063753
    C   C112  0.668997  0.869606  0.911002  -0.310528
    F   F1    0.514060  0.616933  0.989980  -0.238255
    F   F2    0.727331  0.857042  0.272112  -0.180149
    F   F3    0.248379  0.183729  0.840418  -0.181207
    F   F4    0.190383  0.505308  0.742214  -0.226513
    F   F5    0.260780  0.241653  0.708380  -0.087294
    F   F6    0.186118  0.406790  0.439286  -0.260829
    F   F7    0.727529  0.918130  0.831214  -0.231052
    F   F8    0.912502  0.033533  0.132408  -0.231823
