# generated using pymatgen
data_Fe2H21C48N5O16
_symmetry_space_group_name_H-M   'P 1'
_cell_length_a   9.39272400
_cell_length_b   16.10525200
_cell_length_c   19.13533500
_cell_angle_alpha   104.02148300
_cell_angle_beta   84.59601700
_cell_angle_gamma   82.53250900
_symmetry_Int_Tables_number   1
_chemical_formula_structural   Fe2H21C48N5O16
_chemical_formula_sum   'Fe2 H21 C48 N5 O16'
_cell_volume   2760.71758960
_cell_formula_units_Z   1
loop_
 _symmetry_equiv_pos_site_id
 _symmetry_equiv_pos_as_xyz
  1  'x, y, z'
loop_
 _atom_site_type_symbol
 _atom_site_label
 _atom_site_symmetry_multiplicity
 _atom_site_fract_x
 _atom_site_fract_y
 _atom_site_fract_z
 _atom_site_occupancy
  Fe  Fe1  1  0.28223800  0.15422600  0.53206600  1
  Fe  Fe2  1  0.28627000  0.18104200  0.79441400  1
  H  H1  1  0.97051600  0.87618900  0.14382900  1
  H  H2  1  0.69883500  0.31426700  0.33386400  1
  H  H3  1  0.60950800  0.44945200  0.30899800  1
  H  H4  1  0.59775600  0.45935600  0.18378900  1
  H  H5  1  0.67557700  0.33418500  0.08329100  1
  H  H6  1  0.86948700  0.02096900  0.99273500  1
  H  H7  1  0.89281100  0.00097400  0.24320600  1
  H  H8  1  0.02576100  0.16320900  0.30089500  1
  H  H9  1  0.83023500  0.13674600  0.50272900  1
  H  H10  1  0.57530100  0.15185400  0.33134400  1
  H  H11  1  0.99322900  0.18328900  0.99519300  1
  H  H12  1  0.73828800  0.19851700  0.82383300  1
  H  H13  1  0.54277200  0.17190300  0.02561500  1
  H  H14  1  0.98432700  0.44569400  0.59966500  1
  H  H15  1  0.99617200  0.62149400  0.80529900  1
  H  H16  1  0.14016900  0.50870500  0.84210600  1
  H  H17  1  0.57250500  0.71377200  0.52111400  1
  H  H18  1  0.42846300  0.82656000  0.48432500  1
  H  H19  1  0.58430900  0.88954700  0.72676600  1
  H  H20  1  0.05726000  0.88005000  0.97063900  1
  H  H21  1  0.00650600  0.81534000  0.02267200  1
  C  C1  1  0.69436700  0.31453100  0.27778900  1
  C  C2  1  0.64352200  0.39241100  0.26432100  1
  C  C3  1  0.63691700  0.39794800  0.19424100  1
  C  C4  1  0.68116800  0.32564900  0.13722800  1
  C  C5  1  0.73189100  0.24626200  0.14996300  1
  C  C6  1  0.73841300  0.24067100  0.22076200  1
  C  C7  1  0.77784800  0.17315000  0.09250400  1
  C  C8  1  0.83014900  0.09441100  0.10576900  1
  C  C9  1  0.83664300  0.08883400  0.17654100  1
  C  C10  1  0.79068100  0.16193600  0.23401300  1
  C  C11  1  0.87424300  0.02055000  0.04876100  1
  C  C12  1  0.92527300  0.94251200  0.06200800  1
  C  C13  1  0.93169700  0.93705100  0.13232700  1
  C  C14  1  0.88731800  0.00945900  0.18924800  1
  C  C15  1  0.93154300  0.15706500  0.33518900  1
  C  C16  1  0.94265400  0.14876800  0.40460500  1
  C  C17  1  0.82146400  0.14086400  0.44775500  1
  C  C18  1  0.68816400  0.14386800  0.42254200  1
  C  C19  1  0.67811000  0.15055400  0.35242600  1
  C  C20  1  0.80015200  0.15615200  0.30862800  1
  C  C21  1  0.89041900  0.18459900  0.97411000  1
  C  C22  1  0.88035700  0.19133700  0.90400900  1
  C  C23  1  0.74706000  0.19435900  0.87879800  1
  C  C24  1  0.62587900  0.18641900  0.92193000  1
  C  C25  1  0.63698900  0.17807000  0.99133300  1
  C  C26  1  0.76838000  0.17896800  0.01789600  1
  C  C27  1  0.55840300  0.14290100  0.47115000  1
  C  C28  1  0.35824600  0.99336400  0.55309100  1
  C  C29  1  0.07983100  0.15426700  0.43439200  1
  C  C30  1  0.13903300  0.31061000  0.62041000  1
  C  C31  1  0.10628300  0.39587400  0.67246900  1
  C  C32  1  0.01983200  0.46041000  0.65275400  1
  C  C33  1  0.97755600  0.54156900  0.70007600  1
  C  C34  1  0.02630300  0.55861900  0.76712700  1
  C  C35  1  0.10933100  0.49407900  0.78800000  1
  C  C36  1  0.14717400  0.41151700  0.74219400  1
  C  C37  1  0.69067000  0.72733900  0.64605400  1
  C  C38  1  0.87800100  0.60791600  0.68036200  1
  C  C39  1  0.54235700  0.77664100  0.55929300  1
  C  C40  1  0.45930300  0.84118000  0.53843100  1
  C  C41  1  0.42143500  0.92373500  0.58424800  1
  C  C42  1  0.46233100  0.93936900  0.65397100  1
  C  C43  1  0.54880800  0.87483600  0.67367600  1
  C  C44  1  0.59110400  0.79368400  0.62634400  1
  C  C45  1  0.48871200  0.18094700  0.89213300  1
  C  C46  1  0.42953700  0.02462200  0.70604300  1
  C  C47  1  0.01009800  0.19234600  0.85540900  1
  C  C48  1  0.21031600  0.34189200  0.77336700  1
  N  N1  1  0.83395100  0.68596700  0.72753800  1
  N  N2  1  0.74175600  0.74499100  0.71053600  1
  N  N3  1  0.73472100  0.64928700  0.59887600  1
  N  N4  1  0.82691500  0.59026300  0.61587900  1
  N  N5  1  0.96991300  0.86784100  0.00254200  1
  O  O1  1  0.42908700  0.15489800  0.45106700  1
  O  O2  1  0.36449400  0.97889100  0.48227900  1
  O  O3  1  0.57040200  0.13389900  0.53678200  1
  O  O4  1  0.31220600  0.07232500  0.59347600  1
  O  O5  1  0.10565700  0.11986100  0.48850700  1
  O  O6  1  0.17044000  0.20030100  0.41140600  1
  O  O7  1  0.27393200  0.27367100  0.59672100  1
  O  O8  1  0.03237000  0.27282800  0.59491600  1
  O  O9  1  0.46293000  0.21537900  0.83802800  1
  O  O10  1  0.39808400  0.13490400  0.91509000  1
  O  O11  1  0.29462600  0.06152300  0.72974500  1
  O  O12  1  0.53617400  0.06244400  0.73152200  1
  O  O13  1  0.20399500  0.35636900  0.84418200  1
  O  O14  1  0.13942900  0.18027300  0.87545600  1
  O  O15  1  0.25639000  0.26293300  0.73298900  1
  O  O16  1  0.99806700  0.20145900  0.78981100  1
