# generated using pymatgen
data_Fe2H18C45(NO8)2
_symmetry_space_group_name_H-M   'P 1'
_cell_length_a   14.13574700
_cell_length_b   12.09828400
_cell_length_c   13.35457900
_cell_angle_alpha   91.49683900
_cell_angle_beta   93.10306900
_cell_angle_gamma   108.37014900
_symmetry_Int_Tables_number   1
_chemical_formula_structural   Fe2H18C45(NO8)2
_chemical_formula_sum   'Fe2 H18 C45 N2 O16'
_cell_volume   2162.06536468
_cell_formula_units_Z   1
loop_
 _symmetry_equiv_pos_site_id
 _symmetry_equiv_pos_as_xyz
  1  'x, y, z'
loop_
 _atom_site_type_symbol
 _atom_site_label
 _atom_site_symmetry_multiplicity
 _atom_site_fract_x
 _atom_site_fract_y
 _atom_site_fract_z
 _atom_site_occupancy
  Fe  Fe1  1  0.46800600  0.96180900  0.23353100  1
  Fe  Fe2  1  0.47720300  0.96507100  0.79118900  1
  H  H1  1  0.83888300  0.99886700  0.21589900  1
  H  H2  1  0.78796500  0.99432900  0.84978500  1
  H  H3  1  0.95620700  0.00604400  0.83153300  1
  H  H4  1  0.12137500  0.00537300  0.81074800  1
  H  H5  1  0.18646100  0.01164700  0.17533900  1
  H  H6  1  0.01962900  0.84961400  0.25986500  1
  H  H7  1  0.05552500  0.92622900  0.44294300  1
  H  H8  1  0.03617200  0.20577000  0.25906500  1
  H  H9  1  0.45756300  0.54577400  0.26453200  1
  H  H10  1  0.51626400  0.10544100  0.50161000  1
  H  H11  1  0.48009000  0.84390600  0.51175100  1
  H  H12  1  0.50368900  0.39516300  0.67802400  1
  H  H13  1  0.51268900  0.56940000  0.67840300  1
  H  H14  1  0.01741600  0.30110100  0.40392100  1
  H  H15  1  0.05239600  0.43191500  0.55228700  1
  H  H16  1  0.12669100  0.38150100  0.70810200  1
  H  H17  1  0.16676300  0.19836600  0.71413400  1
  H  H18  1  0.13376300  0.06623300  0.56656800  1
  C  C1  1  0.82896000  0.99949300  0.13543900  1
  C  C2  1  0.73437300  0.98816500  0.09339600  1
  C  C3  1  0.72007100  0.98643600  0.98894500  1
  C  C4  1  0.79993400  0.99753900  0.93058100  1
  C  C5  1  0.89275200  0.00469200  0.97317300  1
  C  C6  1  0.90816200  0.00630100  0.07598800  1
  C  C7  1  0.96918700  0.00746400  0.91213900  1
  C  C8  1  0.06108700  0.00842200  0.95323900  1
  C  C9  1  0.07734400  0.00936500  0.05598000  1
  C  C10  1  0.00179900  0.01158500  0.11807400  1
  C  C11  1  0.13628800  0.00768800  0.89110100  1
  C  C12  1  0.22839400  0.00537600  0.93038700  1
  C  C13  1  0.24449300  0.00621600  0.03429800  1
  C  C14  1  0.16962400  0.00877900  0.09546000  1
  C  C15  1  0.04738600  0.97788300  0.38024500  1
  C  C16  1  0.05289200  0.09428400  0.38376500  1
  C  C17  1  0.03624200  0.12241000  0.28611700  1
  C  C18  1  0.02144000  0.02219700  0.22743300  1
  C  C19  1  0.65442200  0.98231400  0.16246800  1
  C  C20  1  0.47633000  0.75870900  0.33087200  1
  C  C21  1  0.33830200  0.00479700  0.08525200  1
  C  C22  1  0.48312200  0.17676400  0.32688200  1
  C  C23  1  0.51054300  0.78586600  0.69039300  1
  C  C24  1  0.62237600  0.96565900  0.93562000  1
  C  C25  1  0.50770800  0.17694900  0.68881700  1
  C  C26  1  0.30434500  0.99811600  0.86084100  1
  C  C27  1  0.51337000  0.19349100  0.50745200  1
  C  C28  1  0.51190200  0.24650000  0.59949700  1
  C  C29  1  0.50595100  0.35851500  0.60444000  1
  C  C30  1  0.50131900  0.24695800  0.42079400  1
  C  C31  1  0.49248000  0.35719000  0.42480800  1
  C  C32  1  0.49792300  0.41668100  0.51644700  1
  C  C33  1  0.49181700  0.53051600  0.51649100  1
  C  C34  1  0.49853900  0.59746100  0.60503500  1
  C  C35  1  0.49078300  0.70768600  0.60154700  1
  C  C36  1  0.47153900  0.51349600  0.33643700  1
  C  C37  1  0.48079700  0.57966800  0.42465100  1
  C  C38  1  0.47696100  0.69353900  0.42245500  1
  C  C39  1  0.47969800  0.75444500  0.51140000  1
  C  C40  1  0.07293200  0.17336400  0.47366500  1
  C  C41  1  0.05101200  0.27713100  0.47091700  1
  C  C42  1  0.07011100  0.35135600  0.55497600  1
  C  C43  1  0.11154300  0.32308200  0.64233900  1
  C  C44  1  0.13371900  0.22026300  0.64571700  1
  C  C45  1  0.11434800  0.14545600  0.56198900  1
  N  N1  1  0.02804900  0.93483500  0.28472800  1
  N  N2  1  0.47827600  0.40554200  0.33833300  1
  O  O1  1  0.56132900  0.96134600  0.12837600  1
  O  O2  1  0.53672800  0.75648700  0.26019900  1
  O  O3  1  0.67659300  0.99797400  0.25958900  1
  O  O4  1  0.43251500  0.83970500  0.33339600  1
  O  O5  1  0.33388900  0.93977700  0.16317000  1
  O  O6  1  0.42369700  0.08033700  0.06444700  1
  O  O7  1  0.54061400  0.11215900  0.31041500  1
  O  O8  1  0.39450400  0.15015400  0.27988200  1
  O  O9  1  0.43482000  0.79947100  0.73635100  1
  O  O10  1  0.59546300  0.87137000  0.69776900  1
  O  O11  1  0.61184600  0.03444100  0.86429300  1
  O  O12  1  0.55126400  0.86668900  0.94514900  1
  O  O13  1  0.29813400  0.02949300  0.76806700  1
  O  O14  1  0.49078400  0.06444800  0.67395800  1
  O  O15  1  0.37616300  0.95648700  0.89028800  1
  O  O16  1  0.51302800  0.22303400  0.77983800  1
