# generated using pymatgen
data_Fe2H24C47O16
_symmetry_space_group_name_H-M   'P 1'
_cell_length_a   15.44277400
_cell_length_b   16.35303900
_cell_length_c   13.51352300
_cell_angle_alpha   88.46990700
_cell_angle_beta   101.90343100
_cell_angle_gamma   114.55636000
_symmetry_Int_Tables_number   1
_chemical_formula_structural   Fe2H24C47O16
_chemical_formula_sum   'Fe2 H24 C47 O16'
_cell_volume   3030.55855845
_cell_formula_units_Z   1
loop_
 _symmetry_equiv_pos_site_id
 _symmetry_equiv_pos_as_xyz
  1  'x, y, z'
loop_
 _atom_site_type_symbol
 _atom_site_label
 _atom_site_symmetry_multiplicity
 _atom_site_fract_x
 _atom_site_fract_y
 _atom_site_fract_z
 _atom_site_occupancy
  Fe  Fe1  1  0.49252100  0.99370200  0.77817100  1
  Fe  Fe2  1  0.51146100  0.00489100  0.22781500  1
  H  H1  1  0.79812900  0.02885500  0.24820600  1
  H  H2  1  0.95015900  0.03386700  0.21963600  1
  H  H3  1  0.83359600  0.99555900  0.90101900  1
  H  H4  1  0.03574400  0.99666000  0.11417200  1
  H  H5  1  0.98675200  0.04484100  0.89564200  1
  H  H6  1  0.06965100  0.00341800  0.79007600  1
  H  H7  1  0.21659700  0.99708900  0.76124500  1
  H  H8  1  0.18822100  0.04320800  0.10826100  1
  H  H9  1  0.49259600  0.90408700  0.49074000  1
  H  H10  1  0.49062300  0.67594000  0.65251800  1
  H  H11  1  0.38098800  0.51930000  0.56057000  1
  H  H12  1  0.39186100  0.37466100  0.56692600  1
  H  H13  1  0.65209500  0.48929500  0.45209000  1
  H  H14  1  0.64393400  0.63481400  0.45070400  1
  H  H15  1  0.54780200  0.33267200  0.35991700  1
  H  H16  1  0.54744900  0.10812300  0.52912700  1
  H  H17  1  0.50268000  0.31391400  0.66306900  1
  H  H18  1  0.36436200  0.57746500  0.29768500  1
  H  H19  1  0.36500300  0.50939900  0.13840900  1
  H  H20  1  0.49694100  0.48973000  0.04759600  1
  H  H21  1  0.57986000  0.59751400  0.01437800  1
  H  H22  1  0.44978400  0.56347700  0.97718200  1
  H  H23  1  0.65563200  0.70527600  0.15062700  1
  H  H24  1  0.65531800  0.77237300  0.30988300  1
  C  C1  1  0.80605100  0.02359800  0.17131200  1
  C  C2  1  0.89179900  0.02568600  0.15532100  1
  C  C3  1  0.90298400  0.01591600  0.05861800  1
  C  C4  1  0.82688600  0.00528300  0.97712000  1
  C  C5  1  0.73940500  0.00264600  0.99210600  1
  C  C6  1  0.72878300  0.00994600  0.09136700  1
  C  C7  1  0.99480000  0.01298700  0.04788800  1
  C  C8  1  0.02782000  0.02877000  0.96204600  1
  C  C9  1  0.12750400  0.00986900  0.85425300  1
  C  C10  1  0.21029100  0.00525600  0.83817300  1
  C  C11  1  0.28638900  0.01491200  0.91804400  1
  C  C12  1  0.27761800  0.02629000  0.01714400  1
  C  C13  1  0.19360500  0.03136600  0.03221500  1
  C  C14  1  0.11815300  0.02290800  0.95091400  1
  C  C15  1  0.50664700  0.15188500  0.69032500  1
  C  C16  1  0.37500400  0.01763800  0.89177600  1
  C  C17  1  0.66386300  0.99744100  0.90160600  1
  C  C18  1  0.48356500  0.83917300  0.67142900  1
  C  C19  1  0.54675900  0.16571600  0.34391500  1
  C  C20  1  0.35158600  0.02767400  0.10712800  1
  C  C21  1  0.63739900  0.99862800  0.11771700  1
  C  C22  1  0.52352900  0.86188800  0.32575100  1
  C  C23  1  0.50415000  0.80294000  0.40890900  1
  C  C24  1  0.50812100  0.72002800  0.40902800  1
  C  C25  1  0.50212900  0.67336300  0.49719800  1
  C  C26  1  0.49235500  0.71071100  0.58330500  1
  C  C27  1  0.48709200  0.79317800  0.58140700  1
  C  C28  1  0.49221500  0.83787400  0.49352700  1
  C  C29  1  0.44116400  0.51337300  0.53732500  1
  C  C30  1  0.44736800  0.43150200  0.54081300  1
  C  C31  1  0.52189800  0.42162300  0.50819300  1
  C  C32  1  0.59160900  0.49508900  0.47475900  1
  C  C33  1  0.58667500  0.57739100  0.47359400  1
  C  C34  1  0.50989900  0.58654000  0.50210400  1
  C  C35  1  0.54468400  0.29857300  0.42958800  1
  C  C36  1  0.54876500  0.21551100  0.43396000  1
  C  C37  1  0.54483800  0.17310100  0.52370700  1
  C  C38  1  0.52816200  0.20818000  0.60531600  1
  C  C39  1  0.51749000  0.28772800  0.59900300  1
  C  C40  1  0.52919500  0.33491200  0.51254700  1
  C  C41  1  0.50957100  0.67961700  0.31397100  1
  C  C42  1  0.42851600  0.60548300  0.26560400  1
  C  C43  1  0.42876300  0.56732000  0.17596900  1
  C  C44  1  0.51003400  0.60290700  0.13415000  1
  C  C45  1  0.50932600  0.56097100  0.03738000  1
  C  C46  1  0.59129100  0.67691500  0.18236200  1
  C  C47  1  0.59098900  0.71517800  0.27194000  1
  O  O1  1  0.56385600  0.11197300  0.72655400  1
  O  O2  1  0.45935900  0.08554900  0.92662000  1
  O  O3  1  0.41783100  0.11999300  0.70595800  1
  O  O4  1  0.36674400  0.96214900  0.81825200  1
  O  O5  1  0.57628500  0.98585300  0.90972400  1
  O  O6  1  0.68589900  0.00896100  0.81199500  1
  O  O7  1  0.46547400  0.91089900  0.65767600  1
  O  O8  1  0.50853400  0.81608200  0.76297900  1
  O  O9  1  0.52689400  0.07974300  0.35103800  1
  O  O10  1  0.55435100  0.20263100  0.25686900  1
  O  O11  1  0.42305800  0.00717600  0.09708000  1
  O  O12  1  0.34144300  0.04183700  0.19829900  1
  O  O13  1  0.61427100  0.91841300  0.32920700  1
  O  O14  1  0.63909200  0.05348700  0.18807700  1
  O  O15  1  0.45351100  0.88215800  0.27537400  1
  O  O16  1  0.55927300  0.92309600  0.08941100  1
