# Generated by REPEAT Assigner based on pymatgen
data_DB0-m3_o4_o19_f0_nbo.sym.8_sqe
_audit_creation_date              2022-05-24
_audit_creation_method            REPEAT_Assigner
_cell_length_a                    23.806945
_cell_length_b                    31.255381
_cell_length_c                    30.870148
_cell_angle_alpha                 90.000000
_cell_angle_beta                  90.000000
_cell_angle_gamma                 90.000000
_cell_volume                      22970.326622
_symmetry_space_group_name_H-M    P1
_symmetry_Int_Tables_number       1
loop_
    _symmetry_equiv_pos_site_id
    _symmetry_equiv_pos_as_xyz
    1  x,y,z
loop_
    _atom_site_type_symbol
    _atom_site_label
    _atom_site_fract_x
    _atom_site_fract_y
    _atom_site_fract_z
    _atom_type_partial_charge
    O   O1    0.500953  0.735383  0.322180  -0.622943
    O   O2    0.495394  0.734492  0.677750  -0.655180
    O   O3    0.992050  0.234548  0.321447  -0.611996
    O   O4    0.002429  0.234650  0.677661  -0.620646
    O   O5    0.992115  0.734523  0.821398  -0.618138
    O   O6    0.002380  0.734886  0.177457  -0.622245
    O   O7    0.500824  0.234896  0.821683  -0.610513
    O   O8    0.492597  0.234703  0.177647  -0.645129
    O   O9    0.496246  0.683889  0.268604  -0.643586
    O   O10   0.493651  0.683468  0.731889  -0.687138
    O   O11   0.001111  0.183717  0.267554  -0.642925
    O   O12   0.995618  0.183549  0.731506  -0.648312
    O   O13   0.001109  0.683656  0.767529  -0.648119
    O   O14   0.995945  0.683695  0.231242  -0.649653
    O   O15   0.495827  0.183460  0.768095  -0.637716
    O   O16   0.495708  0.183560  0.231641  -0.681042
    C   C1    0.498337  0.695331  0.309503  0.649971
    C   C2    0.493223  0.694574  0.690862  0.710181
    C   C3    0.996516  0.194689  0.308472  0.649832
    C   C4    0.999188  0.194704  0.690577  0.661642
    C   C5    0.996382  0.694651  0.808431  0.657822
    C   C6    0.999159  0.694922  0.190315  0.664698
    C   C7    0.498074  0.194856  0.809002  0.626129
    C   C8    0.492933  0.194718  0.190667  0.691515
    O   O17   0.415422  0.779184  0.277070  -0.665751
    O   O18   0.413900  0.779726  0.725697  -0.684351
    O   O19   0.582850  0.780347  0.276894  -0.638357
    O   O20   0.581138  0.778889  0.719353  -0.623044
    O   O21   0.910949  0.278088  0.274300  -0.671714
    O   O22   0.916080  0.279245  0.721343  -0.680901
    O   O23   0.078263  0.280456  0.279009  -0.670936
    O   O24   0.083489  0.279158  0.723900  -0.663668
    O   O25   0.911449  0.778297  0.774037  -0.669457
    O   O26   0.916522  0.779457  0.221726  -0.681852
    O   O27   0.078759  0.780101  0.779126  -0.674559
    O   O28   0.083950  0.779229  0.223332  -0.663750
    O   O29   0.414924  0.278654  0.776998  -0.664312
    O   O30   0.413071  0.281042  0.224179  -0.674329
    O   O31   0.582343  0.279926  0.776042  -0.643466
    O   O32   0.580401  0.277734  0.220717  -0.650371
    O   O33   0.413989  0.729279  0.221851  -0.632602
    O   O34   0.415391  0.730353  0.781399  -0.654330
    O   O35   0.581419  0.729535  0.222546  -0.650945
    O   O36   0.582546  0.728378  0.774007  -0.642907
    O   O37   0.917160  0.228543  0.219007  -0.680726
    O   O38   0.912116  0.229242  0.776370  -0.615954
    O   O39   0.084474  0.230682  0.223901  -0.617821
    O   O40   0.079521  0.229384  0.779119  -0.672761
    O   O41   0.917608  0.728742  0.718748  -0.680853
    O   O42   0.912950  0.729362  0.276690  -0.618322
    O   O43   0.084915  0.730315  0.724028  -0.618549
    O   O44   0.080375  0.729368  0.278486  -0.671717
    O   O45   0.413161  0.228812  0.721719  -0.631552
    O   O46   0.415143  0.231716  0.279904  -0.660841
    O   O47   0.580601  0.229162  0.721662  -0.656857
    O   O48   0.582384  0.227226  0.275340  -0.634872
    C   C9    0.388690  0.754287  0.249793  0.695943
    C   C10   0.388617  0.755515  0.754394  0.734110
    C   C11   0.608153  0.754847  0.249427  0.705732
    C   C12   0.607860  0.753126  0.745784  0.669319
    C   C13   0.888045  0.252687  0.245578  0.745812
    C   C14   0.888085  0.254518  0.748073  0.678595
    C   C15   0.107380  0.256169  0.252570  0.669956
    C   C16   0.107510  0.253990  0.752273  0.731311
    C   C17   0.888520  0.752983  0.745245  0.745305
    C   C18   0.888724  0.754720  0.248570  0.678197
    C   C19   0.107857  0.755726  0.752753  0.674161
    C   C20   0.108171  0.754002  0.251550  0.728168
    C   C21   0.388028  0.253759  0.749816  0.695434
    C   C22   0.388088  0.256832  0.252998  0.724538
    C   C23   0.607496  0.254486  0.748441  0.715660
    C   C24   0.607409  0.252032  0.247061  0.686600
    Zn  Zn1   0.499060  0.788556  0.284581  1.280336
    Zn  Zn2   0.497109  0.788019  0.714822  1.294778
    Zn  Zn3   0.993981  0.288007  0.284274  1.295778
    Zn  Zn4   0.000037  0.287966  0.715026  1.299868
    Zn  Zn5   0.994502  0.787945  0.784188  1.298692
    Zn  Zn6   0.000428  0.788124  0.214950  1.301580
    Zn  Zn7   0.498606  0.288081  0.784117  1.276460
    Zn  Zn8   0.496749  0.288116  0.214771  1.300317
    Zn  Zn9   0.497766  0.720645  0.214540  1.279050
    Zn  Zn10  0.499366  0.720687  0.785477  1.302377
    Zn  Zn11  0.001433  0.220902  0.213778  1.288124
    Zn  Zn12  0.995574  0.220572  0.785399  1.284897
    Zn  Zn13  0.001856  0.720804  0.713728  1.289911
    Zn  Zn14  0.996479  0.720602  0.285216  1.285457
    Zn  Zn15  0.496894  0.220225  0.714032  1.281703
    Zn  Zn16  0.498734  0.220777  0.285365  1.299753
    O   O49   0.499681  0.825328  0.230484  -0.601102
    O   O50   0.501785  0.825248  0.768469  -0.622087
    O   O51   0.994115  0.325189  0.230470  -0.623044
    O   O52   0.000185  0.324979  0.768949  -0.622860
    O   O53   0.995059  0.825085  0.730356  -0.625081
    O   O54   0.001141  0.825024  0.268949  -0.624900
    O   O55   0.498741  0.324869  0.730032  -0.599892
    O   O56   0.498653  0.325273  0.268571  -0.622908
    O   O57   0.496835  0.773806  0.177000  -0.646277
    O   O58   0.502318  0.774194  0.822476  -0.658917
    O   O59   0.003605  0.274340  0.176667  -0.657348
    O   O60   0.992937  0.273866  0.822706  -0.656527
    O   O61   0.004484  0.774205  0.676581  -0.658356
    O   O62   0.994271  0.773818  0.322653  -0.657905
    O   O63   0.495647  0.273392  0.676509  -0.648102
    O   O64   0.504148  0.274166  0.322382  -0.659747
    C   C25   0.498359  0.813913  0.189542  0.559349
    C   C26   0.503217  0.814182  0.809494  0.588502
    C   C27   0.999192  0.314203  0.189585  0.615200
    C   C28   0.996190  0.313818  0.809857  0.604782
    C   C29   0.000240  0.814082  0.689484  0.615028
    C   C30   0.997494  0.813790  0.309857  0.611636
    C   C31   0.497152  0.313482  0.689093  0.560159
    C   C32   0.502449  0.314178  0.309496  0.596548
    C   C33   0.328559  0.753958  0.250985  -0.042153
    C   C34   0.328428  0.756218  0.755819  -0.073824
    C   C35   0.668294  0.754951  0.248462  -0.097052
    C   C36   0.668014  0.752133  0.743975  -0.048749
    C   C37   0.827931  0.251133  0.243682  -0.091796
    C   C38   0.827952  0.255155  0.746639  -0.029225
    C   C39   0.167501  0.257484  0.254786  -0.028252
    C   C40   0.167626  0.253114  0.753398  -0.090855
    C   C41   0.828405  0.751632  0.743170  -0.095675
    C   C42   0.828594  0.755413  0.247433  -0.027297
    C   C43   0.167990  0.756815  0.755151  -0.028414
    C   C44   0.168290  0.753268  0.252590  -0.087508
    C   C45   0.327898  0.253432  0.751263  -0.043832
    C   C46   0.327918  0.257435  0.254713  -0.069363
    C   C47   0.667639  0.254587  0.747338  -0.101901
    C   C48   0.667553  0.251216  0.245068  -0.060101
    C   C49   0.278027  0.753575  0.251903  -0.028971
    C   C50   0.277844  0.756733  0.756377  0.037648
    C   C51   0.718835  0.755206  0.247752  0.043870
    C   C52   0.718574  0.751503  0.742953  -0.034273
    C   C53   0.777359  0.250608  0.243272  0.047551
    C   C54   0.777397  0.255167  0.746295  -0.043916
    C   C55   0.218074  0.257907  0.255599  -0.038246
    C   C56   0.218173  0.252932  0.753322  0.054327
    C   C57   0.777832  0.751248  0.742575  0.053591
    C   C58   0.778042  0.755471  0.247277  -0.042501
    C   C59   0.218567  0.757036  0.756176  -0.037714
    C   C60   0.218834  0.753231  0.252595  0.051477
    C   C61   0.277369  0.253123  0.752408  -0.029956
    C   C62   0.277343  0.257814  0.255521  0.036885
    C   C63   0.718183  0.254864  0.746640  0.049033
    C   C64   0.718107  0.250719  0.243871  -0.019006
    C   C65   0.540209  0.656616  0.371573  -0.061512
    C   C66   0.538345  0.652097  0.633104  -0.061316
    C   C67   0.954684  0.155744  0.370496  -0.051284
    C   C68   0.041866  0.155408  0.629125  -0.063581
    C   C69   0.953360  0.654917  0.869474  -0.050525
    C   C70   0.041441  0.655433  0.128833  -0.063794
    C   C71   0.538343  0.158144  0.872890  -0.066286
    C   C72   0.536240  0.155165  0.130013  -0.056467
    C   C73   0.497172  0.661761  0.342569  0.079898
    C   C74   0.492227  0.660767  0.658077  0.075580
    C   C75   0.997517  0.160858  0.341264  0.058718
    C   C76   0.998414  0.160957  0.657713  0.068672
    C   C77   0.997105  0.660825  0.841215  0.061241
    C   C78   0.998026  0.661234  0.157397  0.070366
    C   C79   0.497088  0.161281  0.842090  0.095217
    C   C80   0.492060  0.160969  0.157786  0.088414
    C   C81   0.452481  0.633367  0.346159  -0.079046
    C   C82   0.444889  0.635878  0.650577  -0.045431
    C   C83   0.042213  0.132457  0.344666  -0.077596
    C   C84   0.953320  0.133047  0.653651  -0.087995
    C   C85   0.042487  0.633218  0.845563  -0.077420
    C   C86   0.952621  0.633627  0.153270  -0.089998
    C   C87   0.454336  0.131010  0.844085  -0.072240
    C   C88   0.446920  0.133171  0.153070  -0.046826
    C   C89   0.452280  0.601924  0.378338  -0.016110
    C   C90   0.445224  0.604314  0.618420  -0.240060
    C   C91   0.042673  0.101151  0.376934  0.022100
    C   C92   0.953075  0.101750  0.621372  0.028904
    C   C93   0.042717  0.601871  0.877784  0.014518
    C   C94   0.952094  0.602305  0.121016  0.025819
    C   C95   0.454265  0.099767  0.876463  -0.048808
    C   C96   0.447400  0.101632  0.120879  -0.242406
    H   H1    0.416666  0.580616  0.380703  0.090319
    H   H2    0.407662  0.585653  0.613017  0.188642
    H   H3    0.078452  0.080005  0.379268  0.079186
    H   H4    0.916980  0.080975  0.618557  0.078502
    H   H5    0.079056  0.581374  0.880853  0.081059
    H   H6    0.915773  0.581767  0.118142  0.080252
    H   H7    0.420182  0.076960  0.877615  0.097769
    H   H8    0.411589  0.080620  0.117670  0.190142
    C   C97   0.497594  0.597316  0.406364  -0.049814
    C   C98   0.493383  0.596471  0.594111  0.053963
    C   C99   0.997645  0.096583  0.405243  -0.096394
    C   C100  0.998661  0.096776  0.593648  -0.095542
    C   C101  0.996850  0.596516  0.905151  -0.076587
    C   C102  0.997711  0.597002  0.093393  -0.093724
    C   C103  0.497984  0.097133  0.906170  -0.028498
    C   C104  0.493747  0.096610  0.093888  0.061656
    C   C105  0.541116  0.625584  0.401026  0.133941
    C   C106  0.539307  0.621373  0.603376  0.187891
    C   C107  0.953985  0.124733  0.400005  0.130224
    C   C108  0.042688  0.124481  0.599527  0.130217
    C   C109  0.952544  0.623910  0.898993  0.118934
    C   C110  0.041981  0.624482  0.099262  0.130316
    C   C111  0.539656  0.127181  0.902396  0.135426
    C   C112  0.537580  0.124336  0.100412  0.167806
    C   C113  0.596902  0.637718  0.418696  -0.241977
    C   C114  0.598664  0.629207  0.590780  -0.303858
    C   C115  0.898554  0.137093  0.418142  -0.168879
    C   C116  0.098852  0.136227  0.582319  -0.162192
    C   C117  0.896048  0.635253  0.915847  -0.170608
    C   C118  0.098229  0.635943  0.082014  -0.166665
    C   C119  0.593080  0.141794  0.922327  -0.238147
    C   C120  0.594350  0.135785  0.084177  -0.277806
    C   C121  0.595785  0.673932  0.383947  0.115755
    C   C122  0.597386  0.665036  0.625918  0.115938
    C   C123  0.899395  0.173273  0.383340  0.106512
    C   C124  0.097839  0.172302  0.617237  0.110316
    C   C125  0.897063  0.671426  0.881039  0.105936
    C   C126  0.097542  0.672051  0.116896  0.111584
    C   C127  0.591520  0.177949  0.887532  0.108116
    C   C128  0.592742  0.171731  0.119181  0.101792
    H   H9    0.594098  0.649938  0.452352  0.117758
    H   H10   0.602428  0.641864  0.557341  0.119588
    H   H11   0.629326  0.613052  0.412275  0.107716
    H   H12   0.626525  0.602091  0.599446  0.127431
    H   H13   0.865899  0.112517  0.412055  0.092495
    H   H14   0.096648  0.148624  0.548703  0.084435
    H   H15   0.901941  0.149363  0.451745  0.086367
    H   H16   0.130808  0.111235  0.588845  0.089719
    H   H17   0.864428  0.610086  0.909041  0.092742
    H   H18   0.096065  0.648329  0.048389  0.085525
    H   H19   0.897701  0.647590  0.949504  0.087913
    H   H20   0.129989  0.610806  0.088536  0.091360
    H   H21   0.586969  0.153816  0.955800  0.116566
    H   H22   0.593203  0.148312  0.050576  0.116024
    H   H23   0.627801  0.118677  0.917290  0.106370
    H   H24   0.625904  0.110615  0.091157  0.120032
    C   C129  0.486730  0.889334  0.165002  0.033279
    C   C130  0.480458  0.887126  0.836160  0.025921
    C   C131  0.966274  0.383262  0.159156  0.024745
    C   C132  0.028109  0.383280  0.839991  0.003264
    C   C133  0.967581  0.883170  0.659049  0.019902
    C   C134  0.029596  0.883187  0.340012  0.014914
    C   C135  0.484341  0.388778  0.664634  0.018041
    C   C136  0.475294  0.385726  0.337449  0.023730
    C   C137  0.499316  0.847315  0.156116  0.130763
    C   C138  0.505324  0.847985  0.842420  0.126129
    C   C139  0.000317  0.347953  0.156709  0.095607
    C   C140  0.994996  0.347482  0.842830  0.119428
    C   C141  0.001561  0.847836  0.656617  0.102797
    C   C142  0.996474  0.847406  0.342879  0.109824
    C   C143  0.497751  0.346916  0.655726  0.136799
    C   C144  0.504064  0.347985  0.342422  0.115887
    C   C145  0.512834  0.837783  0.113315  -0.192290
    C   C146  0.531285  0.841590  0.882259  -0.193814
    C   C147  0.035285  0.345288  0.120790  -0.193966
    C   C148  0.960833  0.344311  0.879177  -0.199609
    C   C149  0.036589  0.845163  0.620730  -0.199797
    C   C150  0.962313  0.844273  0.379219  -0.196753
    C   C151  0.511861  0.337604  0.612996  -0.197485
    C   C152  0.533561  0.342983  0.380965  -0.192597
    H   H25   0.523555  0.805445  0.104100  0.169700
    H   H26   0.551922  0.811547  0.889116  0.166838
    H   H27   0.063384  0.318350  0.117242  0.166903
    H   H28   0.933517  0.316956  0.883080  0.165023
    H   H29   0.064610  0.818182  0.617175  0.167635
    H   H30   0.934984  0.816928  0.383129  0.165016
    H   H31   0.523335  0.305411  0.603804  0.170993
    H   H32   0.557368  0.314097  0.386732  0.167439
    C   C153  0.513638  0.869771  0.081712  -0.203103
    C   C154  0.531934  0.873957  0.913547  -0.203937
    C   C155  0.035751  0.377736  0.089649  -0.167261
    C   C156  0.960116  0.376785  0.910300  -0.164274
    C   C157  0.037179  0.877650  0.589620  -0.160710
    C   C158  0.961558  0.876802  0.410279  -0.165534
    C   C159  0.512473  0.369675  0.581481  -0.198268
    C   C160  0.533886  0.375414  0.412186  -0.202382
    H   H33   0.524522  0.861775  0.048695  0.163546
    H   H34   0.552624  0.868447  0.944222  0.175465
    H   H35   0.063900  0.375293  0.062280  0.162879
    H   H36   0.932589  0.373958  0.938006  0.161798
    H   H37   0.065334  0.875192  0.562257  0.161526
    H   H38   0.933983  0.874020  0.437954  0.162504
    H   H39   0.524036  0.361894  0.548546  0.162931
    H   H40   0.557598  0.371105  0.441733  0.175167
    C   C161  0.499490  0.911532  0.092125  0.069047
    C   C162  0.504177  0.912354  0.906339  0.074278
    C   C163  0.998899  0.412049  0.092648  0.080790
    C   C164  0.995990  0.411646  0.906831  0.085227
    C   C165  0.000387  0.912005  0.592615  0.070798
    C   C166  0.997406  0.911681  0.406774  0.089238
    C   C167  0.497421  0.411256  0.591894  0.059280
    C   C168  0.502189  0.412261  0.406417  0.080493
    C   C169  0.485877  0.919393  0.134446  0.000914
    C   C170  0.478448  0.916945  0.866920  0.007040
    C   C171  0.964080  0.412716  0.128047  -0.007200
    C   C172  0.030125  0.412770  0.871067  -0.003411
    C   C173  0.965503  0.912661  0.627976  0.003594
    C   C174  0.031590  0.912745  0.371024  -0.014664
    C   C175  0.483235  0.418889  0.634141  0.014150
    C   C176  0.472866  0.415373  0.368363  0.006872
    C   C177  0.468101  0.954066  0.164108  0.141746
    C   C178  0.444636  0.947262  0.840805  0.102788
    C   C179  0.919318  0.438062  0.149469  0.078477
    C   C180  0.073698  0.438849  0.849117  0.089749
    C   C181  0.920647  0.937961  0.649333  0.080424
    C   C182  0.075182  0.938758  0.349009  0.097445
    C   C183  0.464886  0.453368  0.663830  0.134694
    C   C184  0.434724  0.443922  0.343780  0.093923
    C   C185  0.468918  0.919015  0.199979  -0.058066
    C   C186  0.446581  0.912306  0.804872  -0.013667
    C   C187  0.921675  0.403473  0.185734  0.047268
    C   C188  0.071563  0.404238  0.812868  0.025192
    C   C189  0.922852  0.903317  0.685544  0.034852
    C   C190  0.073066  0.904058  0.312849  0.022786
    C   C191  0.465943  0.418244  0.699619  -0.038597
    C   C192  0.437244  0.409166  0.307676  0.005048
    O   O65   0.452241  0.957952  0.953564  -0.649724
    O   O66   0.449985  0.957270  0.043692  -0.690955
    O   O67   0.549110  0.961686  0.954156  -0.691961
    O   O68   0.546821  0.961495  0.046665  -0.710752
    O   O69   0.949308  0.458541  0.956097  -0.688063
    O   O70   0.948653  0.460735  0.047432  -0.614750
    O   O71   0.046074  0.460529  0.951854  -0.614090
    O   O72   0.045413  0.458834  0.043203  -0.690931
    O   O73   0.950623  0.958533  0.456057  -0.687225
    O   O74   0.950010  0.960584  0.547403  -0.614983
    O   O75   0.047377  0.960670  0.451785  -0.611281
    O   O76   0.046779  0.958865  0.543131  -0.688898
    O   O77   0.450617  0.458346  0.453458  -0.640616
    O   O78   0.448331  0.457524  0.543679  -0.694585
    O   O79   0.547519  0.461318  0.454238  -0.686082
    O   O80   0.545226  0.461045  0.546632  -0.712122
    C   C193  0.501727  0.945788  0.939486  0.667887
    C   C194  0.498708  0.945256  0.059383  0.734585
    C   C195  0.997189  0.445307  0.939775  0.622032
    C   C196  0.997568  0.445627  0.059603  0.630194
    C   C197  0.998529  0.945382  0.439699  0.619030
    C   C198  0.998979  0.945559  0.559542  0.630327
    C   C199  0.499986  0.445782  0.439487  0.650834
    C   C200  0.496928  0.445124  0.559316  0.742361
    O   O81   0.450083  0.548366  0.452956  -0.682110
    O   O82   0.447784  0.547831  0.545582  -0.655788
    O   O83   0.546827  0.551784  0.455756  -0.636358
    O   O84   0.544551  0.551185  0.545959  -0.617580
    O   O85   0.950276  0.050486  0.455606  -0.651509
    O   O86   0.949657  0.049111  0.547050  -0.669606
    O   O87   0.047040  0.049199  0.451887  -0.668275
    O   O88   0.046406  0.050814  0.543339  -0.649043
    O   O89   0.949230  0.550487  0.955477  -0.646875
    O   O90   0.948544  0.549274  0.046933  -0.671516
    O   O91   0.045995  0.549067  0.951866  -0.665500
    O   O92   0.045303  0.550774  0.043300  -0.651024
    O   O93   0.450937  0.048009  0.952854  -0.677900
    O   O94   0.448637  0.047523  0.045590  -0.662171
    O   O95   0.547654  0.052117  0.955658  -0.638091
    O   O96   0.545380  0.051672  0.045749  -0.621113
    C   C201  0.498275  0.564249  0.440032  0.657284
    C   C202  0.495276  0.563511  0.560295  0.577341
    C   C203  0.998169  0.063941  0.439339  0.685040
    C   C204  0.998408  0.064099  0.559574  0.680362
    C   C205  0.997186  0.563867  0.939248  0.669859
    C   C206  0.997333  0.564200  0.059451  0.683158
    C   C207  0.498958  0.064210  0.939931  0.649695
    C   C208  0.495973  0.063610  0.060157  0.585120
    Zn  Zn17  0.435306  0.003165  0.998751  1.316627
    Zn  Zn18  0.562386  0.006276  0.000725  1.293635
    Zn  Zn19  0.933887  0.504744  0.000611  1.284514
    Zn  Zn20  0.060745  0.504807  0.998429  1.285531
    Zn  Zn21  0.935095  0.004638  0.500656  1.284073
    Zn  Zn22  0.061947  0.004920  0.498407  1.282547
    Zn  Zn23  0.434047  0.503524  0.498765  1.314142
    Zn  Zn24  0.561187  0.505841  0.500797  1.289564
    Cl  Cl1   0.394384  0.637956  0.311635  -0.035595
    Cl  Cl2   0.383614  0.644915  0.680601  -0.033032
    Cl  Cl3   0.100332  0.137067  0.310146  -0.033600
    Cl  Cl4   0.894610  0.138263  0.687470  -0.032052
    Cl  Cl5   0.101620  0.638926  0.812267  -0.034426
    Cl  Cl6   0.893932  0.639248  0.187036  -0.030629
    Cl  Cl7   0.398172  0.132927  0.807444  -0.037429
    Cl  Cl8   0.387911  0.138529  0.186505  -0.034137
    Cl  Cl9   0.592002  0.726150  0.406576  -0.083453
    Cl  Cl10  0.603968  0.717516  0.604311  -0.078393
    Cl  Cl11  0.647141  0.667623  0.342624  -0.066923
    Cl  Cl12  0.641271  0.654264  0.671227  -0.054777
    Cl  Cl13  0.847425  0.167143  0.342455  -0.077467
    Cl  Cl14  0.095107  0.224684  0.594900  -0.083310
    Cl  Cl15  0.903794  0.225505  0.405877  -0.085333
    Cl  Cl16  0.148525  0.165391  0.658949  -0.078423
    Cl  Cl17  0.846886  0.664322  0.838994  -0.073812
    Cl  Cl18  0.095187  0.724407  0.094476  -0.083732
    Cl  Cl19  0.898950  0.723742  0.903585  -0.084641
    Cl  Cl20  0.148254  0.664964  0.158562  -0.079119
    Cl  Cl21  0.582078  0.229824  0.909995  -0.083481
    Cl  Cl22  0.591322  0.224208  0.097011  -0.078690
    Cl  Cl23  0.646096  0.174120  0.848411  -0.064494
    Cl  Cl24  0.642194  0.164198  0.161655  -0.055469
    Cl  Cl25  0.520294  0.994204  0.170892  -0.066879
    Cl  Cl26  0.482055  0.994632  0.827219  -0.055002
    Cl  Cl27  0.399793  0.973907  0.152393  -0.061530
    Cl  Cl28  0.376226  0.955997  0.862129  -0.052392
    Cl  Cl29  0.942691  0.489380  0.166617  -0.058695
    Cl  Cl30  0.138784  0.439963  0.877344  -0.064196
    Cl  Cl31  0.854796  0.438103  0.120454  -0.059310
    Cl  Cl32  0.048512  0.489764  0.832282  -0.057498
    Cl  Cl33  0.943934  0.989234  0.666657  -0.058739
    Cl  Cl34  0.140261  0.939948  0.377250  -0.065940
    Cl  Cl35  0.856229  0.938056  0.620184  -0.058758
    Cl  Cl36  0.050011  0.989610  0.331992  -0.058402
    Cl  Cl37  0.516578  0.493834  0.670889  -0.070919
    Cl  Cl38  0.466901  0.493114  0.328891  -0.056889
    Cl  Cl39  0.396410  0.472775  0.651947  -0.060935
    Cl  Cl40  0.367198  0.449100  0.367806  -0.055774
    Cl  Cl41  0.521668  0.927712  0.239796  -0.036032
    Cl  Cl42  0.485049  0.928350  0.758247  -0.044877
    Cl  Cl43  0.401214  0.906913  0.220996  -0.030075
    Cl  Cl44  0.380094  0.888789  0.793835  -0.039366
    Cl  Cl45  0.946530  0.423597  0.236087  -0.055872
    Cl  Cl46  0.134251  0.373598  0.808562  -0.036846
    Cl  Cl47  0.859825  0.371771  0.189218  -0.055848
    Cl  Cl48  0.045042  0.423979  0.762867  -0.048786
    Cl  Cl49  0.947453  0.923364  0.735998  -0.052872
    Cl  Cl50  0.135731  0.873372  0.308659  -0.038277
    Cl  Cl51  0.861000  0.871581  0.688798  -0.049762
    Cl  Cl52  0.046611  0.923678  0.262779  -0.049216
    Cl  Cl53  0.518339  0.427244  0.739652  -0.039600
    Cl  Cl54  0.471097  0.427128  0.259667  -0.048253
    Cl  Cl55  0.398283  0.405578  0.720362  -0.034874
    Cl  Cl56  0.372284  0.382373  0.299182  -0.040809
