# generated using pymatgen
data_ZnH13C20N4O7
_symmetry_space_group_name_H-M   'P 1'
_cell_length_a   17.79644900
_cell_length_b   16.60918100
_cell_length_c   11.23326600
_cell_angle_alpha   90.00000000
_cell_angle_beta   90.00156700
_cell_angle_gamma   90.00000000
_symmetry_Int_Tables_number   1
_chemical_formula_structural   ZnH13C20N4O7
_chemical_formula_sum   'Zn2 H26 C40 N8 O14'
_cell_volume   3320.37866793
_cell_formula_units_Z   2
loop_
 _symmetry_equiv_pos_site_id
 _symmetry_equiv_pos_as_xyz
  1  'x, y, z'
loop_
 _atom_site_type_symbol
 _atom_site_label
 _atom_site_symmetry_multiplicity
 _atom_site_fract_x
 _atom_site_fract_y
 _atom_site_fract_z
 _atom_site_occupancy
  Zn  Zn1  1  0.49968900  0.59058300  0.50177200  1
  Zn  Zn2  1  0.49968500  0.40780300  0.50177000  1
  H  H1  1  0.51406300  0.55750600  0.90803500  1
  H  H2  1  0.48502300  0.55743100  0.09550300  1
  H  H3  1  0.73624600  0.62540500  0.54073300  1
  H  H4  1  0.26313000  0.62541100  0.46282100  1
  H  H5  1  0.74097600  0.37347300  0.46673200  1
  H  H6  1  0.25839800  0.37347600  0.53679700  1
  H  H7  1  0.87790800  0.37624400  0.47015000  1
  H  H8  1  0.12146700  0.37624700  0.53337400  1
  H  H9  1  0.41642500  0.71666500  0.37068600  1
  H  H10  1  0.58295600  0.71666600  0.63286100  1
  H  H11  1  0.39810300  0.13225000  0.40170700  1
  H  H12  1  0.60127800  0.13225400  0.60180600  1
  H  H13  1  0.39943600  0.28003900  0.40254400  1
  H  H14  1  0.59994100  0.28004200  0.60096600  1
  H  H15  1  0.41470600  0.26341200  0.83832600  1
  H  H16  1  0.37799100  0.35681300  0.82568300  1
  H  H17  1  0.58647500  0.26429900  0.16559500  1
  H  H18  1  0.62231800  0.35807500  0.17843800  1
  H  H19  1  0.87875600  0.75825200  0.48189900  1
  H  H20  1  0.84074000  0.75320900  0.61948200  1
  H  H21  1  0.12062700  0.75825900  0.52164300  1
  H  H22  1  0.15863500  0.75321300  0.38405400  1
  H  H23  1  0.42192300  0.94185200  0.19714800  1
  H  H24  1  0.37213000  0.98776000  0.30549600  1
  H  H25  1  0.57747500  0.94186700  0.80637400  1
  H  H26  1  0.62726900  0.98776100  0.69801400  1
  C  C1  1  0.35244500  0.49930600  0.50356300  1
  C  C2  1  0.64692900  0.49930400  0.49997900  1
  C  C3  1  0.49841300  0.49889200  0.26793900  1
  C  C4  1  0.50098100  0.49888800  0.73560600  1
  C  C5  1  0.49685400  0.43298800  0.93598800  1
  C  C6  1  0.50297900  0.43302600  0.06758600  1
  C  C7  1  0.50400300  0.49950600  0.86747600  1
  C  C8  1  0.49541300  0.49950000  0.13607200  1
  C  C9  1  0.84517800  0.57236000  0.52953900  1
  C  C10  1  0.15419700  0.57236500  0.47400400  1
  C  C11  1  0.76750300  0.57089300  0.52388600  1
  C  C12  1  0.23187200  0.57089900  0.47966100  1
  C  C13  1  0.72937500  0.49986700  0.50202700  1
  C  C14  1  0.27000000  0.49987200  0.50151500  1
  C  C15  1  0.76943000  0.42970400  0.48433800  1
  C  C16  1  0.22994500  0.42970800  0.51919600  1
  C  C17  1  0.84682900  0.43104100  0.48664300  1
  C  C18  1  0.15254600  0.43104400  0.51688700  1
  C  C19  1  0.88505800  0.50169000  0.50895600  1
  C  C20  1  0.11431700  0.50169500  0.49458000  1
  C  C21  1  0.96582400  0.50052800  0.50409000  1
  C  C22  1  0.03355200  0.50053000  0.49944300  1
  C  C23  1  0.45241000  0.83398000  0.42546600  1
  C  C24  1  0.54697400  0.83398100  0.57807300  1
  C  C25  1  0.45274200  0.75078200  0.42896800  1
  C  C26  1  0.54663900  0.75078200  0.57457900  1
  C  C27  1  0.49969300  0.87654700  0.50176800  1
  C  C28  1  0.49969200  0.96322600  0.50176600  1
  C  C29  1  0.49969100  0.03587900  0.50176300  1
  C  C30  1  0.44303400  0.16420800  0.44594200  1
  C  C31  1  0.55634400  0.16421000  0.55757600  1
  C  C32  1  0.44386400  0.24723100  0.44665600  1
  C  C33  1  0.55551000  0.24723300  0.55686500  1
  C  C34  1  0.49968900  0.12231500  0.50176100  1
  C  C35  1  0.48468200  0.35302500  0.88332600  1
  C  C36  1  0.51577500  0.35318500  0.12028700  1
  C  C37  1  0.88281400  0.64917200  0.55814000  1
  C  C38  1  0.11656200  0.64917800  0.44540600  1
  C  C39  1  0.40089500  0.87351000  0.34044000  1
  C  C40  1  0.59849400  0.87351100  0.66309200  1
  N  N1  1  0.49968900  0.71095700  0.50177600  1
  N  N2  1  0.49968400  0.28741500  0.50176700  1
  N  N3  1  0.41086200  0.31960600  0.87952900  1
  N  N4  1  0.58988700  0.32053600  0.12442700  1
  N  N5  1  0.84484800  0.72356800  0.53777700  1
  N  N6  1  0.15453100  0.72357400  0.46576000  1
  N  N7  1  0.41784900  0.94996100  0.28908700  1
  N  N8  1  0.58154800  0.94996800  0.71443300  1
  O  O1  1  0.38776000  0.56854500  0.50317600  1
  O  O2  1  0.61161900  0.56854600  0.50036700  1
  O  O3  1  0.38764000  0.42990200  0.50353600  1
  O  O4  1  0.61173000  0.42990100  0.50000400  1
  O  O5  1  0.49870700  0.56841200  0.32418100  1
  O  O6  1  0.50067200  0.56840700  0.67936200  1
  O  O7  1  0.49853200  0.43001600  0.32465300  1
  O  O8  1  0.50082900  0.43001200  0.67888900  1
  O  O9  1  0.53799200  0.31372900  0.84746500  1
  O  O10  1  0.46275800  0.31333300  0.15589700  1
  O  O11  1  0.94472700  0.65010800  0.60454400  1
  O  O12  1  0.05464600  0.65011500  0.39901000  1
  O  O13  1  0.34500700  0.83764500  0.30682400  1
  O  O14  1  0.65438000  0.83764400  0.69671100  1
