# generated using pymatgen
data_CuH12C22NO8
_symmetry_space_group_name_H-M   'P 1'
_cell_length_a   16.04027500
_cell_length_b   14.63243300
_cell_length_c   10.85106400
_cell_angle_alpha   90.00000000
_cell_angle_beta   89.99363100
_cell_angle_gamma   90.00000000
_symmetry_Int_Tables_number   1
_chemical_formula_structural   CuH12C22NO8
_chemical_formula_sum   'Cu2 H24 C44 N2 O16'
_cell_volume   2546.83421809
_cell_formula_units_Z   2
loop_
 _symmetry_equiv_pos_site_id
 _symmetry_equiv_pos_as_xyz
  1  'x, y, z'
loop_
 _atom_site_type_symbol
 _atom_site_label
 _atom_site_symmetry_multiplicity
 _atom_site_fract_x
 _atom_site_fract_y
 _atom_site_fract_z
 _atom_site_occupancy
  Cu  Cu1  1  0.50253300  0.59149400  0.49515200  1
  Cu  Cu2  1  0.50265700  0.40853200  0.49515200  1
  H  H1  1  0.07921300  0.64565900  0.49714200  1
  H  H2  1  0.92597700  0.35439100  0.50016600  1
  H  H3  1  0.92586000  0.64558700  0.49712600  1
  H  H4  1  0.07932800  0.35446400  0.50017300  1
  H  H5  1  0.24057700  0.38152500  0.10817000  1
  H  H6  1  0.76464100  0.61845800  0.88223400  1
  H  H7  1  0.24055100  0.38156400  0.88231300  1
  H  H8  1  0.76461300  0.61849700  0.10809100  1
  H  H9  1  0.64614400  0.56361300  0.22093300  1
  H  H10  1  0.35899400  0.43648100  0.76945100  1
  H  H11  1  0.64619900  0.56354200  0.76940800  1
  H  H12  1  0.35904300  0.43641200  0.22097700  1
  H  H13  1  0.81936600  0.09202000  0.69859800  1
  H  H14  1  0.77121300  0.19491300  0.64039500  1
  H  H15  1  0.82213800  0.11596100  0.53536300  1
  H  H16  1  0.16951400  0.90798400  0.63026700  1
  H  H17  1  0.22275100  0.80509700  0.58267100  1
  H  H18  1  0.18242000  0.88408700  0.46808600  1
  H  H19  1  0.18580800  0.09192800  0.29178100  1
  H  H20  1  0.23394300  0.19483700  0.34996600  1
  H  H21  1  0.18302800  0.11588600  0.45501100  1
  H  H22  1  0.83569500  0.90807400  0.36012400  1
  H  H23  1  0.78247600  0.80517200  0.40770400  1
  H  H24  1  0.82279400  0.88416000  0.52230200  1
  C  C1  1  0.25315200  0.50015700  0.49708700  1
  C  C2  1  0.75203700  0.49987400  0.49706700  1
  C  C3  1  0.34261000  0.50024700  0.49565800  1
  C  C4  1  0.66258000  0.49978000  0.49563900  1
  C  C5  1  0.50259300  0.50001300  0.25836700  1
  C  C6  1  0.50259600  0.50001300  0.73191200  1
  C  C7  1  0.91662200  0.49998500  0.49871900  1
  C  C8  1  0.08856800  0.50006600  0.49873100  1
  C  C9  1  0.50261400  0.80726800  0.49519200  1
  C  C10  1  0.50257600  0.19275700  0.49519100  1
  C  C11  1  0.82715900  0.49993300  0.49797700  1
  C  C12  1  0.17803000  0.50010700  0.49799600  1
  C  C13  1  0.64188900  0.56353900  0.12178500  1
  C  C14  1  0.36327500  0.43651800  0.86858300  1
  C  C15  1  0.64191700  0.56350500  0.86854100  1
  C  C16  1  0.36330000  0.43648500  0.12182800  1
  C  C17  1  0.71041800  0.59470800  0.05832700  1
  C  C18  1  0.29475900  0.40533600  0.93206200  1
  C  C19  1  0.71043300  0.59468700  0.93199900  1
  C  C20  1  0.29477200  0.40531500  0.05839000  1
  C  C21  1  0.57160000  0.53273300  0.93123400  1
  C  C22  1  0.43359600  0.46728400  0.05909600  1
  C  C23  1  0.57159300  0.53274100  0.05907500  1
  C  C24  1  0.43359100  0.46729200  0.93125500  1
  C  C25  1  0.50259600  0.50001300  0.86718100  1
  C  C26  1  0.50259400  0.50001300  0.12312600  1
  C  C27  1  0.50260600  0.90557500  0.49519900  1
  C  C28  1  0.50258400  0.09444900  0.49519900  1
  C  C29  1  0.57744600  0.95258300  0.50322900  1
  C  C30  1  0.42772800  0.04744100  0.48748800  1
  C  C31  1  0.42775400  0.95256400  0.48716900  1
  C  C32  1  0.57745100  0.04746000  0.50291000  1
  C  C33  1  0.95957600  0.58162100  0.49795000  1
  C  C34  1  0.04561300  0.41843200  0.49965800  1
  C  C35  1  0.04554700  0.58166100  0.49795800  1
  C  C36  1  0.95964200  0.41839100  0.49965300  1
  C  C37  1  0.65603400  0.09860300  0.51666600  1
  C  C38  1  0.78415300  0.12191700  0.62043400  1
  C  C39  1  0.34864500  0.90141900  0.48433900  1
  C  C40  1  0.21186400  0.87810200  0.56024300  1
  C  C41  1  0.34913300  0.09856300  0.47372200  1
  C  C42  1  0.22101400  0.12184000  0.36994100  1
  C  C43  1  0.65656700  0.90145800  0.50605400  1
  C  C44  1  0.79335100  0.87817700  0.43014400  1
  N  N1  1  0.50258100  0.27185000  0.49518200  1
  N  N2  1  0.50260900  0.72817600  0.49518300  1
  O  O1  1  0.38136300  0.57888500  0.49916500  1
  O  O2  1  0.62382600  0.42114100  0.49915300  1
  O  O3  1  0.62366700  0.57835600  0.49898800  1
  O  O4  1  0.38152200  0.42167000  0.49900000  1
  O  O5  1  0.49954700  0.57856000  0.31606900  1
  O  O6  1  0.50553700  0.42130500  0.67426800  1
  O  O7  1  0.49965500  0.57872100  0.67426900  1
  O  O8  1  0.50564100  0.42146600  0.31606800  1
  O  O9  1  0.67229300  0.16172400  0.44722100  1
  O  O10  1  0.71054900  0.07541600  0.60602900  1
  O  O11  1  0.33920900  0.83830900  0.41217600  1
  O  O12  1  0.28611200  0.92459500  0.56140500  1
  O  O13  1  0.33286200  0.16168700  0.54315500  1
  O  O14  1  0.29462600  0.07535500  0.38436000  1
  O  O15  1  0.66601500  0.83834400  0.57820600  1
  O  O16  1  0.71909500  0.92465400  0.42899100  1
