# Generated by REPEAT Assigner based on pymatgen
data_DB0-m2_o2_o4_f0_pcu.sym.1_sqe
_audit_creation_date              2022-05-24
_audit_creation_method            REPEAT_Assigner
_cell_length_a                    15.111130
_cell_length_b                    13.679083
_cell_length_c                    10.881939
_cell_angle_alpha                 90.000000
_cell_angle_beta                  89.999579
_cell_angle_gamma                 90.000000
_cell_volume                      2249.366580
_symmetry_space_group_name_H-M    P1
_symmetry_Int_Tables_number       1
loop_
    _symmetry_equiv_pos_site_id
    _symmetry_equiv_pos_as_xyz
    1  x,y,z
loop_
    _atom_site_type_symbol
    _atom_site_label
    _atom_site_fract_x
    _atom_site_fract_y
    _atom_site_fract_z
    _atom_type_partial_charge
    O   O1   0.371684  0.584989  0.505781  -0.571197
    O   O2   0.628862  0.583462  0.502501  -0.592671
    O   O3   0.371335  0.417167  0.494219  -0.608305
    O   O4   0.628525  0.415395  0.497488  -0.583817
    C   C1   0.329981  0.501166  0.499898  0.636238
    C   C2   0.670207  0.499348  0.499996  0.630347
    O   O5   0.496136  0.583709  0.321316  -0.652252
    O   O6   0.498289  0.585079  0.678602  -0.629355
    O   O7   0.504122  0.415807  0.321612  -0.582879
    O   O8   0.501781  0.417023  0.678604  -0.602310
    C   C3   0.500154  0.499659  0.263892  0.826265
    C   C4   0.500100  0.500943  0.736186  0.820540
    Cu  Cu1  0.500323  0.598101  0.499823  0.894296
    Cu  Cu2  0.499815  0.402544  0.500159  0.829458
    C   C5   0.497298  0.583508  0.061471  0.231144
    C   C6   0.497363  0.583894  0.939335  0.211453
    C   C7   0.500254  0.498964  0.129349  -0.332465
    C   C8   0.500250  0.499765  0.870746  -0.319902
    C   C9   0.503390  0.411895  0.063743  -0.063294
    C   C10  0.503327  0.412292  0.935657  -0.066828
    H   H1   0.505846  0.342492  0.111048  0.098240
    H   H2   0.505776  0.343123  0.887829  0.099944
    C   C11  0.493540  0.691965  0.929208  -0.198849
    C   C12  0.493491  0.691531  0.072592  -0.188618
    H   H3   0.554921  0.723214  0.889476  0.078220
    H   H4   0.430099  0.717174  0.112579  0.077010
    H   H5   0.430170  0.717820  0.889380  0.083662
    H   H6   0.554859  0.722525  0.112680  0.078908
    C   C13  0.095370  0.582871  0.536309  -0.154719
    C   C14  0.904375  0.584224  0.472330  -0.157665
    H   H7   0.061292  0.647309  0.568719  0.109693
    H   H8   0.938077  0.650836  0.446884  0.109861
    C   C15  0.186641  0.583476  0.535029  -0.090434
    C   C16  0.813141  0.584083  0.473390  -0.085217
    H   H9   0.221103  0.648581  0.564578  0.105646
    H   H10  0.778422  0.650769  0.450787  0.104628
    C   C17  0.232977  0.501144  0.499727  -0.025614
    C   C18  0.767204  0.499401  0.499854  -0.023957
    C   C19  0.187022  0.418526  0.464479  -0.096290
    C   C20  0.813555  0.415017  0.526373  -0.102168
    H   H11  0.221743  0.353592  0.434910  0.107198
    H   H12  0.779123  0.348160  0.549001  0.106380
    C   C21  0.095784  0.418465  0.463455  -0.152065
    C   C22  0.904824  0.415540  0.527605  -0.145158
    H   H13  0.062062  0.353787  0.431101  0.111545
    H   H14  0.938913  0.349171  0.553080  0.110286
    C   C23  0.048923  0.500470  0.499994  0.087043
    C   C24  0.951250  0.500071  0.500036  0.083681
    C   C25  0.539744  0.106686  0.594911  -0.212239
    C   C26  0.462399  0.106024  0.405250  -0.215803
    H   H15  0.569330  0.070366  0.672836  0.117862
    H   H16  0.433565  0.069041  0.327254  0.118150
    C   C27  0.539483  0.207476  0.592533  0.023175
    C   C28  0.461993  0.206853  0.406921  0.036783
    H   H17  0.571056  0.247021  0.666384  0.133307
    H   H18  0.430846  0.245915  0.332301  0.126888
    N   N1   0.499105  0.256245  0.500772  -0.064521
    C   C29  0.500740  0.054330  0.500645  0.142073
    C   C30  0.431129  0.894490  0.449810  -0.237150
    C   C31  0.568920  0.894140  0.554151  -0.231604
    H   H19  0.374426  0.931358  0.411082  0.130668
    H   H20  0.625429  0.930567  0.594028  0.130386
    C   C32  0.432524  0.793670  0.449199  0.047115
    C   C33  0.567388  0.793342  0.553853  0.036852
    H   H21  0.378359  0.754535  0.407101  0.111514
    H   H22  0.621141  0.753974  0.596565  0.117772
    N   N2   0.500846  0.744406  0.499059  -0.075729
    C   C34  0.500357  0.946343  0.501411  0.158847
