# generated using pymatgen
data_CuH15C19NO5
_symmetry_space_group_name_H-M   'P 1'
_cell_length_a   13.69246900
_cell_length_b   14.01950300
_cell_length_c   15.10110800
_cell_angle_alpha   89.98837800
_cell_angle_beta   89.99683800
_cell_angle_gamma   85.32181000
_symmetry_Int_Tables_number   1
_chemical_formula_structural   CuH15C19NO5
_chemical_formula_sum   'Cu2 H30 C38 N2 O10'
_cell_volume   2889.17549861
_cell_formula_units_Z   2
loop_
 _symmetry_equiv_pos_site_id
 _symmetry_equiv_pos_as_xyz
  1  'x, y, z'
loop_
 _atom_site_type_symbol
 _atom_site_label
 _atom_site_symmetry_multiplicity
 _atom_site_fract_x
 _atom_site_fract_y
 _atom_site_fract_z
 _atom_site_occupancy
  Cu  Cu1  1  0.59368700  0.49012200  0.50636800  1
  Cu  Cu2  1  0.39756900  0.49823900  0.50836100  1
  H  H1  1  0.57221400  0.98474300  0.57988100  1
  H  H2  1  0.41805000  0.00326200  0.43279300  1
  H  H3  1  0.64301500  0.43418300  0.06782000  1
  H  H4  1  0.34946900  0.45369000  0.94382500  1
  H  H5  1  0.64480800  0.43683600  0.22763900  1
  H  H6  1  0.35012600  0.45890200  0.78476300  1
  H  H7  1  0.34121600  0.53569300  0.22949900  1
  H  H8  1  0.64643900  0.53439200  0.78752300  1
  H  H9  1  0.34094800  0.54102200  0.07002700  1
  H  H10  1  0.64419900  0.53491100  0.94793600  1
  H  H11  1  0.04731100  0.63797300  0.56392900  1
  H  H12  1  0.93783500  0.41278500  0.38571200  1
  H  H13  1  0.25439600  0.37139800  0.44257000  1
  H  H14  1  0.73968300  0.56975700  0.62044200  1
  H  H15  1  0.08117900  0.35720800  0.45205200  1
  H  H16  1  0.91455000  0.57557900  0.62522400  1
  H  H17  1  0.30990500  0.64419600  0.69716600  1
  H  H18  1  0.20799100  0.57036100  0.68985100  1
  H  H19  1  0.20141500  0.79019400  0.69647000  1
  H  H20  1  0.09428300  0.72256400  0.69220900  1
  H  H21  1  0.15034700  0.64253500  0.83653100  1
  H  H22  1  0.12540900  0.77086700  0.84495700  1
  H  H23  1  0.25049300  0.71945600  0.83906300  1
  H  H24  1  0.69720200  0.26210300  0.39824000  1
  H  H25  1  0.80689100  0.28295600  0.45847000  1
  H  H26  1  0.78784900  0.25348100  0.25687100  1
  H  H27  1  0.90105400  0.26774600  0.31514100  1
  H  H28  1  0.86740100  0.12426200  0.40902300  1
  H  H29  1  0.88686700  0.09700800  0.29311800  1
  H  H30  1  0.76408200  0.10688400  0.33795900  1
  C  C1  1  0.49413500  0.48880200  0.33738700  1
  C  C2  1  0.49715500  0.49998600  0.67762500  1
  C  C3  1  0.50304300  0.31098200  0.51446200  1
  C  C4  1  0.48839700  0.67754000  0.50098100  1
  C  C5  1  0.48319400  0.77987700  0.49420200  1
  C  C6  1  0.50804600  0.20858600  0.51981700  1
  C  C7  1  0.46842800  0.96836700  0.48044000  1
  C  C8  1  0.52172100  0.02008500  0.53258400  1
  C  C9  1  0.51387300  0.12267300  0.52525600  1
  C  C10  1  0.47702500  0.86579900  0.48785000  1
  C  C11  1  0.57766800  0.46164100  0.10241700  1
  C  C12  1  0.41402000  0.47509000  0.91095600  1
  C  C13  1  0.57810200  0.46123500  0.19361300  1
  C  C14  1  0.41466700  0.47755500  0.81989100  1
  C  C15  1  0.49367100  0.48864700  0.24027600  1
  C  C16  1  0.49746300  0.49962800  0.77463000  1
  C  C17  1  0.40852800  0.51512300  0.19452700  1
  C  C18  1  0.58028600  0.51828600  0.82170400  1
  C  C19  1  0.40860900  0.51788600  0.10328300  1
  C  C20  1  0.57904700  0.51748800  0.91317900  1
  C  C21  1  0.49388300  0.49261000  0.05629600  1
  C  C22  1  0.49547200  0.49613700  0.95875500  1
  C  C23  1  0.09189400  0.57565200  0.54157000  1
  C  C24  1  0.89604900  0.44535300  0.43996300  1
  C  C25  1  0.19304400  0.57628800  0.54579100  1
  C  C26  1  0.79574300  0.43909400  0.44140300  1
  C  C27  1  0.20969000  0.42844300  0.47391400  1
  C  C28  1  0.78335900  0.53288700  0.56962000  1
  C  C29  1  0.11000100  0.42182800  0.47643200  1
  C  C30  1  0.88323800  0.53754600  0.57145400  1
  C  C31  1  0.04904000  0.49688600  0.50871700  1
  C  C32  1  0.94146100  0.49335500  0.50660500  1
  C  C33  1  0.23408100  0.64102600  0.67264600  1
  C  C34  1  0.17119700  0.72210300  0.71553900  1
  C  C35  1  0.17466000  0.71267900  0.81554200  1
  C  C36  1  0.76868300  0.29353700  0.39398300  1
  C  C37  1  0.82713300  0.24149100  0.32067500  1
  C  C38  1  0.83708800  0.13548400  0.34144800  1
  N  N1  1  0.25095800  0.50394800  0.50924900  1
  N  N2  1  0.74030500  0.48404200  0.50549100  1
  O  O1  1  0.57844800  0.48877700  0.37809200  1
  O  O2  1  0.41298200  0.49822100  0.63683000  1
  O  O3  1  0.41035500  0.49060300  0.37961200  1
  O  O4  1  0.58069100  0.49952400  0.63523200  1
  O  O5  1  0.58534900  0.35194100  0.50941400  1
  O  O6  1  0.40601800  0.63640900  0.50131400  1
  O  O7  1  0.41708700  0.35866800  0.50928000  1
  O  O8  1  0.57434800  0.62953500  0.49878300  1
  O  O9  1  0.23333300  0.65411500  0.58087400  1
  O  O10  1  0.75319400  0.39106500  0.37400200  1
