data_DB0-m3_o11_o29_f0_pcu.sym.14_repeat
_audit_creation_date              2024-02-23
_audit_creation_method            'Materials Studio'
_symmetry_space_group_name_H-M    'P1'
_symmetry_Int_Tables_number       1
_symmetry_cell_setting            triclinic
loop_
_symmetry_equiv_pos_as_xyz
  x,y,z
_cell_length_a                    27.6007
_cell_length_b                    11.1383
_cell_length_c                    9.9167
_cell_angle_alpha                 89.9974
_cell_angle_beta                  89.9930
_cell_angle_gamma                 89.9936
loop_
_atom_site_label
_atom_site_type_symbol
_atom_site_fract_x
_atom_site_fract_y
_atom_site_fract_z
_atom_site_U_iso_or_equiv
_atom_site_adp_type
_atom_site_occupancy
O1     O     0.50231   0.32063   0.60275   0.00000  Uiso   1.00
O2     O     0.49938   0.32066   0.36997   0.00000  Uiso   1.00
C1     C     0.50066   0.26469   0.48660   0.00000  Uiso   1.00
O3     O     0.43069   0.50085   0.61228   0.00000  Uiso   1.00
O4     O     0.42782   0.50133   0.37963   0.00000  Uiso   1.00
C2     C     0.40660   0.50112   0.49807   0.00000  Uiso   1.00
Zn1    Zn    0.50340   0.49923   0.64054   0.00000  Uiso   1.00
Zn2    Zn    0.49932   0.49978   0.33362   0.00000  Uiso   1.00
O5     O     0.50339   0.67804   0.60364   0.00000  Uiso   1.00
O6     O     0.50016   0.67865   0.37121   0.00000  Uiso   1.00
O7     O     0.57490   0.49777   0.59450   0.00000  Uiso   1.00
O8     O     0.57204   0.49943   0.36197   0.00000  Uiso   1.00
C3     C     0.50186   0.73435   0.48774   0.00000  Uiso   1.00
C4     C     0.59613   0.49781   0.47617   0.00000  Uiso   1.00
C5     C     0.17750   0.40121   0.49565   0.00000  Uiso   1.00
O9     O     0.20243   0.29831   0.48184   0.00000  Uiso   1.00
N1     N     0.20160   0.50457   0.51177   0.00000  Uiso   1.00
C6     C     0.17811   0.60949   0.52714   0.00000  Uiso   1.00
C7     C     0.27932   0.52574   0.62489   0.00000  Uiso   1.00
C8     C     0.32930   0.52381   0.62207   0.00000  Uiso   1.00
C9     C     0.32714   0.48059   0.38614   0.00000  Uiso   1.00
C10    C     0.27722   0.48051   0.38982   0.00000  Uiso   1.00
C11    C     0.25320   0.50366   0.50890   0.00000  Uiso   1.00
C12    C     0.10199   0.50640   0.50809   0.00000  Uiso   1.00
C13    C     0.12763   0.40060   0.49389   0.00000  Uiso   1.00
C14    C     0.10349   0.29383   0.47606   0.00000  Uiso   1.00
C15    C     0.12713   0.61339   0.52784   0.00000  Uiso   1.00
C16    C     0.35348   0.50180   0.50239   0.00000  Uiso   1.00
H1     H     0.34510   0.46256   0.29147   0.00000  Uiso   1.00
H2     H     0.25693   0.46352   0.29857   0.00000  Uiso   1.00
H3     H     0.12281   0.21041   0.46215   0.00000  Uiso   1.00
C17    C     0.64924   0.49661   0.47229   0.00000  Uiso   1.00
C18    C     0.97646   0.39349   0.49453   0.00000  Uiso   1.00
C19    C     0.97571   0.60886   0.48392   0.00000  Uiso   1.00
C20    C     0.95110   0.50046   0.48517   0.00000  Uiso   1.00
C21    C     0.95035   0.28710   0.50785   0.00000  Uiso   1.00
C22    C     0.90060   0.28720   0.50555   0.00000  Uiso   1.00
C23    C     0.87563   0.39288   0.48842   0.00000  Uiso   1.00
C24    C     0.90082   0.49905   0.47752   0.00000  Uiso   1.00
C25    C     0.87520   0.60386   0.45962   0.00000  Uiso   1.00
C26    C     0.82512   0.60124   0.45306   0.00000  Uiso   1.00
N2     N     0.80116   0.49669   0.46683   0.00000  Uiso   1.00
C27    C     0.82552   0.39318   0.48453   0.00000  Uiso   1.00
C28    C     0.72383   0.52263   0.35231   0.00000  Uiso   1.00
C29    C     0.67382   0.52173   0.35402   0.00000  Uiso   1.00
C30    C     0.67518   0.47089   0.58805   0.00000  Uiso   1.00
C31    C     0.72508   0.46955   0.58535   0.00000  Uiso   1.00
C32    C     0.74954   0.49605   0.46787   0.00000  Uiso   1.00
O10    O     0.80080   0.28982   0.49681   0.00000  Uiso   1.00
C33    C     0.02712   0.39531   0.49097   0.00000  Uiso   1.00
C34    C     0.05161   0.50395   0.50181   0.00000  Uiso   1.00
C35    C     0.02589   0.61017   0.50519   0.00000  Uiso   1.00
C36    C     0.05393   0.29073   0.47532   0.00000  Uiso   1.00
H4     H     0.65434   0.54265   0.26246   0.00000  Uiso   1.00
H5     H     0.74282   0.54315   0.25978   0.00000  Uiso   1.00
H6     H     0.88183   0.20273   0.51728   0.00000  Uiso   1.00
H7     H     0.96707   0.20141   0.52617   0.00000  Uiso   1.00
H8     H     0.03795   0.20439   0.45595   0.00000  Uiso   1.00
O11    O     0.20522   0.70920   0.53545   0.00000  Uiso   1.00
C37    C     0.10056   0.71932   0.54928   0.00000  Uiso   1.00
H9     H     0.34905   0.54112   0.71411   0.00000  Uiso   1.00
H10    H     0.26065   0.54350   0.71863   0.00000  Uiso   1.00
C38    C     0.94936   0.71340   0.45957   0.00000  Uiso   1.00
C39    C     0.89978   0.71064   0.44758   0.00000  Uiso   1.00
O12    O     0.79999   0.70358   0.43705   0.00000  Uiso   1.00
C40    C     0.05050   0.71558   0.53467   0.00000  Uiso   1.00
H11    H     0.96609   0.79951   0.44341   0.00000  Uiso   1.00
H12    H     0.65690   0.45035   0.68160   0.00000  Uiso   1.00
H13    H     0.88082   0.79392   0.42923   0.00000  Uiso   1.00
H14    H     0.74502   0.44931   0.67637   0.00000  Uiso   1.00
H15    H     0.03000   0.79511   0.55316   0.00000  Uiso   1.00
C41    C     0.49974   0.93274   0.37967   0.00000  Uiso   1.00
C42    C     0.50224   0.86586   0.49178   0.00000  Uiso   1.00
H16    H     0.49766   0.88848   0.28256   0.00000  Uiso   1.00
H17    H     0.50475   0.90540   0.59080   0.00000  Uiso   1.00
C43    C     0.49992   0.06586   0.37910   0.00000  Uiso   1.00
C44    C     0.50031   0.13321   0.49096   0.00000  Uiso   1.00
H18    H     0.49951   0.10968   0.28156   0.00000  Uiso   1.00
H19    H     0.50035   0.09399   0.59038   0.00000  Uiso   1.00
C45    C     0.52978   0.57304   0.92058   0.00000  Uiso   1.00
N3     N     0.50715   0.49937   0.84227   0.00000  Uiso   1.00
H20    H     0.49521   0.42214   0.88823   0.00000  Uiso   1.00
C46    C     0.53222   0.54858   0.06759   0.00000  Uiso   1.00
N4     N     0.49648   0.50200   0.13202   0.00000  Uiso   1.00
H21    H     0.56385   0.57502   0.12434   0.00000  Uiso   1.00
H22    H     0.46476   0.49114   0.07906   0.00000  Uiso   1.00
C47    C     0.12520   0.83570   0.59006   0.00000  Uiso   1.00
C48    C     0.09207   0.93782   0.63337   0.00000  Uiso   1.00
H23    H     0.07059   0.97108   0.54650   0.00000  Uiso   1.00
H24    H     0.06828   0.90889   0.71753   0.00000  Uiso   1.00
H25    H     0.11486   0.01306   0.66995   0.00000  Uiso   1.00
H26    H     0.14881   0.81768   0.67826   0.00000  Uiso   1.00
H27    H     0.14705   0.86968   0.50430   0.00000  Uiso   1.00
C49    C     0.55381   0.68292   0.86273   0.00000  Uiso   1.00
C50    C     0.58570   0.74989   0.96234   0.00000  Uiso   1.00
H28    H     0.56403   0.78192   0.04941   0.00000  Uiso   1.00
H29    H     0.61601   0.69178   0.99609   0.00000  Uiso   1.00
H30    H     0.60135   0.82937   0.91095   0.00000  Uiso   1.00
H31    H     0.57676   0.65682   0.77617   0.00000  Uiso   1.00
H32    H     0.52532   0.74621   0.82929   0.00000  Uiso   1.00
