# generated using pymatgen
data_ZnH12C22NO4
_symmetry_space_group_name_H-M   'P 1'
_cell_length_a   14.33578400
_cell_length_b   15.46007100
_cell_length_c   11.66755300
_cell_angle_alpha   90.00000000
_cell_angle_beta   90.15952400
_cell_angle_gamma   90.00000000
_symmetry_Int_Tables_number   1
_chemical_formula_structural   ZnH12C22NO4
_chemical_formula_sum   'Zn2 H24 C44 N2 O8'
_cell_volume   2585.89586618
_cell_formula_units_Z   2
loop_
 _symmetry_equiv_pos_site_id
 _symmetry_equiv_pos_as_xyz
  1  'x, y, z'
loop_
 _atom_site_type_symbol
 _atom_site_label
 _atom_site_symmetry_multiplicity
 _atom_site_fract_x
 _atom_site_fract_y
 _atom_site_fract_z
 _atom_site_occupancy
  Zn  Zn1  1  0.89667600  0.00000000  0.99222600  1
  Zn  Zn2  1  0.10332400  0.00000000  0.00777400  1
  H  H1  1  0.55405900  0.87210300  0.89899800  1
  H  H2  1  0.44594100  0.12789700  0.10100200  1
  H  H3  1  0.44594100  0.87210300  0.10100200  1
  H  H4  1  0.55405900  0.12789700  0.89899800  1
  H  H5  1  0.43461200  0.00000000  0.80775600  1
  H  H6  1  0.56538800  0.00000000  0.19224500  1
  H  H7  1  0.12959300  0.69132000  0.41622200  1
  H  H8  1  0.87040700  0.30868000  0.58377900  1
  H  H9  1  0.87040700  0.69132000  0.58377900  1
  H  H10  1  0.12959300  0.30868000  0.41622200  1
  H  H11  1  0.84960400  0.76919600  0.19489300  1
  H  H12  1  0.15039600  0.23080400  0.80510700  1
  H  H13  1  0.15039600  0.76919600  0.80510700  1
  H  H14  1  0.84960400  0.23080400  0.19489300  1
  H  H15  1  0.13189900  0.81921800  0.29423200  1
  H  H16  1  0.86810100  0.18078200  0.70576900  1
  H  H17  1  0.86810100  0.81921800  0.70576900  1
  H  H18  1  0.13189900  0.18078200  0.29423200  1
  H  H19  1  0.84880500  0.64024900  0.31552100  1
  H  H20  1  0.15119500  0.35975100  0.68448000  1
  H  H21  1  0.15119500  0.64024900  0.68448000  1
  H  H22  1  0.84880500  0.35975100  0.31552100  1
  H  H23  1  0.96781000  0.50000000  0.29322900  1
  H  H24  1  0.03219000  0.50000000  0.70677100  1
  C  C1  1  0.99418700  0.12330100  0.15677300  1
  C  C2  1  0.00581300  0.87669900  0.84322700  1
  C  C3  1  0.00581300  0.12330100  0.84322700  1
  C  C4  1  0.99418700  0.87669900  0.15677300  1
  C  C5  1  0.47160200  0.93015800  0.05501700  1
  C  C6  1  0.52839800  0.06984200  0.94498300  1
  C  C7  1  0.52839800  0.93015800  0.94498300  1
  C  C8  1  0.47160200  0.06984200  0.05501700  1
  C  C9  1  0.53452500  0.00000000  0.10498200  1
  C  C10  1  0.46547500  0.00000000  0.89501800  1
  C  C11  1  0.58963000  0.00000000  0.99501700  1
  C  C12  1  0.41037000  0.00000000  0.00498400  1
  C  C13  1  0.69213600  0.00000000  0.99036400  1
  C  C14  1  0.30786400  0.00000000  0.00963600  1
  C  C15  1  0.99063900  0.80369800  0.23677900  1
  C  C16  1  0.00936100  0.19630200  0.76322100  1
  C  C17  1  0.00936100  0.80369800  0.76322100  1
  C  C18  1  0.99063900  0.19630200  0.23677900  1
  C  C19  1  0.99012800  0.57770100  0.44182800  1
  C  C20  1  0.00987200  0.42229900  0.55817200  1
  C  C21  1  0.00987200  0.57770100  0.55817200  1
  C  C22  1  0.99012800  0.42229900  0.44182800  1
  C  C23  1  0.06738700  0.70923700  0.36934000  1
  C  C24  1  0.93261300  0.29076300  0.63066100  1
  C  C25  1  0.93261300  0.70923700  0.63066100  1
  C  C26  1  0.06738700  0.29076300  0.36934000  1
  C  C27  1  0.91103100  0.75354000  0.24462000  1
  C  C28  1  0.08897000  0.24646000  0.75538000  1
  C  C29  1  0.08897000  0.75354000  0.75538000  1
  C  C30  1  0.91103100  0.24646000  0.24462000  1
  C  C31  1  0.06877900  0.78123900  0.29963400  1
  C  C32  1  0.93122100  0.21876100  0.70036600  1
  C  C33  1  0.93122100  0.78123900  0.70036600  1
  C  C34  1  0.06877900  0.21876100  0.29963400  1
  C  C35  1  0.98848700  0.65820400  0.37545600  1
  C  C36  1  0.01151400  0.34179600  0.62454500  1
  C  C37  1  0.01151400  0.65820400  0.62454500  1
  C  C38  1  0.98848700  0.34179600  0.37545600  1
  C  C39  1  0.91054400  0.68031700  0.31227600  1
  C  C40  1  0.08945600  0.31968300  0.68772500  1
  C  C41  1  0.08945600  0.68031700  0.68772500  1
  C  C42  1  0.91054400  0.31968300  0.31227600  1
  C  C43  1  0.97961100  0.50000000  0.38478500  1
  C  C44  1  0.02039000  0.50000000  0.61521500  1
  N  N1  1  0.77300700  0.00000000  0.98793500  1
  N  N2  1  0.22699300  0.00000000  0.01206600  1
  O  O1  1  0.07521000  0.09205600  0.12476600  1
  O  O2  1  0.92479100  0.90794400  0.87523400  1
  O  O3  1  0.92479100  0.09205600  0.87523400  1
  O  O4  1  0.07521000  0.90794400  0.12476600  1
  O  O5  1  0.91682000  0.09289100  0.11159400  1
  O  O6  1  0.08318000  0.90710900  0.88840600  1
  O  O7  1  0.08318000  0.09289100  0.88840600  1
  O  O8  1  0.91682000  0.90710900  0.11159400  1
