# Generated by REPEAT Assigner based on pymatgen
data_DB0-m3_o8_o22_f0_pcu.sym.111
_audit_creation_date              2022-05-24
_audit_creation_method            REPEAT_Assigner
_cell_length_a                    10.770571
_cell_length_b                    15.924078
_cell_length_c                    17.111701
_cell_angle_alpha                 89.119583
_cell_angle_beta                  90.002315
_cell_angle_gamma                 92.762741
_cell_volume                      2931.094053
_symmetry_space_group_name_H-M    P1
_symmetry_Int_Tables_number       1
loop_
    _symmetry_equiv_pos_site_id
    _symmetry_equiv_pos_as_xyz
    1  x,y,z
loop_
    _atom_site_type_symbol
    _atom_site_label
    _atom_site_fract_x
    _atom_site_fract_y
    _atom_site_fract_z
    _atom_type_partial_charge
    O   O1   0.490941  0.415732  0.610424  -0.746676
    O   O2   0.501434  0.560501  0.616429  -0.734138
    C   C1   0.495614  0.485757  0.650016  0.921697
    O   O3   0.677749  0.423297  0.494910  -0.750697
    O   O4   0.687941  0.568121  0.500735  -0.744503
    C   C2   0.740951  0.495739  0.498146  0.758794
    Zn  Zn1  0.491111  0.400175  0.493133  1.119998
    Zn  Zn2  0.504592  0.591117  0.501061  1.115364
    O   O5   0.494429  0.430802  0.377769  -0.717055
    O   O6   0.504525  0.575550  0.383772  -0.711592
    O   O7   0.307697  0.423167  0.493367  -0.708962
    O   O8   0.318025  0.567973  0.499486  -0.696983
    C   C3   0.499960  0.505536  0.344178  0.867294
    C   C4   0.254775  0.495621  0.496171  0.622566
    C   C5   0.925909  0.445967  0.569830  0.377640
    H   H1   0.887980  0.380174  0.566000  -0.070314
    C   C6   0.066757  0.444493  0.566889  -0.205203
    H   H2   0.108501  0.470755  0.621032  0.067286
    H   H3   0.093201  0.378339  0.561874  0.015568
    H   H4   0.888497  0.387294  0.424659  -0.019213
    H   H5   0.096045  0.392749  0.415915  0.019653
    C   C7   0.923226  0.453981  0.425380  0.043234
    C   C8   0.934536  0.585772  0.498906  0.008836
    C   C9   0.879881  0.495798  0.499140  -0.031629
    H   H6   0.908488  0.618195  0.443874  0.010477
    H   H7   0.899965  0.621787  0.548671  -0.034030
    C   C10  0.115994  0.495692  0.496998  0.288246
    C   C11  0.064055  0.457428  0.422445  -0.120966
    C   C12  0.074776  0.585323  0.502989  -0.109858
    H   H8   0.106311  0.612675  0.559268  -0.000959
    H   H9   0.113730  0.624600  0.453906  0.016816
    H   H10  0.886950  0.486831  0.373158  0.001100
    H   H11  0.096476  0.496292  0.371410  0.006280
    C   C13  0.494928  0.480226  0.735707  -0.234890
    C   C14  0.500511  0.552486  0.779623  -0.079378
    C   C15  0.500477  0.547617  0.860203  -0.134634
    C   C16  0.494787  0.469674  0.897841  0.454210
    C   C17  0.489044  0.397787  0.853836  -0.366458
    C   C18  0.489114  0.402735  0.773358  0.106818
    C   C19  0.495029  0.443673  0.133993  -0.155161
    C   C20  0.495049  0.438805  0.214573  -0.047185
    C   C21  0.500590  0.521615  0.096355  0.476479
    N   N1   0.494755  0.461248  0.980309  -0.236134
    N   N2   0.500606  0.530041  0.013887  -0.248733
    C   C22  0.500552  0.511066  0.258488  -0.262372
    H   H12  0.490538  0.377414  0.242496  0.111155
    H   H13  0.490527  0.385154  0.102700  0.061407
    H   H14  0.484573  0.336889  0.882769  0.134170
    H   H15  0.484677  0.345156  0.740666  0.069648
    C   C23  0.506219  0.588556  0.220837  0.099293
    C   C24  0.506244  0.593503  0.140359  -0.371701
    H   H16  0.510592  0.646135  0.253529  0.079595
    H   H17  0.505059  0.606135  0.891496  0.061889
    H   H18  0.510616  0.654401  0.111426  0.134950
    H   H19  0.505135  0.613877  0.751701  0.115426
    N   N3   0.513350  0.716601  0.506283  -0.120856
    C   C25  0.439656  0.761467  0.459710  -0.043214
    C   C26  0.443845  0.848117  0.462466  -0.132410
    C   C27  0.524893  0.889136  0.513798  0.480808
    C   C28  0.599368  0.841816  0.560788  -0.355913
    C   C29  0.592597  0.755374  0.556412  0.116324
    C   C30  0.551805  0.143110  0.531750  -0.158833
    C   C31  0.555983  0.229760  0.534515  0.002339
    C   C32  0.470830  0.102096  0.480371  0.487391
    N   N4   0.533773  0.977773  0.519657  -0.217349
    N   N5   0.461955  0.013459  0.474509  -0.224217
    N   N6   0.482343  0.274629  0.487908  -0.133863
    H   H20  0.619137  0.261764  0.574516  0.159510
    H   H21  0.612884  0.110121  0.570390  0.074778
    H   H22  0.663198  0.872545  0.601215  0.152068
    H   H23  0.651254  0.718666  0.593521  0.138687
    C   C33  0.403186  0.235861  0.437723  0.115827
    C   C34  0.396422  0.149419  0.433340  -0.354416
    H   H24  0.344588  0.272573  0.400577  0.139743
    H   H25  0.382709  0.881104  0.423861  0.071531
    H   H26  0.332655  0.118693  0.392874  0.152189
    H   H27  0.376440  0.729460  0.419747  0.172353
    C   C35  0.884926  0.479991  0.648223  0.047588
    O   O9   0.914861  0.423639  0.707704  -0.605402
    H   H28  0.783139  0.486838  0.649326  -0.017536
    H   H29  0.931694  0.541978  0.660165  0.064576
    H   H30  0.833513  0.401882  0.728401  0.361830
