# generated using pymatgen
data_Fe2H13C38N3(ClO8)2
_symmetry_space_group_name_H-M   'P 1'
_cell_length_a   14.14682400
_cell_length_b   14.19852000
_cell_length_c   13.10171200
_cell_angle_alpha   86.95561500
_cell_angle_beta   93.16190300
_cell_angle_gamma   116.58271500
_symmetry_Int_Tables_number   1
_chemical_formula_structural   Fe2H13C38N3(ClO8)2
_chemical_formula_sum   'Fe2 H13 C38 N3 Cl2 O16'
_cell_volume   2348.69302136
_cell_formula_units_Z   1
loop_
 _symmetry_equiv_pos_site_id
 _symmetry_equiv_pos_as_xyz
  1  'x, y, z'
loop_
 _atom_site_type_symbol
 _atom_site_label
 _atom_site_symmetry_multiplicity
 _atom_site_fract_x
 _atom_site_fract_y
 _atom_site_fract_z
 _atom_site_occupancy
  Fe  Fe1  1  0.51455100  0.01898100  0.22891500  1
  Fe  Fe2  1  0.51975900  0.01800400  0.77183100  1
  H  H1  1  0.85697000  0.98170200  0.20873400  1
  H  H2  1  0.81087500  0.00294500  0.83698400  1
  H  H3  1  0.15628300  0.01080400  0.79593100  1
  H  H4  1  0.20465600  0.99032800  0.16744200  1
  H  H5  1  0.12894900  0.13551900  0.25583300  1
  H  H6  1  0.11879800  0.06399100  0.44159000  1
  H  H7  1  0.99989700  0.85624600  0.44272700  1
  H  H8  1  0.93798900  0.80448700  0.24862000  1
  H  H9  1  0.47339600  0.36611000  0.31297800  1
  H  H10  1  0.51198200  0.38380600  0.63831500  1
  H  H11  1  0.49934100  0.64148000  0.68740700  1
  H  H12  1  0.57223400  0.16159300  0.48077200  1
  H  H13  1  0.42087800  0.86050600  0.51781100  1
  C  C1  1  0.84832300  0.98469800  0.12657100  1
  C  C2  1  0.75801700  0.98878600  0.08494200  1
  C  C3  1  0.74582900  0.99464300  0.97908900  1
  C  C4  1  0.82462100  0.99979300  0.91838400  1
  C  C5  1  0.91539800  0.99668800  0.95996700  1
  C  C6  1  0.92713300  0.98817600  0.06491300  1
  C  C7  1  0.99375100  0.00174500  0.89703800  1
  C  C8  1  0.08538500  0.00038900  0.93963900  1
  C  C9  1  0.09771500  0.99255800  0.04456000  1
  C  C10  1  0.01824000  0.98530000  0.10742000  1
  C  C11  1  0.16513800  0.00709500  0.87782000  1
  C  C12  1  0.25881800  0.01045400  0.91877900  1
  C  C13  1  0.27210600  0.00573800  0.02491700  1
  C  C14  1  0.19062400  0.99352500  0.08591500  1
  C  C15  1  0.08095900  0.01710600  0.37559100  1
  C  C16  1  0.01931100  0.90931500  0.37646100  1
  C  C17  1  0.98730700  0.88250400  0.27631500  1
  C  C18  1  0.03083700  0.97516200  0.21863600  1
  C  C19  1  0.68045500  0.99060200  0.15507800  1
  C  C20  1  0.45632400  0.82159300  0.33603700  1
  C  C21  1  0.37200000  0.02092300  0.07764000  1
  C  C22  1  0.51173800  0.19829600  0.29987600  1
  C  C23  1  0.47859400  0.81955700  0.70122100  1
  C  C24  1  0.65047000  0.99136000  0.92608800  1
  C  C25  1  0.54571100  0.20943900  0.66655400  1
  C  C26  1  0.33815400  0.01461600  0.84707000  1
  C  C27  1  0.52900500  0.26284000  0.38821300  1
  C  C28  1  0.49759600  0.34155200  0.38513300  1
  C  C29  1  0.49825700  0.39054100  0.47344800  1
  C  C30  1  0.52009000  0.35266900  0.56756300  1
  C  C31  1  0.54522200  0.26856200  0.57092000  1
  C  C32  1  0.55557100  0.22875400  0.48041300  1
  C  C33  1  0.48093600  0.67050000  0.61483800  1
  C  C34  1  0.45766100  0.75480500  0.61174500  1
  C  C35  1  0.43582000  0.79224600  0.51918900  1
  C  C36  1  0.44866600  0.75463000  0.42846200  1
  C  C37  1  0.47281700  0.66932600  0.43090600  1
  C  C38  1  0.48314200  0.62334100  0.52607400  1
  N  N1  1  0.08760100  0.05661100  0.27918400  1
  N  N2  1  0.47091800  0.47502500  0.46478300  1
  N  N3  1  0.50735900  0.53637700  0.53671400  1
  Cl  Cl1  1  0.51094100  0.63711500  0.31680800  1
  Cl  Cl2  1  0.97800900  0.01272600  0.76309500  1
  O  O1  1  0.61523900  0.03022400  0.12442600  1
  O  O2  1  0.43804100  0.78548500  0.24318800  1
  O  O3  1  0.68040100  0.95768400  0.25053700  1
  O  O4  1  0.48652000  0.92205300  0.35004800  1
  O  O5  1  0.37057100  0.96274200  0.15964900  1
  O  O6  1  0.45939000  0.10564500  0.05641300  1
  O  O7  1  0.58252600  0.16554100  0.28190900  1
  O  O8  1  0.41431200  0.14615400  0.26448100  1
  O  O9  1  0.43046000  0.87981400  0.70591900  1
  O  O10  1  0.56518600  0.84024600  0.75658100  1
  O  O11  1  0.66011100  0.04504700  0.83918600  1
  O  O12  1  0.55640200  0.92250800  0.95511500  1
  O  O13  1  0.31862000  0.01498600  0.74798400  1
  O  O14  1  0.56424300  0.12707200  0.66023600  1
  O  O15  1  0.42700200  0.01466500  0.88111300  1
  O  O16  1  0.50999300  0.22604700  0.75065500  1
