data_DB0-m3_o11_o29_f0_pcu.sym.17_repeat
_audit_creation_date              2024-02-23
_audit_creation_method            'Materials Studio'
_symmetry_space_group_name_H-M    'P1'
_symmetry_Int_Tables_number       1
_symmetry_cell_setting            triclinic
loop_
_symmetry_equiv_pos_as_xyz
  x,y,z
_cell_length_a                    27.6120
_cell_length_b                    11.1375
_cell_length_c                    9.9042
_cell_angle_alpha                 89.9974
_cell_angle_beta                  89.9930
_cell_angle_gamma                 89.9936
loop_
_atom_site_label
_atom_site_type_symbol
_atom_site_fract_x
_atom_site_fract_y
_atom_site_fract_z
_atom_site_U_iso_or_equiv
_atom_site_adp_type
_atom_site_occupancy
O1     O     0.50145   0.31686   0.61979   0.00000  Uiso   1.00
O2     O     0.49887   0.31742   0.38727   0.00000  Uiso   1.00
C1     C     0.50018   0.26110   0.50372   0.00000  Uiso   1.00
O3     O     0.42861   0.49369   0.63098   0.00000  Uiso   1.00
O4     O     0.42626   0.49583   0.39845   0.00000  Uiso   1.00
C2     C     0.40475   0.49447   0.51642   0.00000  Uiso   1.00
Zn1    Zn    0.50122   0.49490   0.66063   0.00000  Uiso   1.00
Zn2    Zn    0.49782   0.49699   0.35352   0.00000  Uiso   1.00
O5     O     0.50026   0.67433   0.62722   0.00000  Uiso   1.00
O6     O     0.49837   0.67540   0.39373   0.00000  Uiso   1.00
O7     O     0.57282   0.49691   0.61608   0.00000  Uiso   1.00
O8     O     0.57046   0.49711   0.38282   0.00000  Uiso   1.00
C3     C     0.49906   0.73078   0.51083   0.00000  Uiso   1.00
C4     C     0.59426   0.49737   0.49773   0.00000  Uiso   1.00
C5     C     0.17548   0.39216   0.54010   0.00000  Uiso   1.00
O9     O     0.20025   0.28933   0.55645   0.00000  Uiso   1.00
N1     N     0.19979   0.49601   0.52477   0.00000  Uiso   1.00
C6     C     0.17579   0.59994   0.50655   0.00000  Uiso   1.00
C7     C     0.27593   0.52122   0.40580   0.00000  Uiso   1.00
C8     C     0.32581   0.51975   0.40334   0.00000  Uiso   1.00
C9     C     0.32701   0.47012   0.63800   0.00000  Uiso   1.00
C10    C     0.27702   0.46938   0.63949   0.00000  Uiso   1.00
C11    C     0.25140   0.49557   0.52355   0.00000  Uiso   1.00
C12    C     0.10009   0.49605   0.51715   0.00000  Uiso   1.00
C13    C     0.12539   0.39074   0.53509   0.00000  Uiso   1.00
C14    C     0.10049   0.28456   0.54839   0.00000  Uiso   1.00
C15    C     0.12570   0.60144   0.50404   0.00000  Uiso   1.00
C16    C     0.35166   0.49474   0.51959   0.00000  Uiso   1.00
H1     H     0.34641   0.44980   0.72996   0.00000  Uiso   1.00
H2     H     0.25798   0.44959   0.73224   0.00000  Uiso   1.00
H3     H     0.11925   0.20082   0.56576   0.00000  Uiso   1.00
C17    C     0.64736   0.49806   0.49436   0.00000  Uiso   1.00
C18    C     0.97438   0.38773   0.49973   0.00000  Uiso   1.00
C19    C     0.97419   0.60364   0.50546   0.00000  Uiso   1.00
C20    C     0.94925   0.49547   0.49942   0.00000  Uiso   1.00
C21    C     0.94846   0.28198   0.48096   0.00000  Uiso   1.00
C22    C     0.89887   0.28221   0.46807   0.00000  Uiso   1.00
C23    C     0.87338   0.38890   0.47992   0.00000  Uiso   1.00
C24    C     0.89886   0.49506   0.49415   0.00000  Uiso   1.00
C25    C     0.87345   0.60126   0.50365   0.00000  Uiso   1.00
C26    C     0.82343   0.60064   0.50188   0.00000  Uiso   1.00
N2     N     0.79919   0.49675   0.48864   0.00000  Uiso   1.00
C27    C     0.82293   0.39175   0.47728   0.00000  Uiso   1.00
C28    C     0.72189   0.47202   0.37418   0.00000  Uiso   1.00
C29    C     0.67192   0.47341   0.37582   0.00000  Uiso   1.00
C30    C     0.67330   0.52275   0.61056   0.00000  Uiso   1.00
C31    C     0.72319   0.52361   0.60794   0.00000  Uiso   1.00
C32    C     0.74760   0.49757   0.49010   0.00000  Uiso   1.00
O10    O     0.79695   0.29015   0.46786   0.00000  Uiso   1.00
C33    C     0.02473   0.38803   0.51650   0.00000  Uiso   1.00
C34    C     0.04977   0.49593   0.51174   0.00000  Uiso   1.00
C35    C     0.02486   0.60369   0.50118   0.00000  Uiso   1.00
C36    C     0.05088   0.28286   0.53891   0.00000  Uiso   1.00
H4     H     0.65246   0.45324   0.28391   0.00000  Uiso   1.00
H5     H     0.74087   0.45190   0.28143   0.00000  Uiso   1.00
H6     H     0.96563   0.19589   0.47022   0.00000  Uiso   1.00
H7     H     0.03417   0.19682   0.55474   0.00000  Uiso   1.00
O11    O     0.20086   0.70262   0.49264   0.00000  Uiso   1.00
C37    C     0.10115   0.70761   0.48631   0.00000  Uiso   1.00
H8     H     0.34415   0.53988   0.30965   0.00000  Uiso   1.00
H9     H     0.25605   0.54119   0.31448   0.00000  Uiso   1.00
H10    H     0.12024   0.79144   0.47288   0.00000  Uiso   1.00
C38    C     0.94770   0.70945   0.51718   0.00000  Uiso   1.00
C39    C     0.89805   0.70787   0.51688   0.00000  Uiso   1.00
O12    O     0.79861   0.70404   0.51198   0.00000  Uiso   1.00
C40    C     0.05143   0.70910   0.48534   0.00000  Uiso   1.00
H11    H     0.96400   0.79604   0.53251   0.00000  Uiso   1.00
H12    H     0.65501   0.54291   0.70432   0.00000  Uiso   1.00
H13    H     0.87903   0.79214   0.52724   0.00000  Uiso   1.00
H14    H     0.74318   0.54325   0.69915   0.00000  Uiso   1.00
H15    H     0.03515   0.79515   0.46638   0.00000  Uiso   1.00
C41    C     0.49862   0.92819   0.40067   0.00000  Uiso   1.00
C42    C     0.49878   0.86236   0.51411   0.00000  Uiso   1.00
H16    H     0.49841   0.88301   0.30382   0.00000  Uiso   1.00
H17    H     0.49851   0.90266   0.61312   0.00000  Uiso   1.00
C43    C     0.49833   0.06130   0.39794   0.00000  Uiso   1.00
C44    C     0.50076   0.12967   0.50877   0.00000  Uiso   1.00
H18    H     0.49621   0.10417   0.29991   0.00000  Uiso   1.00
H19    H     0.50333   0.09119   0.60842   0.00000  Uiso   1.00
C45    C     0.51928   0.58046   0.93458   0.00000  Uiso   1.00
N3     N     0.50439   0.49206   0.86238   0.00000  Uiso   1.00
H20    H     0.53133   0.66222   0.88574   0.00000  Uiso   1.00
H21    H     0.49909   0.41183   0.91129   0.00000  Uiso   1.00
C46    C     0.52308   0.57092   0.08322   0.00000  Uiso   1.00
N4     N     0.49538   0.50094   0.15174   0.00000  Uiso   1.00
H22    H     0.54862   0.62816   0.13576   0.00000  Uiso   1.00
H23    H     0.46748   0.46009   0.10081   0.00000  Uiso   1.00
O13    O     0.87582   0.17475   0.44801   0.00000  Uiso   1.00
C47    C     0.87904   0.15248   0.30933   0.00000  Uiso   1.00
H24    H     0.91519   0.11508   0.28461   0.00000  Uiso   1.00
H25    H     0.87317   0.23673   0.25196   0.00000  Uiso   1.00
C48    C     0.84075   0.06195   0.26903   0.00000  Uiso   1.00
H26    H     0.80425   0.09874   0.29046   0.00000  Uiso   1.00
H27    H     0.84393   0.04255   0.15956   0.00000  Uiso   1.00
H28    H     0.84608   0.97786   0.32713   0.00000  Uiso   1.00
