# generated using pymatgen
data_Fe2H13C41NO16
_symmetry_space_group_name_H-M   'P 1'
_cell_length_a   14.42207100
_cell_length_b   12.36459500
_cell_length_c   13.29876300
_cell_angle_alpha   80.95293600
_cell_angle_beta   93.00880000
_cell_angle_gamma   114.59710400
_symmetry_Int_Tables_number   1
_chemical_formula_structural   Fe2H13C41NO16
_chemical_formula_sum   'Fe2 H13 C41 N1 O16'
_cell_volume   2129.23462181
_cell_formula_units_Z   1
loop_
 _symmetry_equiv_pos_site_id
 _symmetry_equiv_pos_as_xyz
  1  'x, y, z'
loop_
 _atom_site_type_symbol
 _atom_site_label
 _atom_site_symmetry_multiplicity
 _atom_site_fract_x
 _atom_site_fract_y
 _atom_site_fract_z
 _atom_site_occupancy
  Fe  Fe1  1  0.50332600  0.00975600  0.14737700  1
  Fe  Fe2  1  0.51586200  0.03185100  0.70305700  1
  H  H1  1  0.12978400  0.91894100  0.73522100  1
  H  H2  1  0.98991100  0.89527700  0.83599100  1
  H  H3  1  0.98070300  0.07022600  0.83999700  1
  H  H4  1  0.82754500  0.07401700  0.76805700  1
  H  H5  1  0.23682400  0.93492500  0.16155700  1
  H  H6  1  0.09842600  0.91768700  0.26040600  1
  H  H7  1  0.93988400  0.91811200  0.27753600  1
  H  H8  1  0.79011400  0.93384900  0.21059200  1
  H  H9  1  0.42234500  0.85156800  0.45222600  1
  H  H10  1  0.52141300  0.61837000  0.64567900  1
  H  H11  1  0.52240000  0.15429100  0.40809400  1
  H  H12  1  0.42107600  0.37298300  0.20056300  1
  H  H13  1  0.52318000  0.45103600  0.59492200  1
  C  C1  1  0.24111000  0.96471500  0.85308400  1
  C  C2  1  0.14434000  0.93410700  0.81342500  1
  C  C3  1  0.06387500  0.92497700  0.87079000  1
  C  C4  1  0.91385600  0.03152200  0.88860000  1
  C  C5  1  0.25247900  0.97004400  0.95757000  1
  C  C6  1  0.16823900  0.95513500  0.01594400  1
  C  C7  1  0.07718200  0.94899800  0.97020400  1
  C  C8  1  0.99944400  0.95471000  0.02829400  1
  C  C9  1  0.82725000  0.04030000  0.84813200  1
  C  C10  1  0.74080600  0.00297600  0.90718500  1
  C  C11  1  0.91477700  0.97742000  0.98815500  1
  C  C12  1  0.83398100  0.96029300  0.05217700  1
  C  C13  1  0.74597100  0.97237000  0.01159400  1
  C  C14  1  0.17367100  0.94365300  0.12083300  1
  C  C15  1  0.09301900  0.93081000  0.17837800  1
  C  C16  1  0.00788900  0.93866700  0.13330300  1
  C  C17  1  0.93193700  0.93103400  0.19579300  1
  C  C18  1  0.84505200  0.93867300  0.15644300  1
  C  C19  1  0.66071900  0.96004900  0.07677500  1
  C  C20  1  0.43745400  0.78468500  0.28084800  1
  C  C21  1  0.35377500  0.00506700  0.00530200  1
  C  C22  1  0.46256700  0.17777500  0.22645300  1
  C  C23  1  0.49635600  0.82147000  0.63278700  1
  C  C24  1  0.64587300  0.99646100  0.85647600  1
  C  C25  1  0.51046200  0.23560600  0.57454800  1
  C  C26  1  0.32481700  0.98285900  0.78241700  1
  C  C27  1  0.42839800  0.70909600  0.38229500  1
  C  C28  1  0.43358500  0.76944000  0.46392600  1
  C  C29  1  0.46717900  0.73783900  0.55788500  1
  C  C30  1  0.49114500  0.64046600  0.57312300  1
  C  C31  1  0.47448900  0.56948900  0.49780700  1
  C  C32  1  0.44005900  0.59928600  0.40205300  1
  C  C33  1  0.49440700  0.46858500  0.52049100  1
  C  C34  1  0.48492200  0.39644500  0.44800800  1
  C  C35  1  0.45275700  0.42510100  0.35156200  1
  C  C36  1  0.42048800  0.51822800  0.33219300  1
  C  C37  1  0.50561000  0.29484600  0.47059500  1
  C  C38  1  0.50854400  0.23466600  0.39281400  1
  C  C39  1  0.48079900  0.26472600  0.29619200  1
  C  C40  1  0.44774000  0.35586300  0.27628800  1
  C  C41  1  0.34601400  0.50866400  0.25382800  1
  N  N1  1  0.28527000  0.49905800  0.19131800  1
  O  O1  1  0.61943300  0.03855600  0.05798200  1
  O  O2  1  0.42300700  0.74277700  0.19425100  1
  O  O3  1  0.62187400  0.86719500  0.14831000  1
  O  O4  1  0.47487500  0.90186800  0.27966200  1
  O  O5  1  0.37499700  0.92749400  0.07166200  1
  O  O6  1  0.41794500  0.11884600  0.99193600  1
  O  O7  1  0.53985000  0.17603800  0.17918800  1
  O  O8  1  0.37887400  0.07899700  0.24136400  1
  O  O9  1  0.43891900  0.87737700  0.64684900  1
  O  O10  1  0.58844300  0.85682000  0.67020500  1
  O  O11  1  0.65164000  0.06381600  0.76838800  1
  O  O12  1  0.55717500  0.91281900  0.89060100  1
  O  O13  1  0.30315100  0.96686500  0.68734500  1
  O  O14  1  0.55613500  0.16233000  0.58513000  1
  O  O15  1  0.42047900  0.01842200  0.81114300  1
  O  O16  1  0.44789600  0.22835500  0.64600000  1
