data_DB0-m3_o21_o22_f0_pcu.sym.133_repeat
_audit_creation_date              2024-02-23
_audit_creation_method            'Materials Studio'
_symmetry_space_group_name_H-M    'P1'
_symmetry_Int_Tables_number       1
_symmetry_cell_setting            triclinic
loop_
_symmetry_equiv_pos_as_xyz
  x,y,z
_cell_length_a                    10.7630
_cell_length_b                    12.9524
_cell_length_c                    14.0949
_cell_angle_alpha                 88.9105
_cell_angle_beta                  90.0144
_cell_angle_gamma                 93.6162
loop_
_atom_site_label
_atom_site_type_symbol
_atom_site_fract_x
_atom_site_fract_y
_atom_site_fract_z
_atom_site_U_iso_or_equiv
_atom_site_adp_type
_atom_site_occupancy
O1     O     0.48871   0.40496   0.64722   0.00000  Uiso   1.00
O2     O     0.50225   0.58317   0.65726   0.00000  Uiso   1.00
C1     C     0.49471   0.49020   0.69621   0.00000  Uiso   1.00
O3     O     0.67589   0.41737   0.50705   0.00000  Uiso   1.00
O4     O     0.68948   0.59546   0.51701   0.00000  Uiso   1.00
C2     C     0.74077   0.50635   0.51220   0.00000  Uiso   1.00
Zn1    Zn    0.48867   0.38907   0.50451   0.00000  Uiso   1.00
Zn2    Zn    0.50651   0.62393   0.51775   0.00000  Uiso   1.00
O5     O     0.49295   0.42983   0.36502   0.00000  Uiso   1.00
O6     O     0.50653   0.60805   0.37502   0.00000  Uiso   1.00
O7     O     0.30576   0.41755   0.50527   0.00000  Uiso   1.00
O8     O     0.31922   0.59564   0.51520   0.00000  Uiso   1.00
C3     C     0.50049   0.52277   0.32605   0.00000  Uiso   1.00
C4     C     0.25440   0.50656   0.51006   0.00000  Uiso   1.00
C5     C     0.91894   0.39593   0.50558   0.00000  Uiso   1.00
H1     H     0.88321   0.36033   0.43914   0.00000  Uiso   1.00
H2     H     0.88257   0.34919   0.56748   0.00000  Uiso   1.00
C6     C     0.05947   0.39595   0.50548   0.00000  Uiso   1.00
H3     H     0.08905   0.34994   0.56777   0.00000  Uiso   1.00
H4     H     0.08950   0.35957   0.43936   0.00000  Uiso   1.00
H5     H     0.89326   0.53448   0.36036   0.00000  Uiso   1.00
H6     H     0.10244   0.53274   0.35915   0.00000  Uiso   1.00
C7     C     0.93122   0.56866   0.42670   0.00000  Uiso   1.00
C8     C     0.93148   0.55379   0.60219   0.00000  Uiso   1.00
C9     C     0.87962   0.50622   0.51171   0.00000  Uiso   1.00
H7     H     0.90360   0.63442   0.60784   0.00000  Uiso   1.00
H8     H     0.89484   0.50801   0.66453   0.00000  Uiso   1.00
C10    C     0.11552   0.50634   0.51054   0.00000  Uiso   1.00
C11    C     0.07196   0.56810   0.42561   0.00000  Uiso   1.00
C12    C     0.07231   0.55455   0.60116   0.00000  Uiso   1.00
H9     H     0.10431   0.50996   0.66351   0.00000  Uiso   1.00
H10    H     0.11134   0.63563   0.60545   0.00000  Uiso   1.00
H11    H     0.90446   0.64976   0.43064   0.00000  Uiso   1.00
H12    H     0.11211   0.64898   0.42815   0.00000  Uiso   1.00
C13    C     0.50459   0.53143   0.22443   0.00000  Uiso   1.00
C14    C     0.51530   0.54495   0.03717   0.00000  Uiso   1.00
C15    C     0.48602   0.46231   0.98501   0.00000  Uiso   1.00
C16    C     0.48917   0.47278   0.88312   0.00000  Uiso   1.00
C17    C     0.50905   0.53793   0.13908   0.00000  Uiso   1.00
C18    C     0.49190   0.48110   0.79782   0.00000  Uiso   1.00
H13    H     0.54206   0.61847   0.00260   0.00000  Uiso   1.00
N1     N     0.47694   0.23483   0.49576   0.00000  Uiso   1.00
C19    C     0.46156   0.03472   0.48411   0.00000  Uiso   1.00
C20    C     0.53363   0.97828   0.53814   0.00000  Uiso   1.00
C21    C     0.52509   0.86739   0.53168   0.00000  Uiso   1.00
C22    C     0.47009   0.14561   0.49058   0.00000  Uiso   1.00
N2     N     0.51823   0.77817   0.52650   0.00000  Uiso   1.00
H14    H     0.59885   0.01583   0.58710   0.00000  Uiso   1.00
H15    H     0.39633   0.99717   0.43515   0.00000  Uiso   1.00
N3     N     0.44992   0.36618   0.02987   0.00000  Uiso   1.00
C23    C     0.55427   0.30604   0.05170   0.00000  Uiso   1.00
C24    C     0.50866   0.20804   0.10482   0.00000  Uiso   1.00
O9     O     0.42334   0.14940   0.04952   0.00000  Uiso   1.00
C25    C     0.32023   0.20868   0.03574   0.00000  Uiso   1.00
C26    C     0.35767   0.30533   0.97799   0.00000  Uiso   1.00
H16    H     0.62191   0.35089   0.09660   0.00000  Uiso   1.00
H17    H     0.60103   0.28551   0.98515   0.00000  Uiso   1.00
H18    H     0.46641   0.22735   0.17350   0.00000  Uiso   1.00
H19    H     0.58970   0.16164   0.12018   0.00000  Uiso   1.00
H20    H     0.27968   0.22938   0.10463   0.00000  Uiso   1.00
H21    H     0.24798   0.16243   0.99606   0.00000  Uiso   1.00
H22    H     0.27478   0.35052   0.96563   0.00000  Uiso   1.00
H23    H     0.39577   0.28132   0.90928   0.00000  Uiso   1.00
