# Generated by REPEAT Assigner based on pymatgen
data_DB0-m3_o490_o158_f0_fsc.sym.8_sqe
_audit_creation_date              2022-05-24
_audit_creation_method            REPEAT_Assigner
_cell_length_a                    13.416184
_cell_length_b                    8.558438
_cell_length_c                    10.688784
_cell_angle_alpha                 90.000000
_cell_angle_beta                  97.908575
_cell_angle_gamma                 90.000000
_cell_volume                      1215.630131
_symmetry_space_group_name_H-M    P1
_symmetry_Int_Tables_number       1
loop_
    _symmetry_equiv_pos_site_id
    _symmetry_equiv_pos_as_xyz
    1  x,y,z
loop_
    _atom_site_type_symbol
    _atom_site_label
    _atom_site_fract_x
    _atom_site_fract_y
    _atom_site_fract_z
    _atom_type_partial_charge
    C   C1   0.041894  0.996996  0.689429  -0.119093
    C   C2   0.958106  0.003004  0.310571  -0.119043
    C   C3   0.024094  0.136500  0.746312  -0.129916
    C   C4   0.975906  0.863500  0.253688  -0.130077
    C   C5   0.963348  0.142359  0.247879  -0.207866
    C   C6   0.036652  0.857641  0.752121  -0.207770
    C   C7   0.004524  0.137616  0.870036  0.059193
    C   C8   0.995476  0.862384  0.129965  0.059352
    C   C9   0.975734  0.140657  0.121480  0.087934
    C   C10  0.024266  0.859343  0.878520  0.087771
    C   C11  0.982589  0.275523  0.927361  -0.192903
    C   C12  0.017412  0.724477  0.072639  -0.193042
    C   C13  0.969655  0.277235  0.052851  -0.176731
    C   C14  0.030345  0.722765  0.947149  -0.176643
    C   C15  0.007884  0.999354  0.937351  0.063462
    C   C16  0.992116  0.000646  0.062649  0.063303
    H   H1   0.974680  0.383267  0.875086  0.149659
    H   H2   0.025320  0.616733  0.124914  0.149706
    H   H3   0.950548  0.385285  0.095301  0.088494
    H   H4   0.049452  0.614715  0.904699  0.088521
    H   H5   0.052658  0.996033  0.591358  0.132536
    H   H6   0.947342  0.003967  0.408642  0.132546
    O   O1   0.926438  0.331885  0.628478  -0.702055
    O   O2   0.073562  0.668115  0.371522  -0.702065
    O   O3   0.066145  0.331245  0.366546  -0.750298
    O   O4   0.933855  0.668756  0.633454  -0.750254
    O   O5   0.098437  0.329768  0.628203  -0.723557
    O   O6   0.901564  0.670232  0.371797  -0.723694
    O   O7   0.894284  0.343120  0.366290  -0.752899
    O   O8   0.105716  0.656880  0.633710  -0.752889
    C   C17  0.016546  0.277119  0.668114  0.846612
    C   C18  0.983454  0.722881  0.331886  0.846832
    C   C19  0.974159  0.285249  0.324479  0.976557
    C   C20  0.025842  0.714751  0.675521  0.976488
    Zn  Zn1  0.110902  0.495489  0.497295  1.031593
    Zn  Zn2  0.889098  0.504511  0.502705  1.031606
    C   C21  0.698103  0.521931  0.393961  -0.283901
    C   C22  0.301897  0.478069  0.606039  -0.283983
    N   N1   0.758718  0.510922  0.505007  0.232990
    N   N2   0.241282  0.489078  0.494993  0.233028
    C   C23  0.719999  0.488809  0.613278  -0.287036
    C   C24  0.280001  0.511191  0.386722  -0.287005
    C   C25  0.617130  0.483087  0.612508  0.163245
    C   C26  0.382870  0.516913  0.387492  0.163116
    C   C27  0.554174  0.503887  0.500808  -0.071892
    C   C28  0.445826  0.496113  0.499193  -0.071793
    C   C29  0.594590  0.520378  0.389732  0.226678
    C   C30  0.405411  0.479622  0.610268  0.226708
    C   C31  0.576079  0.427124  0.726872  -0.042863
    C   C32  0.423921  0.572876  0.273128  -0.042993
    C   C33  0.471618  0.490438  0.734571  -0.091877
    C   C34  0.528382  0.509562  0.265429  -0.091819
    H   H7   0.769767  0.469000  0.700246  0.190577
    H   H8   0.230233  0.531000  0.299754  0.190615
    H   H9   0.626827  0.462813  0.812882  0.078917
    H   H10  0.373174  0.537187  0.187118  0.078921
    H   H11  0.427656  0.702287  0.276225  0.086232
    H   H12  0.572344  0.297713  0.723775  0.086181
    H   H13  0.731600  0.526086  0.307832  0.195629
    H   H14  0.268400  0.473914  0.692168  0.195635
    Cl  Cl1  0.481179  0.689609  0.781995  -0.037837
    Cl  Cl2  0.518822  0.310391  0.218005  -0.037839
    Cl  Cl3  0.580021  0.619521  0.148320  -0.039497
    Cl  Cl4  0.419979  0.380479  0.851680  -0.039504
