# generated using pymatgen
data_Zn2H23C38N3O8
_symmetry_space_group_name_H-M   'P 1'
_cell_length_a   13.43227100
_cell_length_b   8.56240500
_cell_length_c   10.76562400
_cell_angle_alpha   90.00000000
_cell_angle_beta   97.86124400
_cell_angle_gamma   90.00000000
_symmetry_Int_Tables_number   1
_chemical_formula_structural   Zn2H23C38N3O8
_chemical_formula_sum   'Zn2 H23 C38 N3 O8'
_cell_volume   1226.54563147
_cell_formula_units_Z   1
loop_
 _symmetry_equiv_pos_site_id
 _symmetry_equiv_pos_as_xyz
  1  'x, y, z'
loop_
 _atom_site_type_symbol
 _atom_site_label
 _atom_site_symmetry_multiplicity
 _atom_site_fract_x
 _atom_site_fract_y
 _atom_site_fract_z
 _atom_site_occupancy
  Zn  Zn1  1  0.10871000  0.51158200  0.48298000  1
  Zn  Zn2  1  0.88661900  0.51122900  0.48563100  1
  H  H1  1  0.06613200  0.37996200  0.89856600  1
  H  H2  1  0.99851400  0.62488400  0.86962400  1
  H  H3  1  0.06383700  0.36400900  0.10277900  1
  H  H4  1  0.10345900  0.72710100  0.05615000  1
  H  H5  1  0.05204300  0.00983700  0.57617900  1
  H  H6  1  0.94305300  0.00983700  0.39233800  1
  H  H7  1  0.93127600  0.36392900  0.86577000  1
  H  H8  1  0.89071300  0.72770800  0.91202800  1
  H  H9  1  0.92896000  0.37978100  0.06996600  1
  H  H10  1  0.99542700  0.62482800  0.09847600  1
  H  H11  1  0.77205200  0.50918700  0.68226300  1
  H  H12  1  0.23114200  0.51860200  0.28750500  1
  H  H13  1  0.37253300  0.52462400  0.17924000  1
  H  H14  1  0.55058700  0.52535200  0.17651000  1
  H  H15  1  0.59633500  0.50984500  0.69315700  1
  H  H16  1  0.44362400  0.50671200  0.69312500  1
  H  H17  1  0.26537300  0.50672000  0.68041300  1
  H  H18  1  0.71378400  0.60654700  0.20745200  1
  H  H19  1  0.71251900  0.47738800  0.01624900  1
  H  H20  1  0.68232100  0.23354400  0.89835400  1
  H  H21  1  0.66849800  0.98536200  0.00954400  1
  H  H22  1  0.68563700  0.98152200  0.23973500  1
  H  H23  1  0.71630500  0.22196000  0.35920000  1
  C  C1  1  0.04007900  0.01064200  0.67323200  1
  C  C2  1  0.02674300  0.15066600  0.73133000  1
  C  C3  1  0.02507600  0.87175100  0.73206000  1
  C  C4  1  0.01175600  0.15332600  0.85545100  1
  C  C5  1  0.00376900  0.87418000  0.85437700  1
  C  C6  1  0.00036400  0.30809200  0.91420800  1
  C  C7  1  0.97366200  0.72975100  0.91628600  1
  C  C8  1  0.99479100  0.30806000  0.05433300  1
  C  C9  1  0.02051400  0.72957500  0.05188800  1
  C  C10  1  0.00451400  0.01445600  0.91845500  1
  C  C11  1  0.99029900  0.01442700  0.04995600  1
  C  C12  1  0.98343800  0.15327800  0.11308300  1
  C  C13  1  0.99071700  0.87408800  0.11392300  1
  C  C14  1  0.96864700  0.15058800  0.23725600  1
  C  C15  1  0.96942000  0.87164500  0.23626100  1
  C  C16  1  0.95493700  0.01061500  0.29525700  1
  C  C17  1  0.01731300  0.29247000  0.65478800  1
  C  C18  1  0.01646100  0.73031500  0.65484900  1
  C  C19  1  0.97811300  0.29238500  0.31378400  1
  C  C20  1  0.97803700  0.73016700  0.31347800  1
  C  C21  1  0.69253600  0.51267400  0.37698500  1
  C  C22  1  0.72034700  0.51031200  0.59601300  1
  C  C23  1  0.61851100  0.51073700  0.60107500  1
  C  C24  1  0.55060800  0.51319300  0.49139300  1
  C  C25  1  0.58906900  0.51553800  0.37809300  1
  C  C26  1  0.40176200  0.50963600  0.60076200  1
  C  C27  1  0.44615400  0.51326200  0.49154700  1
  C  C28  1  0.38298900  0.51665400  0.37868400  1
  C  C29  1  0.42203300  0.52099200  0.26725400  1
  C  C30  1  0.52409000  0.52061600  0.26652600  1
  C  C31  1  0.29863200  0.50928400  0.59453200  1
  C  C32  1  0.27984300  0.51602000  0.37615400  1
  C  C33  1  0.71519800  0.36799700  0.19565800  1
  C  C34  1  0.70630100  0.36908800  0.06624000  1
  C  C35  1  0.68940200  0.23194900  0.99958500  1
  C  C36  1  0.68165000  0.09287400  0.06185400  1
  C  C37  1  0.69114700  0.09083600  0.19090300  1
  C  C38  1  0.70800200  0.22773000  0.25802200  1
  N  N1  1  0.75597000  0.51084000  0.48545000  1
  N  N2  1  0.23929500  0.51199300  0.48343400  1
  N  N3  1  0.73256300  0.50990000  0.26249500  1
  O  O1  1  0.92634600  0.34279600  0.61352400  1
  O  O2  1  0.92581500  0.67948800  0.61373200  1
  O  O3  1  0.09830800  0.34791300  0.61511600  1
  O  O4  1  0.09774400  0.67549800  0.61488100  1
  O  O5  1  0.06905600  0.34299600  0.35490100  1
  O  O6  1  0.06873400  0.67951100  0.35456300  1
  O  O7  1  0.89709800  0.34771700  0.35341600  1
  O  O8  1  0.89678000  0.67509600  0.35342900  1
