data_DB0-m3_o11_o23_f0_pcu.sym.16_repeat
_audit_creation_date              2024-02-23
_audit_creation_method            'Materials Studio'
_symmetry_space_group_name_H-M    'P1'
_symmetry_Int_Tables_number       1
_symmetry_cell_setting            triclinic
loop_
_symmetry_equiv_pos_as_xyz
  x,y,z
_cell_length_a                    15.9559
_cell_length_b                    11.1378
_cell_length_c                    9.9098
_cell_angle_alpha                 89.9974
_cell_angle_beta                  89.9750
_cell_angle_gamma                 89.9982
loop_
_atom_site_label
_atom_site_type_symbol
_atom_site_fract_x
_atom_site_fract_y
_atom_site_fract_z
_atom_site_U_iso_or_equiv
_atom_site_adp_type
_atom_site_occupancy
O1     O     0.49980   0.32188   0.61932   0.00000  Uiso   1.00
O2     O     0.50297   0.32079   0.38675   0.00000  Uiso   1.00
C1     C     0.50123   0.26529   0.50338   0.00000  Uiso   1.00
O3     O     0.37429   0.50046   0.60944   0.00000  Uiso   1.00
O4     O     0.37762   0.49914   0.37667   0.00000  Uiso   1.00
C2     C     0.33702   0.49960   0.49173   0.00000  Uiso   1.00
Zn1    Zn    0.49827   0.50121   0.65320   0.00000  Uiso   1.00
Zn2    Zn    0.50318   0.49907   0.34595   0.00000  Uiso   1.00
O5     O     0.49931   0.67937   0.61291   0.00000  Uiso   1.00
O6     O     0.50254   0.67873   0.37937   0.00000  Uiso   1.00
O7     O     0.62389   0.50132   0.62286   0.00000  Uiso   1.00
O8     O     0.62723   0.49994   0.38932   0.00000  Uiso   1.00
C3     C     0.50063   0.73490   0.49630   0.00000  Uiso   1.00
C4     C     0.66441   0.50067   0.50741   0.00000  Uiso   1.00
C5     C     0.05004   0.42771   0.61539   0.00000  Uiso   1.00
C6     C     0.04604   0.44134   0.36758   0.00000  Uiso   1.00
C7     C     0.95108   0.43434   0.37854   0.00000  Uiso   1.00
H1     H     0.92808   0.34608   0.63491   0.00000  Uiso   1.00
H2     H     0.06744   0.33215   0.60107   0.00000  Uiso   1.00
H3     H     0.06708   0.49025   0.27625   0.00000  Uiso   1.00
H4     H     0.07122   0.34875   0.36034   0.00000  Uiso   1.00
H5     H     0.93379   0.33842   0.38989   0.00000  Uiso   1.00
C8     C     0.75433   0.50090   0.50950   0.00000  Uiso   1.00
C9     C     0.07991   0.50038   0.49442   0.00000  Uiso   1.00
C10    C     0.95554   0.43732   0.62748   0.00000  Uiso   1.00
C11    C     0.92151   0.50125   0.50409   0.00000  Uiso   1.00
C12    C     0.95316   0.63001   0.50552   0.00000  Uiso   1.00
C13    C     0.04851   0.62970   0.50205   0.00000  Uiso   1.00
C14    C     0.82985   0.50107   0.50825   0.00000  Uiso   1.00
C15    C     0.17157   0.49993   0.49067   0.00000  Uiso   1.00
C16    C     0.24709   0.49969   0.48960   0.00000  Uiso   1.00
H6     H     0.92845   0.67698   0.59583   0.00000  Uiso   1.00
H7     H     0.08017   0.45968   0.70951   0.00000  Uiso   1.00
H8     H     0.93907   0.48853   0.71972   0.00000  Uiso   1.00
H9     H     0.92915   0.67934   0.41653   0.00000  Uiso   1.00
C17    C     0.50262   0.93477   0.39051   0.00000  Uiso   1.00
C18    C     0.50049   0.86633   0.50139   0.00000  Uiso   1.00
H10    H     0.50438   0.89197   0.29236   0.00000  Uiso   1.00
H11    H     0.49845   0.90474   0.60120   0.00000  Uiso   1.00
C19    C     0.50248   0.06789   0.39332   0.00000  Uiso   1.00
C20    C     0.50154   0.13372   0.50669   0.00000  Uiso   1.00
H12    H     0.50326   0.11312   0.29655   0.00000  Uiso   1.00
H13    H     0.50095   0.09346   0.60566   0.00000  Uiso   1.00
C21    C     0.54440   0.57225   0.92377   0.00000  Uiso   1.00
N1     N     0.49466   0.50527   0.85490   0.00000  Uiso   1.00
H14    H     0.59043   0.62676   0.87161   0.00000  Uiso   1.00
H15    H     0.44489   0.46772   0.90531   0.00000  Uiso   1.00
C22    C     0.53766   0.58219   0.07233   0.00000  Uiso   1.00
N2     N     0.50799   0.49615   0.14427   0.00000  Uiso   1.00
H16    H     0.56165   0.66202   0.12144   0.00000  Uiso   1.00
H17    H     0.49603   0.41661   0.09555   0.00000  Uiso   1.00
O9     O     0.91165   0.47813   0.26230   0.00000  Uiso   1.00
H18    H     0.94021   0.55374   0.23757   0.00000  Uiso   1.00
O10    O     0.08201   0.68754   0.61541   0.00000  Uiso   1.00
H19    H     0.04893   0.66163   0.69459   0.00000  Uiso   1.00
O11    O     0.07471   0.69156   0.38720   0.00000  Uiso   1.00
H20    H     0.09651   0.76882   0.42194   0.00000  Uiso   1.00
