# generated using pymatgen
data_ZnH12(C9O2)2
_symmetry_space_group_name_H-M   'P 1'
_cell_length_a   43.64177200
_cell_length_b   30.15245900
_cell_length_c   29.89635600
_cell_angle_alpha   90.00000000
_cell_angle_beta   132.59217900
_cell_angle_gamma   90.00000000
_symmetry_Int_Tables_number   1
_chemical_formula_structural   ZnH12(C9O2)2
_chemical_formula_sum   'Zn12 H144 C216 O48'
_cell_volume   28962.29497632
_cell_formula_units_Z   12
loop_
 _symmetry_equiv_pos_site_id
 _symmetry_equiv_pos_as_xyz
  1  'x, y, z'
loop_
 _atom_site_type_symbol
 _atom_site_label
 _atom_site_symmetry_multiplicity
 _atom_site_fract_x
 _atom_site_fract_y
 _atom_site_fract_z
 _atom_site_occupancy
  Zn  Zn1  1  0.49983600  0.55061000  0.00029300  1
  Zn  Zn2  1  0.99983600  0.05061000  0.00029300  1
  Zn  Zn3  1  0.49986800  0.45003200  0.99951200  1
  Zn  Zn4  1  0.99986800  0.95003200  0.99951200  1
  Zn  Zn5  1  0.00162400  0.50014900  0.45109300  1
  Zn  Zn6  1  0.99807000  0.49987600  0.54871200  1
  Zn  Zn7  1  0.50162400  0.00014900  0.45109300  1
  Zn  Zn8  1  0.49807000  0.99987600  0.54871200  1
  Zn  Zn9  1  0.45300200  0.49899600  0.45367600  1
  Zn  Zn10  1  0.54738600  0.49886500  0.54681300  1
  Zn  Zn11  1  0.95300200  0.99899600  0.45367600  1
  Zn  Zn12  1  0.04738600  0.99886500  0.54681300  1
  H  H1  1  0.21319000  0.54432700  0.65890400  1
  H  H2  1  0.78637100  0.54366400  0.34073300  1
  H  H3  1  0.71319000  0.04432700  0.65890400  1
  H  H4  1  0.28637100  0.04366400  0.34073300  1
  H  H5  1  0.28313800  0.53739000  0.72405300  1
  H  H6  1  0.71643800  0.53654200  0.27558400  1
  H  H7  1  0.78313800  0.03739000  0.72405300  1
  H  H8  1  0.21643800  0.03654200  0.27558400  1
  H  H9  1  0.28302900  0.42955700  0.78424700  1
  H  H10  1  0.71682800  0.42867800  0.21572400  1
  H  H11  1  0.78302900  0.92955700  0.78424700  1
  H  H12  1  0.21682800  0.92867800  0.21572400  1
  H  H13  1  0.28710700  0.45518300  0.73386900  1
  H  H14  1  0.71267800  0.45431900  0.26601600  1
  H  H15  1  0.78710700  0.95518300  0.73386900  1
  H  H16  1  0.21267800  0.95431900  0.26601600  1
  H  H17  1  0.21721100  0.46194800  0.65974100  1
  H  H18  1  0.78255400  0.46127800  0.34013800  1
  H  H19  1  0.71721100  0.96194800  0.65974100  1
  H  H20  1  0.28255400  0.96127800  0.34013800  1
  H  H21  1  0.21316400  0.42962900  0.70639200  1
  H  H22  1  0.78668900  0.42894500  0.29359000  1
  H  H23  1  0.71316400  0.92962900  0.70639200  1
  H  H24  1  0.28668900  0.92894500  0.29359000  1
  H  H25  1  0.28243800  0.53524300  0.84772300  1
  H  H26  1  0.71717100  0.53433300  0.15194900  1
  H  H27  1  0.78243800  0.03524300  0.84772300  1
  H  H28  1  0.21717100  0.03433300  0.15194900  1
  H  H29  1  0.28634800  0.47570600  0.85644800  1
  H  H30  1  0.71340400  0.47478300  0.14339500  1
  H  H31  1  0.78634800  0.97570600  0.85644800  1
  H  H32  1  0.21340400  0.97478300  0.14339500  1
  H  H33  1  0.21249200  0.52778800  0.78213900  1
  H  H34  1  0.78713600  0.52706600  0.21757100  1
  H  H35  1  0.71249200  0.02778800  0.78213900  1
  H  H36  1  0.28713600  0.02706600  0.21757100  1
  H  H37  1  0.28662500  0.57133600  0.77710500  1
  H  H38  1  0.71288000  0.57045100  0.22244300  1
  H  H39  1  0.78662500  0.07133600  0.77710500  1
  H  H40  1  0.21288000  0.07045100  0.22244300  1
  H  H41  1  0.21666600  0.57168600  0.71592400  1
  H  H42  1  0.78284200  0.57098900  0.28364700  1
  H  H43  1  0.71666600  0.07168600  0.71592400  1
  H  H44  1  0.28284200  0.07098900  0.28364700  1
  H  H45  1  0.21644700  0.46812200  0.78319700  1
  H  H46  1  0.78332300  0.46739000  0.21668300  1
  H  H47  1  0.71644700  0.96812100  0.78319700  1
  H  H48  1  0.28332300  0.96739000  0.21668300  1
  H  H49  1  0.55624800  0.46375300  0.69647200  1
  H  H50  1  0.44555300  0.45954700  0.30579200  1
  H  H51  1  0.05624800  0.96375300  0.69647200  1
  H  H52  1  0.94555300  0.95954700  0.30579200  1
  H  H53  1  0.44191500  0.53511900  0.58248500  1
  H  H54  1  0.55725700  0.53550600  0.41643400  1
  H  H55  1  0.94191500  0.03511900  0.58248500  1
  H  H56  1  0.05725700  0.03550600  0.41643400  1
  H  H57  1  0.41311900  0.55977500  0.62014600  1
  H  H58  1  0.58518600  0.56064000  0.37773500  1
  H  H59  1  0.91311900  0.05977500  0.62014600  1
  H  H60  1  0.08518600  0.06064000  0.37773500  1
  H  H61  1  0.44755700  0.54386100  0.81055500  1
  H  H62  1  0.55096000  0.54253100  0.18774800  1
  H  H63  1  0.94755700  0.04386100  0.81055500  1
  H  H64  1  0.05096000  0.04253100  0.18774800  1
  H  H65  1  0.55246300  0.45981300  0.91203400  1
  H  H66  1  0.44920500  0.45423400  0.09005300  1
  H  H67  1  0.05246300  0.95981300  0.91203400  1
  H  H68  1  0.94920500  0.95423400  0.09005300  1
  H  H69  1  0.58440000  0.43929100  0.87504400  1
  H  H70  1  0.41828100  0.43262700  0.12829300  1
  H  H71  1  0.08440000  0.93929100  0.87504400  1
  H  H72  1  0.91828100  0.93262700  0.12829300  1
  H  H73  1  0.58611000  0.44093800  0.79505900  1
  H  H74  1  0.41659700  0.43479800  0.20829700  1
  H  H75  1  0.08611000  0.94093800  0.79505900  1
  H  H76  1  0.91659700  0.93479800  0.20829700  1
  H  H77  1  0.45006700  0.35889100  0.49893200  1
  H  H78  1  0.54874100  0.35887700  0.50122200  1
  H  H79  1  0.95006700  0.85889100  0.49893200  1
  H  H80  1  0.04874100  0.85887700  0.50122200  1
  H  H81  1  0.57429900  0.29002400  0.49722600  1
  H  H82  1  0.42476200  0.29006900  0.50350100  1
  H  H83  1  0.07429900  0.79002400  0.49722600  1
  H  H84  1  0.92476200  0.79006900  0.50350100  1
  H  H85  1  0.07265200  0.70893100  0.49382300  1
  H  H86  1  0.92665700  0.70899100  0.50747300  1
  H  H87  1  0.57265200  0.20893100  0.49382300  1
  H  H88  1  0.42665700  0.20899100  0.50747300  1
  H  H89  1  0.04491900  0.64010300  0.49333400  1
  H  H90  1  0.95455800  0.64015800  0.50836600  1
  H  H91  1  0.54491900  0.14010300  0.49333400  1
  H  H92  1  0.45455800  0.14015800  0.50836600  1
  H  H93  1  0.50624500  0.71226300  0.39306800  1
  H  H94  1  0.49488300  0.71264700  0.60664800  1
  H  H95  1  0.00624500  0.21226300  0.39306800  1
  H  H96  1  0.99488300  0.21264700  0.60664800  1
  H  H97  1  0.00579500  0.29086800  0.39425100  1
  H  H98  1  0.99468000  0.29124600  0.60451000  1
  H  H99  1  0.50579500  0.79086800  0.39425100  1
  H  H100  1  0.49468000  0.79124600  0.60451000  1
  H  H101  1  0.00347200  0.35859500  0.43116200  1
  H  H102  1  0.99657600  0.35883200  0.56692100  1
  H  H103  1  0.50347200  0.85859500  0.43116200  1
  H  H104  1  0.49657600  0.85883200  0.56692100  1
  H  H105  1  0.38641600  0.61956400  0.63362900  1
  H  H106  1  0.35377400  0.56989300  0.60426300  1
  H  H107  1  0.34911600  0.61280100  0.64100500  1
  H  H108  1  0.38694700  0.54939900  0.70840100  1
  H  H109  1  0.41884600  0.59880000  0.73757600  1
  H  H110  1  0.60996600  0.62101300  0.36191800  1
  H  H111  1  0.64415400  0.57252400  0.39304100  1
  H  H112  1  0.64737300  0.61532000  0.35460000  1
  H  H113  1  0.61152400  0.55048000  0.28958900  1
  H  H114  1  0.57800900  0.59865600  0.25871200  1
  H  H115  1  0.88641600  0.11956400  0.63362900  1
  H  H116  1  0.85377400  0.06989300  0.60426300  1
  H  H117  1  0.84911600  0.11280100  0.64100500  1
  H  H118  1  0.88694700  0.04939900  0.70840100  1
  H  H119  1  0.91884600  0.09880000  0.73757600  1
  H  H120  1  0.10996600  0.12101300  0.36191800  1
  H  H121  1  0.14415400  0.07252400  0.39304100  1
  H  H122  1  0.14737300  0.11532000  0.35460000  1
  H  H123  1  0.11152400  0.05048000  0.28958900  1
  H  H124  1  0.07800900  0.09865600  0.25871200  1
  H  H125  1  0.44070400  0.65879000  0.54202100  1
  H  H126  1  0.44015300  0.60190900  0.52300000  1
  H  H127  1  0.45941700  0.61566600  0.59718900  1
  H  H128  1  0.51483700  0.59805500  0.59450200  1
  H  H129  1  0.52201700  0.64767000  0.62974500  1
  H  H130  1  0.56112200  0.65929500  0.45882900  1
  H  H131  1  0.56233100  0.60242600  0.47848700  1
  H  H132  1  0.54299100  0.61594000  0.40418200  1
  H  H133  1  0.48778100  0.59750100  0.40712900  1
  H  H134  1  0.47991300  0.64691200  0.37102300  1
  H  H135  1  0.94070400  0.15879000  0.54202100  1
  H  H136  1  0.94015300  0.10190900  0.52300000  1
  H  H137  1  0.95941700  0.11566600  0.59718900  1
  H  H138  1  0.01483700  0.09805500  0.59450200  1
  H  H139  1  0.02201700  0.14767000  0.62974500  1
  H  H140  1  0.06112200  0.15929500  0.45882900  1
  H  H141  1  0.06233100  0.10242600  0.47848700  1
  H  H142  1  0.04299100  0.11594000  0.40418200  1
  H  H143  1  0.98778100  0.09750100  0.40712900  1
  H  H144  1  0.97991300  0.14691200  0.37102300  1
  C  C1  1  0.49980700  0.50193600  0.91278200  1
  C  C2  1  0.49993900  0.49873800  0.08708700  1
  C  C3  1  0.99980700  0.00193600  0.91278200  1
  C  C4  1  0.99993900  0.99873800  0.08708700  1
  C  C5  1  0.41819200  0.50114100  0.91935500  1
  C  C6  1  0.58148900  0.49952000  0.08041500  1
  C  C7  1  0.91819200  0.00114100  0.91935500  1
  C  C8  1  0.08148800  0.99952000  0.08041500  1
  C  C9  1  0.27347000  0.54035800  0.74998300  1
  C  C10  1  0.72610700  0.53951700  0.24965600  1
  C  C11  1  0.77347000  0.04035800  0.74998300  1
  C  C12  1  0.22610700  0.03951700  0.24965600  1
  C  C13  1  0.27361700  0.45856100  0.75451100  1
  C  C14  1  0.72616500  0.45771800  0.24537400  1
  C  C15  1  0.77361700  0.95856100  0.75451100  1
  C  C16  1  0.22616500  0.95771800  0.24537400  1
  C  C17  1  0.22647700  0.46013900  0.70457700  1
  C  C18  1  0.77330000  0.45942500  0.29531200  1
  C  C19  1  0.72647700  0.96013900  0.70457700  1
  C  C20  1  0.27330000  0.95942500  0.29531200  1
  C  C21  1  0.12649900  0.50034500  0.62901200  1
  C  C22  1  0.87318200  0.49990000  0.37078600  1
  C  C23  1  0.62649900  0.00034500  0.62901200  1
  C  C24  1  0.37318200  0.99990000  0.37078600  1
  C  C25  1  0.28949400  0.50075000  0.79192600  1
  C  C26  1  0.71018700  0.49985100  0.20783200  1
  C  C27  1  0.78949400  0.00075000  0.79192600  1
  C  C28  1  0.21018700  0.99985100  0.20783200  1
  C  C29  1  0.22629500  0.54203900  0.70608400  1
  C  C30  1  0.77327900  0.54132400  0.29356400  1
  C  C31  1  0.72629500  0.04203900  0.70608400  1
  C  C32  1  0.27327900  0.04132400  0.29356400  1
  C  C33  1  0.21014600  0.50056800  0.71302100  1
  C  C34  1  0.78953500  0.49988600  0.28675600  1
  C  C35  1  0.71014600  0.00056800  0.71302100  1
  C  C36  1  0.28953500  0.99988600  0.28675600  1
  C  C37  1  0.22594700  0.49964400  0.77643700  1
  C  C38  1  0.77374400  0.49889500  0.22334700  1
  C  C39  1  0.72594700  0.99964400  0.77643700  1
  C  C40  1  0.27374400  0.99889500  0.22334700  1
  C  C41  1  0.27311800  0.50321500  0.82328600  1
  C  C42  1  0.72656500  0.50233800  0.17647800  1
  C  C43  1  0.77311800  0.00321500  0.82328600  1
  C  C44  1  0.22656500  0.00233800  0.17647800  1
  C  C45  1  0.16421900  0.50045400  0.66716000  1
  C  C46  1  0.83546200  0.49989600  0.33262900  1
  C  C47  1  0.66421900  0.00045400  0.66716000  1
  C  C48  1  0.33546200  0.99989600  0.33262900  1
  C  C49  1  0.33542100  0.50086200  0.83752000  1
  C  C50  1  0.66425900  0.49981000  0.16223200  1
  C  C51  1  0.83542100  0.00086200  0.83752000  1
  C  C52  1  0.16425900  0.99981000  0.16223200  1
  C  C53  1  0.37314800  0.50097300  0.87485800  1
  C  C54  1  0.62653200  0.49971700  0.12489700  1
  C  C55  1  0.87314800  0.00097300  0.87485800  1
  C  C56  1  0.12653200  0.99971700  0.12489700  1
  C  C57  1  0.53135800  0.48020400  0.68965500  1
  C  C58  1  0.46985200  0.47681000  0.31186300  1
  C  C59  1  0.03135800  0.98020400  0.68965500  1
  C  C60  1  0.96985200  0.97681000  0.31186300  1
  C  C61  1  0.49927700  0.49982700  0.63487300  1
  C  C62  1  0.50116100  0.49802800  0.36568400  1
  C  C63  1  0.99927700  0.99982700  0.63487300  1
  C  C64  1  0.00116100  0.99802800  0.36568400  1
  C  C65  1  0.46704000  0.51973500  0.62560500  1
  C  C66  1  0.53268700  0.51896000  0.37404100  1
  C  C67  1  0.96704000  0.01973500  0.62560500  1
  C  C68  1  0.03268700  0.01896000  0.37404100  1
  C  C69  1  0.46769000  0.52170500  0.67212800  1
  C  C70  1  0.53199800  0.52042800  0.32747200  1
  C  C71  1  0.96769000  0.02170500  0.67212700  1
  C  C72  1  0.03199800  0.02042800  0.32747200  1
  C  C73  1  0.49911800  0.50121500  0.72643900  1
  C  C74  1  0.50133200  0.49845900  0.27411500  1
  C  C75  1  0.99911800  0.00121500  0.72643900  1
  C  C76  1  0.00133200  0.99845900  0.27411500  1
  C  C77  1  0.53065600  0.47980700  0.73488800  1
  C  C78  1  0.47059600  0.47597300  0.26666900  1
  C  C79  1  0.03065600  0.97980700  0.73488800  1
  C  C80  1  0.97059600  0.97597300  0.26666900  1
  C  C81  1  0.43674100  0.54427000  0.66369400  1
  C  C82  1  0.56212800  0.54402300  0.33489200  1
  C  C83  1  0.93674100  0.04427000  0.66369400  1
  C  C84  1  0.06212800  0.04402300  0.33489200  1
  C  C85  1  0.43690700  0.54706600  0.71016600  1
  C  C86  1  0.56182000  0.54646800  0.28826700  1
  C  C87  1  0.93690700  0.04706600  0.71016600  1
  C  C88  1  0.06182000  0.04646800  0.28826700  1
  C  C89  1  0.46835900  0.52522500  0.76477800  1
  C  C90  1  0.53111900  0.52323600  0.23461100  1
  C  C91  1  0.96835900  0.02522500  0.76477800  1
  C  C92  1  0.03111900  0.02323600  0.23461100  1
  C  C93  1  0.49890100  0.50190300  0.77212900  1
  C  C94  1  0.50148400  0.49881000  0.22835800  1
  C  C95  1  0.99890100  0.00190300  0.77212900  1
  C  C96  1  0.00148400  0.99881000  0.22835800  1
  C  C97  1  0.52941200  0.47902600  0.82526100  1
  C  C98  1  0.47178000  0.47456500  0.17622300  1
  C  C99  1  0.02941200  0.97902600  0.82526100  1
  C  C100  1  0.97178000  0.97456500  0.17622300  1
  C  C101  1  0.56047700  0.45696800  0.83329800  1
  C  C102  1  0.44158100  0.45138200  0.16925700  1
  C  C103  1  0.06047700  0.95696800  0.83329800  1
  C  C104  1  0.94158100  0.95138200  0.16925700  1
  C  C105  1  0.56147000  0.45790200  0.78840900  1
  C  C106  1  0.44060100  0.45261200  0.21415900  1
  C  C107  1  0.06147000  0.95790200  0.78840900  1
  C  C108  1  0.94060100  0.95261200  0.21415900  1
  C  C109  1  0.46992600  0.52611400  0.81261600  1
  C  C110  1  0.52936500  0.52389000  0.18660400  1
  C  C111  1  0.96992600  0.02611400  0.81261600  1
  C  C112  1  0.02936500  0.02389000  0.18660400  1
  C  C113  1  0.49964700  0.50208900  0.86436300  1
  C  C114  1  0.50043300  0.49863900  0.13583000  1
  C  C115  1  0.99964700  0.00208900  0.86436300  1
  C  C116  1  0.00043300  0.99863900  0.13583000  1
  C  C117  1  0.52898400  0.47806500  0.87062900  1
  C  C118  1  0.47209500  0.47344800  0.13073400  1
  C  C119  1  0.02898400  0.97806500  0.87062900  1
  C  C120  1  0.97209500  0.97344800  0.13073400  1
  C  C121  1  0.99977700  0.58673600  0.50096500  1
  C  C122  1  0.49977700  0.08673600  0.50096500  1
  C  C123  1  0.08148500  0.50019300  0.58274800  1
  C  C124  1  0.91819700  0.49992100  0.41705600  1
  C  C125  1  0.58148500  0.00019300  0.58274800  1
  C  C126  1  0.41819700  0.99992100  0.41705600  1
  C  C127  1  0.99993100  0.41313400  0.49885800  1
  C  C128  1  0.49993100  0.91313400  0.49885800  1
  C  C129  1  0.49928200  0.41225800  0.49979600  1
  C  C130  1  0.99928200  0.91225800  0.49979600  1
  C  C131  1  0.49916700  0.49939100  0.58638900  1
  C  C132  1  0.50124300  0.49825000  0.41414900  1
  C  C133  1  0.99916700  0.99939100  0.58638900  1
  C  C134  1  0.00124300  0.99825000  0.41414900  1
  C  C135  1  0.50110300  0.58567100  0.50067800  1
  C  C136  1  0.00110300  0.08567100  0.50067800  1
  C  C137  1  0.47157500  0.34097400  0.49905700  1
  C  C138  1  0.52731000  0.34096700  0.50126800  1
  C  C139  1  0.97157500  0.84097400  0.49905700  1
  C  C140  1  0.02731000  0.84096700  0.50126800  1
  C  C141  1  0.49939800  0.36386600  0.50006300  1
  C  C142  1  0.99939800  0.86386600  0.50006300  1
  C  C143  1  0.52667200  0.29523200  0.49990200  1
  C  C144  1  0.47237700  0.29524500  0.50079600  1
  C  C145  1  0.02667200  0.79523200  0.49990200  1
  C  C146  1  0.97237700  0.79524500  0.50079600  1
  C  C147  1  0.49956300  0.27237200  0.50043600  1
  C  C148  1  0.99956300  0.77237200  0.50043600  1
  C  C149  1  0.55308400  0.27232100  0.49790800  1
  C  C150  1  0.44603700  0.27235500  0.50295500  1
  C  C151  1  0.05308400  0.77232100  0.49790800  1
  C  C152  1  0.94603700  0.77235500  0.50295500  1
  C  C153  1  0.05214400  0.72664800  0.49596600  1
  C  C154  1  0.94711700  0.72669000  0.50521800  1
  C  C155  1  0.55214400  0.22664800  0.49596600  1
  C  C156  1  0.44711700  0.22669000  0.50521800  1
  C  C157  1  0.02552500  0.70375600  0.49754300  1
  C  C158  1  0.97380300  0.70378100  0.50379600  1
  C  C159  1  0.52552500  0.20375600  0.49754300  1
  C  C160  1  0.47380300  0.20378100  0.50379600  1
  C  C161  1  0.99963300  0.72663500  0.50059600  1
  C  C162  1  0.49963300  0.22663500  0.50059600  1
  C  C163  1  0.02481400  0.65802000  0.49613300  1
  C  C164  1  0.97463000  0.65805200  0.50548100  1
  C  C165  1  0.52481400  0.15802000  0.49613300  1
  C  C166  1  0.47463000  0.15805200  0.50548100  1
  C  C167  1  0.99974800  0.63513500  0.50087000  1
  C  C168  1  0.49974800  0.13513500  0.50087000  1
  C  C169  1  0.50047500  0.65714100  0.54035900  1
  C  C170  1  0.50127800  0.65697700  0.46020600  1
  C  C171  1  0.00047500  0.15714100  0.54035900  1
  C  C172  1  0.00127800  0.15697700  0.46020600  1
  C  C173  1  0.50096800  0.63425800  0.50042100  1
  C  C174  1  0.00096800  0.13425800  0.50042100  1
  C  C175  1  0.50201300  0.70333400  0.46100400  1
  C  C176  1  0.49928300  0.70348200  0.53892200  1
  C  C177  1  0.00201300  0.20333400  0.46100400  1
  C  C178  1  0.99928300  0.20348200  0.53892200  1
  C  C179  1  0.50054000  0.72622800  0.49981000  1
  C  C180  1  0.00054000  0.22622800  0.49981000  1
  C  C181  1  0.50406400  0.72749800  0.42337500  1
  C  C182  1  0.49697100  0.72777700  0.57619300  1
  C  C183  1  0.00406400  0.22749800  0.42337500  1
  C  C184  1  0.99697100  0.22777700  0.57619300  1
  C  C185  1  0.00412000  0.27298600  0.42387300  1
  C  C186  1  0.99652300  0.27325900  0.57512700  1
  C  C187  1  0.50412000  0.77298600  0.42387300  1
  C  C188  1  0.49652300  0.77325900  0.57512700  1
  C  C189  1  0.00209300  0.29550600  0.46160500  1
  C  C190  1  0.99838800  0.29564100  0.53714600  1
  C  C191  1  0.50209300  0.79550600  0.46160500  1
  C  C192  1  0.49838800  0.79564100  0.53714600  1
  C  C193  1  0.00033600  0.27234100  0.49951600  1
  C  C194  1  0.50033600  0.77234100  0.49951600  1
  C  C195  1  0.00200300  0.34126500  0.46129300  1
  C  C196  1  0.99814900  0.34139800  0.53695800  1
  C  C197  1  0.50200300  0.84126500  0.46129300  1
  C  C198  1  0.49814900  0.84139800  0.53695800  1
  C  C199  1  0.00000900  0.36450500  0.49901600  1
  C  C200  1  0.50000900  0.86450500  0.49901600  1
  C  C201  1  0.40375300  0.57247800  0.70244300  1
  C  C202  1  0.37140200  0.59494500  0.64116600  1
  C  C203  1  0.59402800  0.57301100  0.29482200  1
  C  C204  1  0.62570700  0.59680800  0.35521600  1
  C  C205  1  0.90375300  0.07247800  0.70244300  1
  C  C206  1  0.87140200  0.09494500  0.64116600  1
  C  C207  1  0.09402800  0.07301100  0.29482200  1
  C  C208  1  0.12570700  0.09680800  0.35521600  1
  C  C209  1  0.50128000  0.63154900  0.58457600  1
  C  C210  1  0.45755700  0.62677900  0.56007600  1
  C  C211  1  0.50085200  0.63120400  0.41646600  1
  C  C212  1  0.54465700  0.62705900  0.44111500  1
  C  C213  1  0.00128000  0.13154900  0.58457600  1
  C  C214  1  0.95755700  0.12677900  0.56007600  1
  C  C215  1  0.00085200  0.13120400  0.41646600  1
  C  C216  1  0.04465700  0.12705900  0.44111500  1
  O  O1  1  0.49822300  0.54016200  0.93185800  1
  O  O2  1  0.49951300  0.53716900  0.06630500  1
  O  O3  1  0.99822300  0.04016200  0.93185800  1
  O  O4  1  0.99951300  0.03716900  0.06630500  1
  O  O5  1  0.50133700  0.46352000  0.93462000  1
  O  O6  1  0.50032900  0.46045400  0.06687000  1
  O  O7  1  0.00133700  0.96352000  0.93462000  1
  O  O8  1  0.00032900  0.96045400  0.06687000  1
  O  O9  1  0.43760200  0.53951200  0.93833100  1
  O  O10  1  0.56176600  0.53772700  0.05972200  1
  O  O11  1  0.93760200  0.03951200  0.93833100  1
  O  O12  1  0.06176600  0.03772700  0.05972200  1
  O  O13  1  0.43788700  0.46290800  0.93893300  1
  O  O14  1  0.56211300  0.46114800  0.06261800  1
  O  O15  1  0.93788700  0.96290800  0.93893300  1
  O  O16  1  0.06211300  0.96114800  0.06261800  1
  O  O17  1  0.00257700  0.56605300  0.46522800  1
  O  O18  1  0.99692600  0.56616700  0.53668100  1
  O  O19  1  0.50257700  0.06605300  0.46522800  1
  O  O20  1  0.49692600  0.06616700  0.53668100  1
  O  O21  1  0.06345700  0.49890700  0.52555800  1
  O  O22  1  0.93622600  0.50069200  0.47425800  1
  O  O23  1  0.56345700  0.99890700  0.52555800  1
  O  O24  1  0.43622600  0.00069200  0.47425800  1
  O  O25  1  0.06039600  0.50134300  0.59958900  1
  O  O26  1  0.93928800  0.49924900  0.40021000  1
  O  O27  1  0.56039600  0.00134300  0.59958900  1
  O  O28  1  0.43928800  0.99924900  0.40021000  1
  O  O29  1  0.00224300  0.43385500  0.46264400  1
  O  O30  1  0.99763500  0.43397400  0.53505000  1
  O  O31  1  0.50224300  0.93385500  0.46264400  1
  O  O32  1  0.49763500  0.93397400  0.53505000  1
  O  O33  1  0.46329900  0.43276000  0.46618300  1
  O  O34  1  0.53518500  0.43295500  0.53320500  1
  O  O35  1  0.96329900  0.93276000  0.46618300  1
  O  O36  1  0.03518500  0.93295500  0.53320500  1
  O  O37  1  0.46310900  0.49907300  0.53045600  1
  O  O38  1  0.53725800  0.50019500  0.47003200  1
  O  O39  1  0.96310900  0.99907300  0.53045600  1
  O  O40  1  0.03725800  0.00019500  0.47003200  1
  O  O41  1  0.53505300  0.49966800  0.60103600  1
  O  O42  1  0.46538000  0.49693800  0.39953100  1
  O  O43  1  0.03505300  0.99966800  0.60103600  1
  O  O44  1  0.96538000  0.99693800  0.39953100  1
  O  O45  1  0.46516100  0.56494000  0.46595700  1
  O  O46  1  0.53713400  0.56515100  0.53566000  1
  O  O47  1  0.96516100  0.06494000  0.46595700  1
  O  O48  1  0.03713400  0.06515100  0.53566000  1
