# generated using pymatgen
data_ZnH9C18NO6
_symmetry_space_group_name_H-M   'P 1'
_cell_length_a   13.41820400
_cell_length_b   8.58420600
_cell_length_c   10.63846900
_cell_angle_alpha   90.00000000
_cell_angle_beta   97.94742400
_cell_angle_gamma   90.00000000
_symmetry_Int_Tables_number   1
_chemical_formula_structural   ZnH9C18NO6
_chemical_formula_sum   'Zn2 H18 C36 N2 O12'
_cell_volume   1213.61867575
_cell_formula_units_Z   2
loop_
 _symmetry_equiv_pos_site_id
 _symmetry_equiv_pos_as_xyz
  1  'x, y, z'
loop_
 _atom_site_type_symbol
 _atom_site_label
 _atom_site_symmetry_multiplicity
 _atom_site_fract_x
 _atom_site_fract_y
 _atom_site_fract_z
 _atom_site_occupancy
  Zn  Zn1  1  0.11067000  0.50879500  0.49291900  1
  Zn  Zn2  1  0.88973000  0.50141800  0.50705100  1
  H  H1  1  0.04952500  0.38846500  0.90393900  1
  H  H2  1  0.95549000  0.62131500  0.09754200  1
  H  H3  1  0.01713200  0.38809000  0.12239800  1
  H  H4  1  0.98994600  0.62165100  0.87975100  1
  H  H5  1  0.05780300  0.00747100  0.59061800  1
  H  H6  1  0.94139400  0.00337800  0.40869600  1
  H  H7  1  0.61278500  0.48162100  0.82154600  1
  H  H8  1  0.45188700  0.32853300  0.26323600  1
  H  H9  1  0.38576900  0.48809000  0.17789700  1
  H  H10  1  0.53988300  0.33021800  0.73432700  1
  H  H11  1  0.49330200  0.67958000  0.73133400  1
  H  H12  1  0.57157800  0.51178400  0.19115500  1
  H  H13  1  0.51421200  0.67203700  0.26509400  1
  H  H14  1  0.42931500  0.52842200  0.80759700  1
  H  H15  1  0.73426400  0.52290900  0.31509200  1
  H  H16  1  0.26694500  0.54416900  0.68418600  1
  H  H17  1  0.82861400  0.53789000  0.91413500  1
  H  H18  1  0.14676200  0.56659300  0.10006100  1
  C  C1  1  0.04778700  0.00693400  0.68951200  1
  C  C2  1  0.95210400  0.00372200  0.31003700  1
  C  C3  1  0.04133000  0.14638000  0.75189700  1
  C  C4  1  0.95941500  0.86419800  0.24806800  1
  C  C5  1  0.96944100  0.14289300  0.25218400  1
  C  C6  1  0.03115800  0.86768000  0.74764500  1
  C  C7  1  0.02645700  0.14487800  0.87818400  1
  C  C8  1  0.97505100  0.86570400  0.12204300  1
  C  C9  1  0.99113600  0.14316300  0.12874200  1
  C  C10  1  0.01075600  0.86737700  0.87160800  1
  C  C11  1  0.02959100  0.28131200  0.94622200  1
  C  C12  1  0.97365300  0.72902100  0.05462400  1
  C  C13  1  0.01283200  0.28036600  0.07093000  1
  C  C14  1  0.99132100  0.72983700  0.93027200  1
  C  C15  1  0.01026500  0.00565000  0.93768600  1
  C  C16  1  0.99118600  0.00495200  0.06249900  1
  C  C17  1  0.02939800  0.28899200  0.67458000  1
  C  C18  1  0.97122300  0.72165000  0.32560600  1
  C  C19  1  0.97868100  0.28360000  0.33047800  1
  C  C20  1  0.02166400  0.72678100  0.66943600  1
  C  C21  1  0.70074000  0.51148500  0.40121100  1
  C  C22  1  0.30010500  0.53005700  0.59801200  1
  C  C23  1  0.71747400  0.47838500  0.62198300  1
  C  C24  1  0.28188400  0.49217700  0.37760900  1
  C  C25  1  0.61358300  0.48134300  0.61738800  1
  C  C26  1  0.38569400  0.48763300  0.38166800  1
  C  C27  1  0.55432000  0.50119900  0.50271300  1
  C  C28  1  0.44576400  0.50613800  0.49596900  1
  C  C29  1  0.59746500  0.51553500  0.39421000  1
  C  C30  1  0.40335700  0.52817300  0.60437100  1
  C  C31  1  0.56299900  0.45413100  0.73245300  1
  C  C32  1  0.43470100  0.45474200  0.26626500  1
  C  C33  1  0.46989600  0.55559300  0.72627200  1
  C  C34  1  0.53214100  0.54594000  0.27189700  1
  C  C35  1  0.77969800  0.45353100  0.74426400  1
  C  C36  1  0.21815100  0.47010900  0.25593800  1
  N  N1  1  0.75977000  0.49610300  0.51416900  1
  N  N2  1  0.24056200  0.51391600  0.48561000  1
  O  O1  1  0.93705100  0.33619000  0.63607100  1
  O  O2  1  0.06349700  0.67363800  0.36346400  1
  O  O3  1  0.06949800  0.33757400  0.36702300  1
  O  O4  1  0.93079400  0.67196300  0.63368800  1
  O  O5  1  0.10817900  0.34709500  0.63004800  1
  O  O6  1  0.89253100  0.66428000  0.37083200  1
  O  O7  1  0.89819500  0.33734700  0.37337600  1
  O  O8  1  0.10207700  0.67369000  0.62591900  1
  O  O9  1  0.79742100  0.32117800  0.78258800  1
  O  O10  1  0.79959500  0.57808600  0.82736900  1
  O  O11  1  0.21366900  0.34240500  0.20532100  1
  O  O12  1  0.17678600  0.59892100  0.18865600  1
