data_DB0-m3_o12_o23_f0_pcu.sym.1_repeat
_audit_creation_date              2024-02-23
_audit_creation_method            'Materials Studio'
_symmetry_space_group_name_H-M    'P1'
_symmetry_Int_Tables_number       1
_symmetry_cell_setting            triclinic
loop_
_symmetry_equiv_pos_as_xyz
  x,y,z
_cell_length_a                    10.0057
_cell_length_b                    11.2482
_cell_length_c                    15.9549
_cell_angle_alpha                 89.9882
_cell_angle_beta                  80.7167
_cell_angle_gamma                 92.4467
loop_
_atom_site_label
_atom_site_type_symbol
_atom_site_fract_x
_atom_site_fract_y
_atom_site_fract_z
_atom_site_U_iso_or_equiv
_atom_site_adp_type
_atom_site_occupancy
O1     O     0.42514   0.69075   0.50820   0.00000  Uiso   1.00
O2     O     0.65483   0.65957   0.48379   0.00000  Uiso   1.00
C1     C     0.55223   0.72999   0.49473   0.00000  Uiso   1.00
O3     O     0.38710   0.51532   0.63688   0.00000  Uiso   1.00
O4     O     0.61690   0.48412   0.61257   0.00000  Uiso   1.00
C2     C     0.50243   0.49966   0.66359   0.00000  Uiso   1.00
Zn1    Zn    0.34851   0.52075   0.51618   0.00000  Uiso   1.00
Zn2    Zn    0.65129   0.47932   0.48396   0.00000  Uiso   1.00
O5     O     0.34497   0.34050   0.51635   0.00000  Uiso   1.00
O6     O     0.57466   0.30932   0.49194   0.00000  Uiso   1.00
O7     O     0.38290   0.51594   0.38757   0.00000  Uiso   1.00
O8     O     0.61269   0.48475   0.36326   0.00000  Uiso   1.00
C3     C     0.44757   0.27008   0.50540   0.00000  Uiso   1.00
C4     C     0.49738   0.50042   0.33655   0.00000  Uiso   1.00
C5     C     0.39649   0.58418   0.96236   0.00000  Uiso   1.00
C6     C     0.63996   0.54026   0.93936   0.00000  Uiso   1.00
C7     C     0.63533   0.54845   0.03452   0.00000  Uiso   1.00
H1     H     0.40192   0.66879   0.08298   0.00000  Uiso   1.00
H2     H     0.42590   0.67638   0.93992   0.00000  Uiso   1.00
H3     H     0.71574   0.47542   0.91281   0.00000  Uiso   1.00
H4     H     0.66975   0.62873   0.90985   0.00000  Uiso   1.00
H5     H     0.65097   0.64270   0.05238   0.00000  Uiso   1.00
H6     H     0.71704   0.49586   0.05343   0.00000  Uiso   1.00
C8     C     0.49671   0.50051   0.24668   0.00000  Uiso   1.00
C9     C     0.50128   0.49983   0.92085   0.00000  Uiso   1.00
C10    C     0.38837   0.57789   0.05787   0.00000  Uiso   1.00
C11    C     0.49852   0.50023   0.07929   0.00000  Uiso   1.00
C12    C     0.47349   0.37412   0.05015   0.00000  Uiso   1.00
C13    C     0.46574   0.37529   0.95615   0.00000  Uiso   1.00
C14    C     0.49714   0.50044   0.17112   0.00000  Uiso   1.00
C15    C     0.50266   0.49963   0.82902   0.00000  Uiso   1.00
C16    C     0.50309   0.49957   0.75345   0.00000  Uiso   1.00
H7     H     0.36157   0.34777   0.94651   0.00000  Uiso   1.00
H8     H     0.53787   0.31196   0.92291   0.00000  Uiso   1.00
H9     H     0.37686   0.33603   0.08587   0.00000  Uiso   1.00
H10    H     0.29597   0.55886   0.94537   0.00000  Uiso   1.00
H11    H     0.28764   0.53944   0.08697   0.00000  Uiso   1.00
H12    H     0.55757   0.31844   0.06183   0.00000  Uiso   1.00
H13    H     0.62208   0.09509   0.48721   0.00000  Uiso   1.00
H14    H     0.37772   0.90498   0.51292   0.00000  Uiso   1.00
C17    C     0.58210   0.85878   0.49158   0.00000  Uiso   1.00
C18    C     0.48318   0.93586   0.50188   0.00000  Uiso   1.00
H15    H     0.31279   0.10867   0.51958   0.00000  Uiso   1.00
C19    C     0.41770   0.14129   0.50856   0.00000  Uiso   1.00
C20    C     0.51661   0.06421   0.49826   0.00000  Uiso   1.00
H16    H     0.68700   0.89140   0.48055   0.00000  Uiso   1.00
H17    H     0.11691   0.42830   0.44624   0.00000  Uiso   1.00
H18    H     0.88288   0.57171   0.55393   0.00000  Uiso   1.00
N1     N     0.84998   0.45147   0.46244   0.00000  Uiso   1.00
C21    C     0.92669   0.50920   0.50668   0.00000  Uiso   1.00
H19    H     0.10230   0.60668   0.58137   0.00000  Uiso   1.00
N2     N     0.14980   0.54853   0.53774   0.00000  Uiso   1.00
C22    C     0.07310   0.49081   0.49349   0.00000  Uiso   1.00
H20    H     0.89748   0.39333   0.41880   0.00000  Uiso   1.00
