# generated using pymatgen
data_Zn3H28C62(ClO3)4
_symmetry_space_group_name_H-M   'P 1'
_cell_length_a   21.92789200
_cell_length_b   21.92796300
_cell_length_c   23.80812200
_cell_angle_alpha   90.00000000
_cell_angle_beta   90.00000000
_cell_angle_gamma   90.00000000
_symmetry_Int_Tables_number   1
_chemical_formula_structural   Zn3H28C62(ClO3)4
_chemical_formula_sum   'Zn12 H112 C248 Cl16 O48'
_cell_volume   11447.75463955
_cell_formula_units_Z   4
loop_
 _symmetry_equiv_pos_site_id
 _symmetry_equiv_pos_as_xyz
  1  'x, y, z'
loop_
 _atom_site_type_symbol
 _atom_site_label
 _atom_site_symmetry_multiplicity
 _atom_site_fract_x
 _atom_site_fract_y
 _atom_site_fract_z
 _atom_site_occupancy
  Zn  Zn1  1  0.50019900  0.06924900  0.49967900  1
  Zn  Zn2  1  0.93076400  0.49989800  0.50066200  1
  Zn  Zn3  1  0.50024600  0.93117800  0.50035900  1
  Zn  Zn4  1  0.06883700  0.49970600  0.50007100  1
  Zn  Zn5  1  0.99994700  0.56899600  0.00067800  1
  Zn  Zn6  1  0.43100100  0.00010300  0.99968700  1
  Zn  Zn7  1  0.99996000  0.43071500  0.00008900  1
  Zn  Zn8  1  0.56928300  0.99998700  0.00027600  1
  Zn  Zn9  1  0.00001500  0.99999400  0.56379300  1
  Zn  Zn10  1  0.00003100  0.00001100  0.43642800  1
  Zn  Zn11  1  0.50040200  0.50009900  0.06339700  1
  Zn  Zn12  1  0.49988700  0.49961200  0.93635300  1
  H  H1  1  0.35631600  0.92599900  0.41924500  1
  H  H2  1  0.07694100  0.35590500  0.42058400  1
  H  H3  1  0.64348700  0.07571500  0.41964400  1
  H  H4  1  0.92372100  0.64399800  0.41865300  1
  H  H5  1  0.64420000  0.92277900  0.57967100  1
  H  H6  1  0.92396200  0.35647100  0.58056200  1
  H  H7  1  0.35596500  0.07662400  0.58156200  1
  H  H8  1  0.07430800  0.64378300  0.58101000  1
  H  H9  1  0.86101700  0.44038000  0.91007700  1
  H  H10  1  0.55840600  0.86037800  0.90885800  1
  H  H11  1  0.14008500  0.55836800  0.91068900  1
  H  H12  1  0.44086300  0.13975400  0.91110400  1
  H  H13  1  0.13952800  0.44324500  0.09126900  1
  H  H14  1  0.44326300  0.86000500  0.08943000  1
  H  H15  1  0.86034700  0.55737400  0.08899000  1
  H  H16  1  0.55784700  0.13888100  0.09002000  1
  H  H17  1  0.19417400  0.82094300  0.40730500  1
  H  H18  1  0.17941700  0.19225400  0.40714500  1
  H  H19  1  0.80634100  0.17956300  0.40656900  1
  H  H20  1  0.81993400  0.80694100  0.40638900  1
  H  H21  1  0.80789600  0.82033700  0.59287400  1
  H  H22  1  0.82017100  0.19356000  0.59342100  1
  H  H23  1  0.19297500  0.18037000  0.59360700  1
  H  H24  1  0.17934800  0.80595800  0.59271400  1
  H  H25  1  0.69773200  0.35124600  0.86448300  1
  H  H26  1  0.64989300  0.69765600  0.86555700  1
  H  H27  1  0.30296100  0.65006700  0.86828100  1
  H  H28  1  0.35110000  0.30320600  0.86712400  1
  H  H29  1  0.30188700  0.35077200  0.13397400  1
  H  H30  1  0.35057300  0.69749400  0.13122500  1
  H  H31  1  0.69728700  0.64820900  0.13236500  1
  H  H32  1  0.64805900  0.30177900  0.13501100  1
  H  H33  1  0.13960000  0.89744200  0.45568000  1
  H  H34  1  0.10205300  0.13830100  0.45503600  1
  H  H35  1  0.86090900  0.10243300  0.45427400  1
  H  H36  1  0.89692200  0.86106200  0.45457400  1
  H  H37  1  0.86179600  0.89782000  0.54510500  1
  H  H38  1  0.89743700  0.13904400  0.54586100  1
  H  H39  1  0.13889900  0.10325200  0.54556200  1
  H  H40  1  0.10273300  0.86048700  0.54446200  1
  H  H41  1  0.64184200  0.40757600  0.93352200  1
  H  H42  1  0.59373300  0.64198200  0.93486200  1
  H  H43  1  0.35830200  0.59379000  0.93773400  1
  H  H44  1  0.40744300  0.35856000  0.93655200  1
  H  H45  1  0.35767600  0.40683300  0.06468900  1
  H  H46  1  0.40677400  0.64203900  0.06180900  1
  H  H47  1  0.64180200  0.59199900  0.06294100  1
  H  H48  1  0.59187200  0.35780000  0.06597000  1
  H  H49  1  0.23628700  0.20816900  0.67397200  1
  H  H50  1  0.39993400  0.30483500  0.70611300  1
  H  H51  1  0.45306000  0.24447900  0.63428800  1
  H  H52  1  0.39861600  0.16867100  0.57986400  1
  H  H53  1  0.79213100  0.23756800  0.67337600  1
  H  H54  1  0.69538300  0.40148500  0.70409000  1
  H  H55  1  0.75590800  0.45397500  0.63198800  1
  H  H56  1  0.83189000  0.39906100  0.57815900  1
  H  H57  1  0.76408400  0.79242300  0.67301100  1
  H  H58  1  0.60096000  0.69444400  0.70403400  1
  H  H59  1  0.54803700  0.75411400  0.63159800  1
  H  H60  1  0.60236600  0.83028200  0.57747000  1
  H  H61  1  0.20685600  0.76263800  0.67311900  1
  H  H62  1  0.30227300  0.59833300  0.70556600  1
  H  H63  1  0.24138800  0.54545900  0.63396400  1
  H  H64  1  0.16597700  0.60033700  0.57945200  1
  H  H65  1  0.76234200  0.20725800  0.32647300  1
  H  H66  1  0.59841000  0.30389600  0.29551700  1
  H  H67  1  0.54593300  0.24359300  0.36778400  1
  H  H68  1  0.60086900  0.16779800  0.42182300  1
  H  H69  1  0.20700000  0.23608000  0.32687700  1
  H  H70  1  0.30491100  0.39920900  0.29567800  1
  H  H71  1  0.24546600  0.45210100  0.36829000  1
  H  H72  1  0.16946300  0.39774500  0.42259800  1
  H  H73  1  0.23750100  0.79376000  0.32676900  1
  H  H74  1  0.40179700  0.69838100  0.29416700  1
  H  H75  1  0.45465000  0.75904100  0.36594400  1
  H  H76  1  0.39975500  0.83430100  0.42062700  1
  H  H77  1  0.79247500  0.76363800  0.32588500  1
  H  H78  1  0.69588800  0.59999100  0.29352500  1
  H  H79  1  0.75602000  0.54687600  0.36551600  1
  H  H80  1  0.83165500  0.60133400  0.42013900  1
  H  H81  1  0.78226400  0.72525800  0.13381800  1
  H  H82  1  0.91271000  0.72637500  0.26612400  1
  H  H83  1  0.91996100  0.61471300  0.26121200  1
  H  H84  1  0.85937300  0.55801500  0.19236400  1
  H  H85  1  0.27432200  0.78266100  0.13305100  1
  H  H86  1  0.27315500  0.91269200  0.26568500  1
  H  H87  1  0.38485200  0.91944900  0.26126400  1
  H  H88  1  0.44163800  0.85882100  0.19251100  1
  H  H89  1  0.21638500  0.27448800  0.13544200  1
  H  H90  1  0.08649900  0.27391600  0.26821100  1
  H  H91  1  0.08002100  0.38563000  0.26359500  1
  H  H92  1  0.14069200  0.44210700  0.19464700  1
  H  H93  1  0.72534900  0.21703000  0.13602200  1
  H  H94  1  0.72630300  0.08579100  0.26766200  1
  H  H95  1  0.61469500  0.07811900  0.26221200  1
  H  H96  1  0.55810900  0.13893500  0.19345700  1
  H  H97  1  0.21811900  0.72672500  0.86628300  1
  H  H98  1  0.08761700  0.72788600  0.73403700  1
  H  H99  1  0.08037300  0.61623000  0.73890200  1
  H  H100  1  0.14101700  0.55949000  0.80766200  1
  H  H101  1  0.72659300  0.78282700  0.86394500  1
  H  H102  1  0.72721100  0.91320200  0.73157900  1
  H  H103  1  0.61553600  0.92017300  0.73660800  1
  H  H104  1  0.55907700  0.85947900  0.80553900  1
  H  H105  1  0.78209300  0.27349800  0.86335600  1
  H  H106  1  0.91380200  0.27237500  0.73211100  1
  H  H107  1  0.92203300  0.38393000  0.73795600  1
  H  H108  1  0.86124000  0.44055300  0.80669000  1
  H  H109  1  0.27359500  0.21861000  0.86555100  1
  H  H110  1  0.27233100  0.08770000  0.73363100  1
  H  H111  1  0.38394400  0.07989200  0.73894200  1
  H  H112  1  0.44067100  0.14045700  0.80777500  1
  C  C1  1  0.38045100  0.00132800  0.50043300  1
  C  C2  1  0.00079200  0.38011800  0.50072300  1
  C  C3  1  0.61990600  0.99909000  0.49965200  1
  C  C4  1  0.99881700  0.61957400  0.49994000  1
  C  C5  1  0.88059600  0.49866500  0.99969400  1
  C  C6  1  0.50121300  0.88060500  0.99935500  1
  C  C7  1  0.11939300  0.50104900  0.00102500  1
  C  C8  1  0.49906100  0.11940400  0.00059900  1
  C  C9  1  0.49971100  0.99867900  0.39027200  1
  C  C10  1  0.99835300  0.49926200  0.39068500  1
  C  C11  1  0.50076300  0.00175400  0.60970100  1
  C  C12  1  0.00124200  0.50031100  0.61011500  1
  C  C13  1  0.00058400  0.50143400  0.89069600  1
  C  C14  1  0.50172600  0.00084500  0.89029300  1
  C  C15  1  0.99928400  0.49827600  0.11010500  1
  C  C16  1  0.49856400  0.99928500  0.10970100  1
  C  C17  1  0.49935700  0.99857800  0.33012200  1
  C  C18  1  0.99829200  0.49892500  0.33053200  1
  C  C19  1  0.50109600  0.00185600  0.66985700  1
  C  C20  1  0.00130000  0.50066300  0.67026800  1
  C  C21  1  0.00085800  0.50143000  0.83055300  1
  C  C22  1  0.50173900  0.00126400  0.83014800  1
  C  C23  1  0.99890900  0.49826400  0.17024800  1
  C  C24  1  0.49857300  0.99897600  0.16984200  1
  C  C25  1  0.49906000  0.99862100  0.27957800  1
  C  C26  1  0.99838200  0.49866000  0.27998700  1
  C  C27  1  0.50135600  0.00179000  0.72040400  1
  C  C28  1  0.00122800  0.50095600  0.72081300  1
  C  C29  1  0.00105300  0.50126100  0.78001200  1
  C  C30  1  0.50161100  0.00155700  0.77960600  1
  C  C31  1  0.99862700  0.49839700  0.22078800  1
  C  C32  1  0.49874900  0.99877800  0.22038100  1
  C  C33  1  0.31019500  0.91768000  0.43250600  1
  C  C34  1  0.08442800  0.30947900  0.43335800  1
  C  C35  1  0.68986200  0.08352400  0.43241200  1
  C  C36  1  0.91580600  0.69024800  0.43174700  1
  C  C37  1  0.69061900  0.91532700  0.56685900  1
  C  C38  1  0.91620100  0.31009700  0.56776900  1
  C  C39  1  0.30971800  0.08449600  0.56843900  1
  C  C40  1  0.08259800  0.68989600  0.56771000  1
  C  C41  1  0.81284800  0.43447200  0.91703100  1
  C  C42  1  0.56499700  0.81241700  0.91645300  1
  C  C43  1  0.18799200  0.56498700  0.91851700  1
  C  C44  1  0.43481100  0.18782500  0.91850400  1
  C  C45  1  0.18743900  0.43643900  0.08356100  1
  C  C46  1  0.43643100  0.81214900  0.08148700  1
  C  C47  1  0.81233100  0.56368200  0.08146100  1
  C  C48  1  0.56401400  0.18699700  0.08293700  1
  C  C49  1  0.28043000  0.86748700  0.41042000  1
  C  C50  1  0.13421500  0.27917700  0.41110300  1
  C  C51  1  0.71977700  0.13363100  0.41031100  1
  C  C52  1  0.86583700  0.72034900  0.40961900  1
  C  C53  1  0.72094300  0.86549800  0.58900900  1
  C  C54  1  0.86605100  0.28015800  0.58976100  1
  C  C55  1  0.27959700  0.13451100  0.59045900  1
  C  C56  1  0.13283600  0.71967700  0.58969200  1
  C  C57  1  0.78290700  0.39429400  0.88237600  1
  C  C58  1  0.60567100  0.78251700  0.88226000  1
  C  C59  1  0.21802900  0.60576600  0.88453200  1
  C  C60  1  0.39446500  0.21798900  0.88418500  1
  C  C61  1  0.21721500  0.39547900  0.11756400  1
  C  C62  1  0.39535700  0.78223700  0.11527400  1
  C  C63  1  0.78230300  0.60431900  0.11559900  1
  C  C64  1  0.60448100  0.21680200  0.11741300  1
  C  C65  1  0.21911100  0.86052800  0.42135500  1
  C  C66  1  0.14021200  0.21763000  0.42143700  1
  C  C67  1  0.78128200  0.14008100  0.42068300  1
  C  C68  1  0.85936700  0.78175000  0.42042100  1
  C  C69  1  0.78249300  0.85955500  0.57865700  1
  C  C70  1  0.85966800  0.21864600  0.57938400  1
  C  C71  1  0.21819000  0.14092100  0.57965100  1
  C  C72  1  0.13974600  0.78099800  0.57873900  1
  C  C73  1  0.72168100  0.38396800  0.89028600  1
  C  C74  1  0.61671000  0.72153800  0.89091200  1
  C  C75  1  0.27896200  0.61681300  0.89346400  1
  C  C76  1  0.38397100  0.27910000  0.89264400  1
  C  C77  1  0.27811500  0.38416100  0.10876000  1
  C  C78  1  0.38403700  0.72138300  0.10619000  1
  C  C79  1  0.72127400  0.61512700  0.10698000  1
  C  C80  1  0.61512600  0.27794700  0.10934200  1
  C  C81  1  0.18782300  0.90474500  0.45028600  1
  C  C82  1  0.09553600  0.18671000  0.45010600  1
  C  C83  1  0.81256100  0.09552700  0.44918700  1
  C  C84  1  0.90389000  0.81278400  0.44918900  1
  C  C85  1  0.81338300  0.90430100  0.55005400  1
  C  C86  1  0.90430100  0.18739600  0.55095900  1
  C  C87  1  0.18718100  0.09632300  0.55095900  1
  C  C88  1  0.09546200  0.81226200  0.54987300  1
  C  C89  1  0.68974700  0.41757500  0.92934100  1
  C  C90  1  0.58316900  0.68969700  0.93007500  1
  C  C91  1  0.31061800  0.58320100  0.93270400  1
  C  C92  1  0.41759000  0.31073200  0.93190300  1
  C  C93  1  0.31003200  0.41764600  0.06961400  1
  C  C94  1  0.41760500  0.68965200  0.06697500  1
  C  C95  1  0.68955800  0.58158600  0.06772800  1
  C  C96  1  0.58160100  0.30996600  0.07029100  1
  C  C97  1  0.21802900  0.95442000  0.47344600  1
  C  C98  1  0.04632500  0.21744400  0.47350400  1
  C  C99  1  0.78220500  0.04597100  0.47236700  1
  C  C100  1  0.95341500  0.78226800  0.47227600  1
  C  C101  1  0.78261500  0.95352000  0.52671000  1
  C  C102  1  0.95386600  0.21778800  0.52783700  1
  C  C103  1  0.21772900  0.04678700  0.52792900  1
  C  C104  1  0.04577700  0.78202600  0.52676600  1
  C  C105  1  0.71911300  0.46090300  0.96250200  1
  C  C106  1  0.53928200  0.71896700  0.96268700  1
  C  C107  1  0.28119700  0.53925000  0.96513000  1
  C  C108  1  0.46106900  0.28114900  0.96474000  1
  C  C109  1  0.28090800  0.46176000  0.03715600  1
  C  C110  1  0.46178600  0.71892700  0.03470700  1
  C  C111  1  0.71898600  0.53787800  0.03503300  1
  C  C112  1  0.53804200  0.28075500  0.03727200  1
  C  C113  1  0.28079700  0.95771300  0.46903200  1
  C  C114  1  0.04376000  0.28026100  0.46940500  1
  C  C115  1  0.71940400  0.04296800  0.46833400  1
  C  C116  1  0.95614100  0.71945900  0.46811200  1
  C  C117  1  0.71979800  0.95605500  0.53084200  1
  C  C118  1  0.95683400  0.28058800  0.53189800  1
  C  C119  1  0.28053800  0.04408900  0.53212200  1
  C  C120  1  0.04250800  0.71925800  0.53121400  1
  C  C121  1  0.78203400  0.46489700  0.95967000  1
  C  C122  1  0.53491200  0.78184100  0.95944500  1
  C  C123  1  0.21834800  0.53487000  0.96162400  1
  C  C124  1  0.46519700  0.21827800  0.96138500  1
  C  C125  1  0.21806600  0.46648500  0.04057000  1
  C  C126  1  0.46651800  0.78174400  0.03838600  1
  C  C127  1  0.78182300  0.53337700  0.03855800  1
  C  C128  1  0.53367300  0.21786600  0.04027600  1
  C  C129  1  0.18616000  0.00040300  0.50082700  1
  C  C130  1  0.00005400  0.18597800  0.50079400  1
  C  C131  1  0.81404700  0.99982100  0.49942900  1
  C  C132  1  0.99976700  0.81386600  0.49939500  1
  C  C133  1  0.68691100  0.49945600  0.99866200  1
  C  C134  1  0.50050000  0.68676200  0.99865100  1
  C  C135  1  0.31323900  0.50041000  0.00116300  1
  C  C136  1  0.49963400  0.31309100  0.00108300  1
  C  C137  1  0.31295600  0.00102200  0.50055600  1
  C  C138  1  0.00046400  0.31267300  0.50070500  1
  C  C139  1  0.68735200  0.99936500  0.49958800  1
  C  C140  1  0.99917900  0.68707000  0.49973700  1
  C  C141  1  0.81366500  0.49895600  0.99932000  1
  C  C142  1  0.50087900  0.81360200  0.99906600  1
  C  C143  1  0.18639700  0.50079800  0.00109100  1
  C  C144  1  0.49934500  0.18633400  0.00075200  1
  C  C145  1  0.99994900  0.11923000  0.50104500  1
  C  C146  1  0.88079600  0.99997100  0.49917600  1
  C  C147  1  0.00006300  0.88069900  0.49916300  1
  C  C148  1  0.11932800  0.00006700  0.50105700  1
  C  C149  1  0.50043700  0.61948300  0.99863200  1
  C  C150  1  0.38051800  0.50017000  0.00114400  1
  C  C151  1  0.49988100  0.38032500  0.00111600  1
  C  C152  1  0.61967600  0.49951300  0.99860900  1
  C  C153  1  0.31303200  0.18124300  0.62306200  1
  C  C154  1  0.28353900  0.21592900  0.66353900  1
  C  C155  1  0.31461200  0.26042900  0.69280300  1
  C  C156  1  0.37561400  0.27016300  0.68288700  1
  C  C157  1  0.40535000  0.23621700  0.64277500  1
  C  C158  1  0.37426500  0.19251900  0.61258100  1
  C  C159  1  0.81920500  0.31386800  0.62197700  1
  C  C160  1  0.78441200  0.28473200  0.66259100  1
  C  C161  1  0.73984600  0.31605900  0.69153300  1
  C  C162  1  0.73012300  0.37696700  0.68112800  1
  C  C163  1  0.76416100  0.40634700  0.64085900  1
  C  C164  1  0.80794900  0.37500200  0.61100500  1
  C  C165  1  0.68761000  0.81854000  0.62141300  1
  C  C166  1  0.71700200  0.78422500  0.66221300  1
  C  C167  1  0.68602100  0.73955800  0.69134200  1
  C  C168  1  0.62521000  0.72925600  0.68092500  1
  C  C169  1  0.59558400  0.76281800  0.64046900  1
  C  C170  1  0.62658700  0.80671100  0.61044200  1
  C  C171  1  0.17927900  0.68596000  0.62240500  1
  C  C172  1  0.21423700  0.71529800  0.66278200  1
  C  C173  1  0.25853500  0.68396500  0.69207200  1
  C  C174  1  0.26776600  0.62285500  0.68231200  1
  C  C175  1  0.23352300  0.59326100  0.64232600  1
  C  C176  1  0.19004800  0.62460200  0.61208500  1
  C  C177  1  0.68605400  0.18036300  0.37796800  1
  C  C178  1  0.71518100  0.21501800  0.33724900  1
  C  C179  1  0.68384600  0.25949100  0.30819200  1
  C  C180  1  0.62293700  0.26923700  0.31857400  1
  C  C181  1  0.59356400  0.23532200  0.35893600  1
  C  C182  1  0.62491900  0.19163900  0.38891200  1
  C  C183  1  0.18107100  0.31252600  0.37859100  1
  C  C184  1  0.21524900  0.28315200  0.33768000  1
  C  C185  1  0.25983300  0.31414300  0.30845200  1
  C  C186  1  0.27017100  0.37494900  0.31886900  1
  C  C187  1  0.23673400  0.40455800  0.35942400  1
  C  C188  1  0.19293500  0.37354200  0.38955500  1
  C  C189  1  0.31415600  0.82114200  0.37760200  1
  C  C190  1  0.28483100  0.78632300  0.33711500  1
  C  C191  1  0.31616800  0.74210000  0.30773100  1
  C  C192  1  0.37727100  0.73282300  0.31749700  1
  C  C193  1  0.40685300  0.76694100  0.35758200  1
  C  C194  1  0.37550500  0.81033100  0.38792100  1
  C  C195  1  0.81921300  0.68690700  0.37689500  1
  C  C196  1  0.78466700  0.71639100  0.33631200  1
  C  C197  1  0.74025200  0.68531500  0.30693900  1
  C  C198  1  0.73048500  0.62431500  0.31684100  1
  C  C199  1  0.76430700  0.59458400  0.35704700  1
  C  C200  1  0.80790700  0.62567600  0.38735500  1
  C  C201  1  0.81656300  0.63782400  0.15849200  1
  C  C202  1  0.81197900  0.70052200  0.16196700  1
  C  C203  1  0.84680500  0.73225600  0.20032700  1
  C  C204  1  0.88581100  0.70147900  0.23576000  1
  C  C205  1  0.88985400  0.63888500  0.23301200  1
  C  C206  1  0.85570800  0.60713100  0.19419300  1
  C  C207  1  0.36180800  0.81650100  0.15814700  1
  C  C208  1  0.29906900  0.81217500  0.16136900  1
  C  C209  1  0.26730600  0.84698800  0.19971900  1
  C  C210  1  0.29807500  0.88578900  0.23534100  1
  C  C211  1  0.36069700  0.88956200  0.23286000  1
  C  C212  1  0.39249600  0.85538500  0.19409600  1
  C  C213  1  0.18280500  0.36209700  0.16043800  1
  C  C214  1  0.18695500  0.29935600  0.16374600  1
  C  C215  1  0.15207000  0.26775700  0.20215400  1
  C  C216  1  0.11343500  0.29870600  0.23780100  1
  C  C217  1  0.10982000  0.36133400  0.23521200  1
  C  C218  1  0.14401500  0.39296100  0.19634100  1
  C  C219  1  0.63792400  0.18225600  0.16015100  1
  C  C220  1  0.70058900  0.18703300  0.16389800  1
  C  C221  1  0.73226500  0.15209500  0.20221100  1
  C  C222  1  0.70145800  0.11277000  0.23732300  1
  C  C223  1  0.63889400  0.10849300  0.23427400  1
  C  C224  1  0.60720400  0.14276000  0.19550100  1
  C  C225  1  0.18381700  0.63928100  0.84160200  1
  C  C226  1  0.18840500  0.70198500  0.83813700  1
  C  C227  1  0.15359200  0.73373200  0.79977400  1
  C  C228  1  0.11452500  0.70297800  0.76438500  1
  C  C229  1  0.11048600  0.64038400  0.76710900  1
  C  C230  1  0.14467200  0.60860800  0.80588000  1
  C  C231  1  0.63903600  0.81687600  0.83934100  1
  C  C232  1  0.70174300  0.81246200  0.83580900  1
  C  C233  1  0.73334100  0.84735000  0.79740200  1
  C  C234  1  0.70242100  0.88625700  0.76198200  1
  C  C235  1  0.63982000  0.89014200  0.76479600  1
  C  C236  1  0.60820100  0.85593400  0.80366100  1
  C  C237  1  0.81739000  0.36083400  0.83960700  1
  C  C238  1  0.81230900  0.29821000  0.83564400  1
  C  C239  1  0.84722400  0.26650400  0.79733400  1
  C  C240  1  0.88683600  0.29724400  0.76244300  1
  C  C241  1  0.89142100  0.35977400  0.76570700  1
  C  C242  1  0.85716700  0.39148700  0.80447200  1
  C  C243  1  0.36094900  0.18379300  0.84125800  1
  C  C244  1  0.29828900  0.18867900  0.83756600  1
  C  C245  1  0.26652900  0.15387600  0.79920400  1
  C  C246  1  0.29724600  0.11458600  0.76399100  1
  C  C247  1  0.35980900  0.11023600  0.76695700  1
  C  C248  1  0.39158100  0.14436900  0.80577100  1
  Cl  Cl1  1  0.27627700  0.30510100  0.74247900  1
  Cl  Cl2  1  0.69505300  0.27814800  0.74138900  1
  Cl  Cl3  1  0.72423600  0.69540300  0.74148600  1
  Cl  Cl4  1  0.30359300  0.72210100  0.74158100  1
  Cl  Cl5  1  0.72174400  0.30412500  0.25820600  1
  Cl  Cl6  1  0.30382600  0.27595400  0.25817300  1
  Cl  Cl7  1  0.27804900  0.69720400  0.25808700  1
  Cl  Cl8  1  0.69574100  0.72363900  0.25713300  1
  Cl  Cl9  1  0.84126300  0.81177300  0.20422100  1
  Cl  Cl10  1  0.18776400  0.84166300  0.20338300  1
  Cl  Cl11  1  0.15708400  0.18819400  0.20584500  1
  Cl  Cl12  1  0.81174000  0.15791500  0.20646100  1
  Cl  Cl13  1  0.15923800  0.81323500  0.79581400  1
  Cl  Cl14  1  0.81286800  0.84201200  0.79343900  1
  Cl  Cl15  1  0.84102600  0.18707400  0.79281900  1
  Cl  Cl16  1  0.18705500  0.15979600  0.79504200  1
  O  O1  1  0.40908100  0.05390600  0.49922400  1
  O  O2  1  0.94850300  0.40922700  0.49823800  1
  O  O3  1  0.59129700  0.94655500  0.49723400  1
  O  O4  1  0.05113900  0.59041200  0.49899000  1
  O  O5  1  0.59085000  0.05141000  0.50211500  1
  O  O6  1  0.05335600  0.40867200  0.50317600  1
  O  O7  1  0.40955800  0.94897600  0.50141300  1
  O  O8  1  0.94620800  0.59099800  0.50113000  1
  O  O9  1  0.90930700  0.55118100  0.99810500  1
  O  O10  1  0.44871000  0.90940000  0.99954200  1
  O  O11  1  0.09064400  0.44851500  0.00093700  1
  O  O12  1  0.55156000  0.09067500  0.99869800  1
  O  O13  1  0.09107600  0.55378100  0.00083600  1
  O  O14  1  0.55397600  0.90887500  0.99943300  1
  O  O15  1  0.90884600  0.44594300  0.00168300  1
  O  O16  1  0.44632100  0.09117100  0.00228300  1
  O  O17  1  0.50020400  0.05141200  0.41619500  1
  O  O18  1  0.94581900  0.50255200  0.41676400  1
  O  O19  1  0.49946000  0.94608700  0.41640600  1
  O  O20  1  0.05099700  0.49633900  0.41664500  1
  O  O21  1  0.49752700  0.05427000  0.58358800  1
  O  O22  1  0.05385400  0.50051200  0.58401300  1
  O  O23  1  0.50363100  0.94908900  0.58377200  1
  O  O24  1  0.94852900  0.49986900  0.58415900  1
  O  O25  1  0.00271200  0.55406700  0.91676000  1
  O  O26  1  0.44902200  0.00288500  0.91627000  1
  O  O27  1  0.99824000  0.44873000  0.91664800  1
  O  O28  1  0.55435200  0.99832500  0.91633400  1
  O  O29  1  0.00001000  0.55101400  0.08414000  1
  O  O30  1  0.55130000  0.99886100  0.08373000  1
  O  O31  1  0.99887300  0.44560900  0.08404400  1
  O  O32  1  0.44589400  0.00008600  0.08364900  1
  O  O33  1  0.00182200  0.09104700  0.54963700  1
  O  O34  1  0.90935200  0.00182700  0.54759200  1
  O  O35  1  0.00074700  0.90931200  0.54758800  1
  O  O36  1  0.09108300  0.00073700  0.54964700  1
  O  O37  1  0.99811600  0.09067300  0.45262900  1
  O  O38  1  0.09071400  0.99936300  0.45263200  1
  O  O39  1  0.99937200  0.90894300  0.45057300  1
  O  O40  1  0.90898000  0.99812200  0.45058400  1
  O  O41  1  0.50162200  0.59075400  0.04701300  1
  O  O42  1  0.40928100  0.50139500  0.04948400  1
  O  O43  1  0.49693000  0.40904300  0.04942000  1
  O  O44  1  0.59098500  0.49666400  0.04694600  1
  O  O45  1  0.49905600  0.59073700  0.95028600  1
  O  O46  1  0.59096500  0.50262000  0.95030900  1
  O  O47  1  0.50287400  0.40900800  0.95278200  1
  O  O48  1  0.40923100  0.49884100  0.95275700  1
