# generated using pymatgen
data_ZnH10C25N2O7
_symmetry_space_group_name_H-M   'P 1'
_cell_length_a   23.30973500
_cell_length_b   8.54587000
_cell_length_c   11.43452000
_cell_angle_alpha   90.00000000
_cell_angle_beta   92.19427800
_cell_angle_gamma   90.00000000
_symmetry_Int_Tables_number   1
_chemical_formula_structural   ZnH10C25N2O7
_chemical_formula_sum   'Zn2 H20 C50 N4 O14'
_cell_volume   2276.10866091
_cell_formula_units_Z   2
loop_
 _symmetry_equiv_pos_site_id
 _symmetry_equiv_pos_as_xyz
  1  'x, y, z'
loop_
 _atom_site_type_symbol
 _atom_site_label
 _atom_site_symmetry_multiplicity
 _atom_site_fract_x
 _atom_site_fract_y
 _atom_site_fract_z
 _atom_site_occupancy
  Zn  Zn1  1  0.49508900  0.49947600  0.86917300  1
  Zn  Zn2  1  0.50479500  0.50052500  0.13014700  1
  H  H1  1  0.30673800  0.25170000  0.97825600  1
  H  H2  1  0.69271600  0.74846000  0.02565100  1
  H  H3  1  0.69515400  0.25021800  0.01673000  1
  H  H4  1  0.30454700  0.75037900  0.97933800  1
  H  H5  1  0.15047700  0.24811000  0.21429600  1
  H  H6  1  0.85083500  0.72028000  0.80805600  1
  H  H7  1  0.86401900  0.26967300  0.21778500  1
  H  H8  1  0.13510000  0.76157600  0.76223100  1
  H  H9  1  0.96435000  0.27913200  0.21112000  1
  H  H10  1  0.03453400  0.75807200  0.76546000  1
  H  H11  1  0.05044200  0.24697000  0.22726700  1
  H  H12  1  0.95107600  0.71639000  0.79892900  1
  H  H13  1  0.46038100  0.99609100  0.04299800  1
  H  H14  1  0.53956200  0.00381000  0.95548300  1
  H  H15  1  0.59949400  0.52141200  0.27568600  1
  H  H16  1  0.40038900  0.47911100  0.72364100  1
  H  H17  1  0.38298100  0.48001600  0.51667700  1
  H  H18  1  0.61689000  0.52097200  0.48272000  1
  H  H19  1  0.38987200  0.51372600  0.22818800  1
  H  H20  1  0.61008800  0.48606200  0.77098600  1
  C  C1  1  0.21100800  0.09178100  0.06298300  1
  C  C2  1  0.78945900  0.90063000  0.94265700  1
  C  C3  1  0.79397100  0.08949500  0.09047500  1
  C  C4  1  0.20594700  0.91749600  0.90549200  1
  C  C5  1  0.32756300  0.86000800  0.98566600  1
  C  C6  1  0.67235400  0.14018000  0.01238000  1
  C  C7  1  0.67096500  0.85929300  0.01340200  1
  C  C8  1  0.32879500  0.14092600  0.98807900  1
  C  C9  1  0.38639100  0.85908200  0.00518000  1
  C  C10  1  0.61348500  0.14088400  0.99377600  1
  C  C11  1  0.61240500  0.86179800  0.99232400  1
  C  C12  1  0.38746400  0.13828700  0.00727500  1
  C  C13  1  0.29836000  0.00162200  0.98334200  1
  C  C14  1  0.70159900  0.99847500  0.01646500  1
  C  C15  1  0.11907300  0.00396600  0.99027800  1
  C  C16  1  0.88114000  0.99605700  0.01084500  1
  C  C17  1  0.15186900  0.09265500  0.06761000  1
  C  C18  1  0.84864600  0.89886200  0.93915900  1
  C  C19  1  0.85329500  0.09187900  0.08699600  1
  C  C20  1  0.14660400  0.91632300  0.90840500  1
  C  C21  1  0.12562700  0.17945600  0.15125000  1
  C  C22  1  0.87529400  0.80037000  0.86347400  1
  C  C23  1  0.88479200  0.19116500  0.15862100  1
  C  C24  1  0.11471300  0.82886300  0.82901900  1
  C  C25  1  0.41505200  0.99775000  0.02288900  1
  C  C26  1  0.58485600  0.00222600  0.97598700  1
  C  C27  1  0.97271900  0.09556600  0.08027100  1
  C  C28  1  0.02734800  0.90909900  0.91797300  1
  C  C29  1  0.03272200  0.09348600  0.07780300  1
  C  C30  1  0.96764900  0.90241200  0.92634100  1
  C  C31  1  0.94070100  0.99792900  0.00588500  1
  C  C32  1  0.05951700  0.00231000  0.99528700  1
  C  C33  1  0.94359800  0.19402000  0.15506300  1
  C  C34  1  0.05592900  0.82563700  0.83308400  1
  C  C35  1  0.06694400  0.17972600  0.15685400  1
  C  C36  1  0.93395800  0.80092900  0.85752700  1
  C  C37  1  0.42078500  0.71621600  0.00316500  1
  C  C38  1  0.57908700  0.28373900  0.99604800  1
  C  C39  1  0.57744100  0.72021200  0.99442900  1
  C  C40  1  0.42241300  0.27986800  0.00497200  1
  C  C41  1  0.42704500  0.48329000  0.54868300  1
  C  C42  1  0.57284600  0.51712100  0.45065900  1
  C  C43  1  0.43674300  0.48507400  0.66804000  1
  C  C44  1  0.56315000  0.51517200  0.33129200  1
  C  C45  1  0.53542300  0.51657700  0.64554900  1
  C  C46  1  0.46447000  0.48353700  0.35381200  1
  C  C47  1  0.52718100  0.50970400  0.52424600  1
  C  C48  1  0.47272000  0.49044600  0.47510300  1
  C  C49  1  0.40715300  0.44880500  0.30240700  1
  C  C50  1  0.59272300  0.55131100  0.69700400  1
  N  N1  1  0.23717000  0.00468800  0.98256500  1
  N  N2  1  0.76290000  0.99510900  0.01800600  1
  N  N3  1  0.50964900  0.50214500  0.28373100  1
  N  N4  1  0.49024500  0.49786100  0.71559900  1
  O  O1  1  0.24280300  0.17359900  0.14210600  1
  O  O2  1  0.75813300  0.81224300  0.86690900  1
  O  O3  1  0.76727500  0.17909600  0.16815900  1
  O  O4  1  0.23259900  0.83395100  0.82415600  1
  O  O5  1  0.44510500  0.66840900  0.10221000  1
  O  O6  1  0.55479000  0.33164800  0.89708000  1
  O  O7  1  0.55368900  0.67058000  0.89542200  1
  O  O8  1  0.44616700  0.32950400  0.10393200  1
  O  O9  1  0.43459800  0.66102300  0.90075100  1
  O  O10  1  0.56525500  0.33887000  0.09852600  1
  O  O11  1  0.56400200  0.66483600  0.09684600  1
  O  O12  1  0.43590200  0.33508800  0.90249100  1
  O  O13  1  0.37965400  0.33893000  0.33889400  1
  O  O14  1  0.62008800  0.66166800  0.66090200  1
