# Generated by REPEAT Assigner based on pymatgen
data_DB0-m29_o80_o153_f0_pts.sym.68
_audit_creation_date              2022-05-24
_audit_creation_method            REPEAT_Assigner
_cell_length_a                    14.016333
_cell_length_b                    9.344209
_cell_length_c                    19.296776
_cell_angle_alpha                 88.483381
_cell_angle_beta                  90.159072
_cell_angle_gamma                 113.204992
_cell_volume                      2321.975956
_symmetry_space_group_name_H-M    P1
_symmetry_Int_Tables_number       1
loop_
    _symmetry_equiv_pos_site_id
    _symmetry_equiv_pos_as_xyz
    1  x,y,z
loop_
    _atom_site_type_symbol
    _atom_site_label
    _atom_site_fract_x
    _atom_site_fract_y
    _atom_site_fract_z
    _atom_type_partial_charge
    H   H1   0.965390  0.230227  0.225410  0.136450
    C   C1   0.723982  0.857110  0.933778  -0.226915
    C   C2   0.752897  0.745695  0.906903  -0.325791
    C   C3   0.850954  0.775528  0.931260  0.565092
    N   N1   0.882902  0.897869  0.973571  -0.590519
    C   C4   0.804545  0.947336  0.975226  0.537092
    C   C5   0.907249  0.697864  0.911449  -0.406016
    C   C6   0.016714  0.742462  0.928790  0.312281
    C   C7   0.086244  0.719936  0.884966  -0.206788
    C   C8   0.181239  0.781452  0.916590  -0.311887
    C   C9   0.165809  0.837226  0.979527  0.434080
    N   N2   0.064769  0.813785  0.986424  -0.342075
    C   C10  0.247590  0.914644  0.029954  -0.416743
    C   C11  0.244645  0.025034  0.070964  0.590375
    C   C12  0.326154  0.116851  0.111169  -0.220437
    C   C13  0.298009  0.228963  0.137944  -0.199491
    C   C14  0.198289  0.196525  0.115895  0.295359
    N   N3   0.165666  0.073232  0.074030  -0.619984
    C   C15  0.140374  0.270713  0.137617  0.186012
    C   C16  0.028617  0.211166  0.122898  0.086275
    C   C17  0.954371  0.204337  0.171000  -0.167744
    C   C18  0.861140  0.149737  0.137217  -0.096985
    C   C19  0.881072  0.122630  0.069872  0.224737
    N   N4   0.983753  0.159000  0.061481  -0.218867
    C   C20  0.801603  0.056407  0.016787  -0.304737
    H   H2   0.708380  0.655200  0.872047  0.165464
    H   H3   0.874280  0.608493  0.873449  0.177917
    H   H4   0.070082  0.671668  0.833869  0.172257
    H   H5   0.317571  0.892088  0.029371  0.212032
    H   H6   0.344407  0.318752  0.172463  0.150406
    H   H7   0.732363  0.080990  0.017191  0.169432
    H   H8   0.029143  0.840358  0.028532  0.307304
    H   H9   0.021889  0.154422  0.015813  0.261858
    O   O1   0.674839  0.072389  0.137024  -0.656025
    C   C21  0.761906  0.116289  0.171664  0.742021
    O   O2   0.638210  0.805807  0.214668  -0.525819
    O   O3   0.759933  0.126727  0.239254  -0.571368
    O   O4   0.520697  0.864900  0.275211  -0.558456
    C   C22  0.576742  0.780761  0.268760  0.516518
    Fe  Fe1  0.560124  0.034915  0.203797  1.492595
    O   O5   0.428907  0.973676  0.148852  -0.657880
    O   O6   0.503825  0.236127  0.140669  -0.590341
    C   C23  0.424914  0.106162  0.127545  0.699934
    O   O7   0.612358  0.236559  0.253924  -0.591935
    O   O8   0.456722  0.111354  0.307865  -0.592932
    C   C24  0.540069  0.238728  0.296445  0.720184
    C   C25  0.532384  0.516729  0.429403  0.171745
    C   C26  0.548754  0.649583  0.388040  0.047891
    C   C27  0.553657  0.784108  0.419180  -0.075152
    C   C28  0.537994  0.785247  0.489262  -0.285914
    C   C29  0.522265  0.655390  0.530416  0.258720
    C   C30  0.521557  0.521153  0.501657  -0.042221
    C   C31  0.508732  0.662989  0.600841  -0.290315
    C   C32  0.496434  0.537326  0.644755  0.184888
    C   C33  0.498267  0.404064  0.617017  0.116166
    C   C34  0.511886  0.396493  0.546534  -0.217536
    C   C35  0.479833  0.541620  0.715514  -0.320521
    C   C36  0.457410  0.407932  0.756534  0.323254
    C   C37  0.464219  0.277182  0.729096  -0.002019
    C   C38  0.486488  0.276621  0.659607  -0.242121
    C   C39  0.526640  0.382021  0.397392  -0.289553
    C   C40  0.548568  0.383680  0.328134  0.033605
    C   C41  0.569470  0.516782  0.288072  -0.165162
    C   C42  0.563796  0.647643  0.316450  -0.001693
    H   H10  0.572356  0.892492  0.390806  0.146108
    H   H11  0.541287  0.891461  0.512112  0.157806
    H   H12  0.490600  0.173463  0.638177  0.163559
    H   H13  0.515506  0.290555  0.529273  0.151923
    H   H14  0.504632  0.767855  0.619814  0.170612
    H   H15  0.506413  0.271841  0.424221  0.142426
    H   H16  0.582331  0.513923  0.233020  0.179650
    O   O9   0.614744  0.980365  0.887854  -0.673921
    O   O10  0.541176  0.729384  0.923751  -0.658896
    C   C43  0.622246  0.861678  0.921745  0.813696
    O   O11  0.426679  0.689009  0.796343  -0.576699
    O   O12  0.575228  0.814346  0.734971  -0.565182
    C   C44  0.491977  0.687766  0.748111  0.693465
    O   O13  0.393084  0.113368  0.830406  -0.504013
    O   O14  0.368758  0.864519  0.910708  -0.674057
    C   C45  0.277950  0.804722  0.880468  0.901452
    O   O15  0.503630  0.055232  0.762731  -0.558246
    C   C46  0.451665  0.142341  0.774667  0.555961
    O   O16  0.273915  0.779087  0.813827  -0.606589
    Fe  Fe2  0.477424  0.898993  0.839384  1.452493
    N   N5   0.436503  0.407689  0.827972  -0.589164
    C   C47  0.331736  0.377452  0.844399  0.587694
    C   C48  0.308503  0.428443  0.906227  -0.321960
    C   C49  0.207183  0.400813  0.923247  -0.016424
    C   C50  0.128140  0.320954  0.878845  -0.092043
    C   C51  0.150360  0.267320  0.817708  -0.096881
    C   C52  0.251586  0.294609  0.800396  -0.203384
    H   H17  0.489856  0.497774  0.854334  0.401291
    H   H18  0.369425  0.489575  0.942011  0.174892
    H   H19  0.189754  0.441601  0.971588  0.076785
    H   H20  0.048698  0.299363  0.892168  0.067591
    H   H21  0.088157  0.203143  0.783218  0.117418
    H   H22  0.265287  0.248388  0.752471  0.105104
    N   N6   0.184072  0.391201  0.185842  -0.474236
    C   C53  0.126468  0.482213  0.199372  0.399064
    C   C54  0.116468  0.521599  0.266735  -0.207482
    C   C55  0.058688  0.607466  0.280954  -0.083840
    C   C56  0.010698  0.654502  0.227974  -0.067906
    C   C57  0.021937  0.617823  0.160638  -0.124021
    C   C58  0.080880  0.533812  0.146055  -0.186385
    H   H23  0.212739  0.357310  0.229580  0.298609
    H   H24  0.152786  0.484039  0.308932  0.123874
    H   H25  0.050407  0.636893  0.333773  0.119955
    H   H26  0.964684  0.720767  0.239167  0.101323
    H   H27  0.984237  0.654791  0.119227  0.116207
    H   H28  0.091282  0.510166  0.092697  0.102367
