# Generated by REPEAT Assigner based on pymatgen
data_DB0-m29_o84_o108_f0_pts.sym.30
_audit_creation_date              2022-05-24
_audit_creation_method            REPEAT_Assigner
_cell_length_a                    13.356592
_cell_length_b                    14.216400
_cell_length_c                    11.259997
_cell_angle_alpha                 94.961259
_cell_angle_beta                  101.983038
_cell_angle_gamma                 100.918354
_cell_volume                      2035.935176
_symmetry_space_group_name_H-M    P1
_symmetry_Int_Tables_number       1
loop_
    _symmetry_equiv_pos_site_id
    _symmetry_equiv_pos_as_xyz
    1  x,y,z
loop_
    _atom_site_type_symbol
    _atom_site_label
    _atom_site_fract_x
    _atom_site_fract_y
    _atom_site_fract_z
    _atom_type_partial_charge
    C   C1   0.211902  0.988034  0.869137  0.004811
    C   C2   0.109926  0.968595  0.800284  -0.136679
    C   C3   0.027117  0.972416  0.855442  0.071589
    C   C4   0.926538  0.951465  0.784932  -0.063024
    C   C5   0.843290  0.955109  0.838183  -0.107774
    C   C6   0.228846  0.011966  0.995401  -0.009684
    C   C7   0.145363  0.017629  0.049935  -0.080251
    C   C8   0.044210  0.997164  0.980154  0.126613
    C   C9   0.960419  0.001416  0.034778  -0.124432
    C   C10  0.859377  0.980589  0.963779  0.119793
    C   C11  0.775209  0.984145  0.017971  -0.159988
    C   C12  0.162277  0.043550  0.174870  0.056732
    C   C13  0.080154  0.049405  0.228713  -0.269283
    C   C14  0.978086  0.028926  0.159575  0.315565
    C   C15  0.894629  0.036047  0.214130  -0.229963
    C   C16  0.791803  0.008008  0.144749  0.157984
    H   H1   0.093768  0.949543  0.702207  0.124300
    H   H2   0.912012  0.931496  0.687089  0.125372
    H   H3   0.766449  0.936324  0.777998  0.085781
    H   H4   0.239181  0.060867  0.234846  0.068001
    H   H5   0.100166  0.067746  0.326561  0.125177
    O   O1   0.608629  0.007016  0.143278  -0.520680
    C   C17  0.702272  0.003818  0.205575  0.458931
    O   O2   0.561737  0.817330  0.240804  -0.477220
    O   O3   0.712996  0.987589  0.319915  -0.389982
    O   O4   0.491443  0.906728  0.364131  -0.502495
    C   C18  0.518428  0.825287  0.334658  0.527050
    Fe  Fe1  0.502194  0.998941  0.242952  1.438405
    O   O5   0.361840  0.954153  0.126590  -0.649413
    O   O6   0.394212  0.113041  0.100246  -0.568040
    C   C19  0.333193  0.026516  0.073978  0.744875
    O   O7   0.541078  0.132241  0.336428  -0.636523
    O   O8   0.402912  0.070113  0.415045  -0.472470
    C   C20  0.478311  0.142685  0.409977  0.626982
    O   O9   0.456428  0.875207  0.669940  -0.577281
    O   O10  0.601248  0.928468  0.597994  -0.502729
    C   C21  0.519758  0.860473  0.598273  0.637168
    O   O11  0.644016  0.043692  0.884602  -0.665644
    O   O12  0.607099  0.885354  0.914045  -0.585613
    C   C22  0.670632  0.970665  0.938155  0.814139
    O   O13  0.278194  0.967266  0.686143  -0.492522
    O   O14  0.519576  0.101686  0.650870  -0.488670
    C   C23  0.472310  0.173248  0.667814  0.516987
    O   O15  0.396967  0.002960  0.868272  -0.534842
    C   C24  0.298778  0.984250  0.806089  0.553676
    O   O16  0.412853  0.170244  0.747213  -0.482290
    Fe  Fe2  0.502896  0.006948  0.768056  1.430567
    C   C25  0.484374  0.238751  0.473034  0.108066
    C   C26  0.483025  0.255110  0.595502  -0.148555
    C   C27  0.496204  0.350400  0.649171  0.212024
    C   C28  0.516496  0.372130  0.775354  -0.186129
    C   C29  0.529189  0.465080  0.828014  -0.037619
    C   C30  0.487649  0.313746  0.403967  -0.299411
    C   C31  0.483668  0.406010  0.451822  0.087805
    C   C32  0.493950  0.425543  0.576884  -0.031480
    C   C33  0.503549  0.520001  0.630044  0.086965
    C   C34  0.445650  0.458501  0.250217  -0.135863
    C   C35  0.473359  0.479140  0.377374  0.042772
    C   C36  0.485667  0.573966  0.430230  0.008112
    C   C37  0.433728  0.530286  0.178576  -0.030026
    C   C38  0.452286  0.624195  0.230441  -0.202800
    C   C39  0.522104  0.538183  0.757303  -0.172248
    C   C40  0.498623  0.594409  0.555803  0.062059
    C   C41  0.501891  0.688822  0.603526  -0.267976
    C   C42  0.482567  0.648231  0.356657  0.187814
    C   C43  0.503938  0.744793  0.409432  -0.105450
    C   C44  0.507659  0.763362  0.533613  0.066243
    H   H6   0.528425  0.319332  0.836966  0.156843
    H   H7   0.492194  0.295898  0.310865  0.234332
    H   H8   0.424868  0.386537  0.201655  0.113225
    H   H9   0.407768  0.512403  0.080293  0.111818
    H   H10  0.536225  0.608664  0.808058  0.144491
    H   H11  0.503309  0.709900  0.697658  0.204260
    H   H12  0.435161  0.675821  0.168800  0.166389
    H   H13  0.546607  0.481293  0.926618  0.111958
    I   I1   0.926000  0.108482  0.396567  0.109378
