# generated using pymatgen
data_CuH20C28NO4
_symmetry_space_group_name_H-M   'P 1'
_cell_length_a   17.67626300
_cell_length_b   16.22840800
_cell_length_c   15.85641800
_cell_angle_alpha   90.00000000
_cell_angle_beta   89.99978500
_cell_angle_gamma   90.00000000
_symmetry_Int_Tables_number   1
_chemical_formula_structural   CuH20C28NO4
_chemical_formula_sum   'Cu2 H40 C56 N2 O8'
_cell_volume   4548.53413698
_cell_formula_units_Z   2
loop_
 _symmetry_equiv_pos_site_id
 _symmetry_equiv_pos_as_xyz
  1  'x, y, z'
loop_
 _atom_site_type_symbol
 _atom_site_label
 _atom_site_symmetry_multiplicity
 _atom_site_fract_x
 _atom_site_fract_y
 _atom_site_fract_z
 _atom_site_occupancy
  Cu  Cu1  1  0.50043700  0.58251200  0.49987700  1
  Cu  Cu2  1  0.50059600  0.41765900  0.50017900  1
  H  H1  1  0.40485300  0.58389700  0.92562400  1
  H  H2  1  0.39697800  0.42984300  0.93314700  1
  H  H3  1  0.39691800  0.57023100  0.06749500  1
  H  H4  1  0.40481800  0.41616800  0.07473900  1
  H  H5  1  0.49639100  0.36757900  0.06631700  1
  H  H6  1  0.48167400  0.63150500  0.07548000  1
  H  H7  1  0.48213100  0.36848800  0.92548900  1
  H  H8  1  0.49669600  0.63221900  0.93416400  1
  H  H9  1  0.60748600  0.56173900  0.06768700  1
  H  H10  1  0.61354600  0.45091800  0.07455200  1
  H  H11  1  0.61327100  0.54948300  0.92616500  1
  H  H12  1  0.60755800  0.43838800  0.93323500  1
  H  H13  1  0.87747100  0.63047600  0.49171800  1
  H  H14  1  0.87645000  0.36859100  0.50853400  1
  H  H15  1  0.73991300  0.63239300  0.49184100  1
  H  H16  1  0.73856900  0.36856400  0.50860600  1
  H  H17  1  0.26242500  0.63128400  0.49093800  1
  H  H18  1  0.26208400  0.36811500  0.50969600  1
  H  H19  1  0.58643500  0.86558800  0.59266500  1
  H  H20  1  0.58809300  0.13566300  0.59156200  1
  H  H21  1  0.58707000  0.71437300  0.59119300  1
  H  H22  1  0.58809900  0.28698000  0.59007500  1
  H  H23  1  0.41330000  0.71216700  0.40982000  1
  H  H24  1  0.41310100  0.28692100  0.41017800  1
  H  H25  1  0.41054900  0.86341500  0.40920800  1
  H  H26  1  0.41113600  0.13533000  0.40997600  1
  H  H27  1  0.11008200  0.61660600  0.66129600  1
  H  H28  1  0.11831100  0.72352700  0.69046600  1
  H  H29  1  0.19645500  0.67287400  0.63943100  1
  H  H30  1  0.05470600  0.81397500  0.60397400  1
  H  H31  1  0.00185100  0.85336400  0.46730500  1
  H  H32  1  0.01964900  0.76358900  0.34364300  1
  H  H33  1  0.09077100  0.63432200  0.35752900  1
  H  H34  1  0.11409900  0.38207200  0.33836400  1
  H  H35  1  0.12254100  0.27501900  0.30968900  1
  H  H36  1  0.19981900  0.32545900  0.36251600  1
  H  H37  1  0.05717000  0.18486400  0.39568800  1
  H  H38  1  0.00219600  0.14644800  0.53154100  1
  H  H39  1  0.01698100  0.23740500  0.65458600  1
  H  H40  1  0.08801000  0.36699100  0.64122500  1
  C  C1  1  0.35499300  0.49991300  0.50004100  1
  C  C2  1  0.50058800  0.50032200  0.33816800  1
  C  C3  1  0.64589000  0.50020100  0.49976700  1
  C  C4  1  0.50075400  0.49987100  0.66182400  1
  C  C5  1  0.45708900  0.57455900  0.04805000  1
  C  C6  1  0.46236300  0.42194000  0.04760400  1
  C  C7  1  0.45721100  0.42547600  0.95241200  1
  C  C8  1  0.46241200  0.57801000  0.95281300  1
  C  C9  1  0.50085300  0.50009100  0.75227200  1
  C  C10  1  0.50007000  0.49984800  0.07965800  1
  C  C11  1  0.50012500  0.50018100  0.92068100  1
  C  C12  1  0.58079100  0.49714600  0.95270800  1
  C  C13  1  0.58082300  0.50302300  0.04788100  1
  C  C14  1  0.50050400  0.50011700  0.82830300  1
  C  C15  1  0.50039700  0.49990800  0.17176900  1
  C  C16  1  0.50071500  0.49973700  0.24770300  1
  C  C17  1  0.84659400  0.57314800  0.49539300  1
  C  C18  1  0.84614800  0.42638200  0.50476900  1
  C  C19  1  0.76872200  0.57382300  0.49549000  1
  C  C20  1  0.76819000  0.42670600  0.50477400  1
  C  C21  1  0.72896200  0.50042600  0.50007900  1
  C  C22  1  0.88532400  0.49968400  0.50011000  1
  C  C23  1  0.96649800  0.49981600  0.50010400  1
  C  C24  1  0.03458400  0.50003700  0.49998900  1
  C  C25  1  0.15464200  0.57336300  0.49524800  1
  C  C26  1  0.15457000  0.42647600  0.50444900  1
  C  C27  1  0.23282800  0.57319500  0.49504600  1
  C  C28  1  0.23269900  0.42636800  0.50500500  1
  C  C29  1  0.27218400  0.49970600  0.50006000  1
  C  C30  1  0.11558100  0.49994700  0.49981900  1
  C  C31  1  0.54830000  0.83243000  0.55161400  1
  C  C32  1  0.54905900  0.16842600  0.55140200  1
  C  C33  1  0.54825200  0.74744100  0.55095800  1
  C  C34  1  0.54879400  0.25334200  0.55071200  1
  C  C35  1  0.45157200  0.74621900  0.45007700  1
  C  C36  1  0.45127700  0.25344700  0.45074400  1
  C  C37  1  0.45022900  0.83117700  0.44930700  1
  C  C38  1  0.45015900  0.16850800  0.45008900  1
  C  C39  1  0.49926400  0.87466600  0.49994900  1
  C  C40  1  0.49955300  0.12568700  0.50061700  1
  C  C41  1  0.49914900  0.96304800  0.49958200  1
  C  C42  1  0.49953100  0.03728100  0.49993800  1
  C  C43  1  0.11324800  0.65116300  0.48865700  1
  C  C44  1  0.10319300  0.70141300  0.55833500  1
  C  C45  1  0.13392400  0.67702300  0.64229900  1
  C  C46  1  0.06304000  0.77404200  0.55019800  1
  C  C47  1  0.03308900  0.79633700  0.47322300  1
  C  C48  1  0.04304200  0.74613200  0.40403200  1
  C  C49  1  0.08301800  0.67369300  0.41184500  1
  C  C50  1  0.11327200  0.34878900  0.51088600  1
  C  C51  1  0.10493600  0.29775900  0.44153800  1
  C  C52  1  0.13733900  0.32160400  0.35810900  1
  C  C53  1  0.06479400  0.22508700  0.44938600  1
  C  C54  1  0.03357300  0.20335300  0.52585900  1
  C  C55  1  0.04188400  0.25431100  0.59472700  1
  C  C56  1  0.08163500  0.32693400  0.58716800  1
  N  N1  1  0.50044600  0.70571000  0.50020600  1
  N  N2  1  0.50072200  0.29447600  0.49971600  1
  O  O1  1  0.39051700  0.57092600  0.49703600  1
  O  O2  1  0.39061900  0.42927300  0.50296400  1
  O  O3  1  0.49782100  0.57129800  0.37727900  1
  O  O4  1  0.50304600  0.42956100  0.37739200  1
  O  O5  1  0.61038000  0.57076600  0.49693600  1
  O  O6  1  0.61049700  0.42927000  0.50262300  1
  O  O7  1  0.49787600  0.57063600  0.62240300  1
  O  O8  1  0.50333900  0.42897300  0.62247100  1
