# generated using pymatgen
data_CuH4C16Br6NO4
_symmetry_space_group_name_H-M   'P 1'
_cell_length_a   11.00546300
_cell_length_b   9.45620800
_cell_length_c   19.46685700
_cell_angle_alpha   90.00000000
_cell_angle_beta   89.99500600
_cell_angle_gamma   90.00000000
_symmetry_Int_Tables_number   1
_chemical_formula_structural   CuH4C16Br6NO4
_chemical_formula_sum   'Cu2 H8 C32 Br12 N2 O8'
_cell_volume   2025.91477370
_cell_formula_units_Z   2
loop_
 _symmetry_equiv_pos_site_id
 _symmetry_equiv_pos_as_xyz
  1  'x, y, z'
loop_
 _atom_site_type_symbol
 _atom_site_label
 _atom_site_symmetry_multiplicity
 _atom_site_fract_x
 _atom_site_fract_y
 _atom_site_fract_z
 _atom_site_occupancy
  Cu  Cu1  1  0.50056100  0.64097200  0.50029700  1
  Cu  Cu2  1  0.50046500  0.35912000  0.49995700  1
  H  H1  1  0.47832900  0.27533400  0.84467800  1
  H  H2  1  0.52225500  0.72486600  0.15502200  1
  H  H3  1  0.51869300  0.27481100  0.15600800  1
  H  H4  1  0.48092600  0.72514300  0.84348600  1
  H  H5  1  0.36895200  0.67198200  0.94094700  1
  H  H6  1  0.63085500  0.32707800  0.05814600  1
  H  H7  1  0.38245600  0.67477600  0.06503800  1
  H  H8  1  0.61827000  0.32569500  0.93393200  1
  C  C1  1  0.87135100  0.49977100  0.49919700  1
  C  C2  1  0.12929900  0.50012200  0.49993500  1
  C  C3  1  0.26521200  0.50003500  0.49804900  1
  C  C4  1  0.73565500  0.49993800  0.50171500  1
  C  C5  1  0.51170400  0.50048700  0.36726700  1
  C  C6  1  0.48908100  0.49949800  0.63274000  1
  C  C7  1  0.06307000  0.37419000  0.50081300  1
  C  C8  1  0.93744400  0.62566900  0.49816500  1
  C  C9  1  0.93784600  0.37403000  0.49844400  1
  C  C10  1  0.06264800  0.62589800  0.50053400  1
  C  C11  1  0.47634600  0.37263700  0.74647600  1
  C  C12  1  0.52401400  0.62725800  0.25313400  1
  C  C13  1  0.52452700  0.37385000  0.25331300  1
  C  C14  1  0.47564200  0.62616900  0.74628800  1
  C  C15  1  0.48185600  0.37453400  0.81723200  1
  C  C16  1  0.51867100  0.62541200  0.18231100  1
  C  C17  1  0.51963400  0.37520300  0.18254600  1
  C  C18  1  0.48034100  0.62485900  0.81697500  1
  C  C19  1  0.48666300  0.49976200  0.85292500  1
  C  C20  1  0.51377200  0.50025400  0.14648200  1
  C  C21  1  0.42875900  0.07180300  0.45604300  1
  C  C22  1  0.57283900  0.92814100  0.54379400  1
  C  C23  1  0.57177600  0.07407700  0.54337300  1
  C  C24  1  0.42988800  0.92609600  0.45642600  1
  C  C25  1  0.48019100  0.49936200  0.70910100  1
  C  C26  1  0.52025800  0.50058000  0.29065100  1
  C  C27  1  0.42855800  0.59745500  0.96614500  1
  C  C28  1  0.57163900  0.40218300  0.03306600  1
  C  C29  1  0.43590000  0.59849700  0.03686300  1
  C  C30  1  0.56472700  0.40159200  0.96232100  1
  C  C31  1  0.50719900  0.50047600  0.07094300  1
  C  C32  1  0.49326800  0.49947400  0.92832300  1
  Br  Br1  1  0.32174200  0.15757000  0.39104000  1
  Br  Br2  1  0.67904600  0.84192900  0.60932900  1
  Br  Br3  1  0.67677700  0.16408400  0.60836200  1
  Br  Br4  1  0.32400500  0.83650600  0.39204900  1
  Br  Br5  1  0.13244400  0.18958500  0.51056200  1
  Br  Br6  1  0.86773200  0.81020600  0.48934000  1
  Br  Br7  1  0.86931700  0.18864100  0.49113800  1
  Br  Br8  1  0.13071000  0.81127400  0.50871000  1
  Br  Br9  1  0.45277000  0.18892200  0.70729500  1
  Br  Br10  1  0.54644900  0.81102100  0.29231800  1
  Br  Br11  1  0.54651900  0.19004600  0.29262900  1
  Br  Br12  1  0.45312000  0.80992900  0.70701500  1
  N  N1  1  0.50075800  0.85299900  0.50074800  1
  N  N2  1  0.49975900  0.14698600  0.49931800  1
  O  O1  1  0.32399600  0.62035700  0.49989700  1
  O  O2  1  0.67690900  0.37952900  0.50025700  1
  O  O3  1  0.67707400  0.62047100  0.50537000  1
  O  O4  1  0.32386500  0.37962500  0.49472800  1
  O  O5  1  0.51080400  0.62091700  0.40064700  1
  O  O6  1  0.49007700  0.37912300  0.59951600  1
  O  O7  1  0.49888400  0.62009700  0.60019400  1
  O  O8  1  0.50212700  0.37992200  0.39997300  1
