# generated using pymatgen
data_ZnH7C9N2O5
_symmetry_space_group_name_H-M   'P 1'
_cell_length_a   11.89806900
_cell_length_b   11.13714700
_cell_length_c   9.96019900
_cell_angle_alpha   89.99737900
_cell_angle_beta   89.98895900
_cell_angle_gamma   89.99562300
_symmetry_Int_Tables_number   1
_chemical_formula_structural   ZnH7C9N2O5
_chemical_formula_sum   'Zn2 H14 C18 N4 O10'
_cell_volume   1319.83135281
_cell_formula_units_Z   2
loop_
 _symmetry_equiv_pos_site_id
 _symmetry_equiv_pos_as_xyz
  1  'x, y, z'
loop_
 _atom_site_type_symbol
 _atom_site_label
 _atom_site_symmetry_multiplicity
 _atom_site_fract_x
 _atom_site_fract_y
 _atom_site_fract_z
 _atom_site_occupancy
  Zn  Zn1  1  0.53434500  0.49567500  0.64764100  1
  Zn  Zn2  1  0.52591000  0.49392300  0.34201500  1
  H  H1  1  0.49979100  0.88659600  0.29561300  1
  H  H2  1  0.57908500  0.89997400  0.58767200  1
  H  H3  1  0.55277900  0.10593900  0.30004100  1
  H  H4  1  0.46037700  0.65607900  0.87109500  1
  H  H5  1  0.59905200  0.43990800  0.89684600  1
  H  H6  1  0.53782200  0.67410100  0.11198500  1
  H  H7  1  0.48908100  0.11328600  0.71082400  1
  H  H8  1  0.34545100  0.02818000  0.83029300  1
  H  H9  1  0.25435200  0.92941100  0.73649800  1
  H  H10  1  0.22036600  0.08710000  0.75077100  1
  H  H11  1  0.50307400  0.31361000  0.11044200  1
  H  H12  1  0.34627300  0.20508000  0.05730400  1
  H  H13  1  0.23112600  0.29032900  0.98776100  1
  H  H14  1  0.23974500  0.26681100  0.16703500  1
  C  C1  1  0.52022200  0.25995500  0.49752100  1
  C  C2  1  0.31091600  0.50415300  0.50659600  1
  C  C3  1  0.53950400  0.72934800  0.49268100  1
  C  C4  1  0.74936200  0.48580700  0.48309000  1
  C  C5  1  0.19032600  0.50211500  0.50680000  1
  C  C6  1  0.08925800  0.49808000  0.50019600  1
  C  C7  1  0.97101100  0.49233200  0.48959300  1
  C  C8  1  0.86994900  0.48816900  0.48295700  1
  C  C9  1  0.52227600  0.92894400  0.38979900  1
  C  C10  1  0.54865200  0.86045200  0.49547400  1
  C  C11  1  0.52948300  0.06167300  0.39282400  1
  C  C12  1  0.50633800  0.12888900  0.50158300  1
  C  C13  1  0.50352200  0.58225000  0.91974200  1
  C  C14  1  0.52283900  0.58730000  0.06635400  1
  C  C15  1  0.35397000  0.04605000  0.61538700  1
  C  C16  1  0.28992000  0.02135200  0.74124500  1
  C  C17  1  0.35448600  0.39613400  0.08830300  1
  C  C18  1  0.28927900  0.28234800  0.07431700  1
  N  N1  1  0.54525900  0.49750500  0.84803100  1
  N  N2  1  0.51769100  0.49310300  0.14133000  1
  N  N3  1  0.46372000  0.07676500  0.62093900  1
  N  N4  1  0.46806500  0.39450700  0.08336000  1
  O  O1  1  0.52564100  0.31687900  0.61237700  1
  O  O2  1  0.52061100  0.31539800  0.38122700  1
  O  O3  1  0.36550900  0.50322500  0.62136600  1
  O  O4  1  0.36061900  0.50189500  0.38939800  1
  O  O5  1  0.54104300  0.67403000  0.60898700  1
  O  O6  1  0.53327600  0.67313400  0.37673300  1
  O  O7  1  0.69961900  0.48729700  0.60026800  1
  O  O8  1  0.69480800  0.48840100  0.36834500  1
  O  O9  1  0.30595100  0.03952000  0.50750900  1
  O  O10  1  0.30412700  0.49057100  0.10321500  1
