# generated using pymatgen
data_ZnH16C19(NO2)3
_symmetry_space_group_name_H-M   'P 1'
_cell_length_a   11.92013900
_cell_length_b   15.91354200
_cell_length_c   17.23264400
_cell_angle_alpha   89.12628400
_cell_angle_beta   89.99169600
_cell_angle_gamma   92.73565700
_symmetry_Int_Tables_number   1
_chemical_formula_structural   ZnH16C19(NO2)3
_chemical_formula_sum   'Zn2 H32 C38 N6 O12'
_cell_volume   3264.78215985
_cell_formula_units_Z   2
loop_
 _symmetry_equiv_pos_site_id
 _symmetry_equiv_pos_as_xyz
  1  'x, y, z'
loop_
 _atom_site_type_symbol
 _atom_site_label
 _atom_site_symmetry_multiplicity
 _atom_site_fract_x
 _atom_site_fract_y
 _atom_site_fract_z
 _atom_site_occupancy
  Zn  Zn1  1  0.52477400  0.40387300  0.49536000  1
  Zn  Zn2  1  0.53744500  0.59475300  0.50571600  1
  H  H1  1  0.52318500  0.38298200  0.25023100  1
  H  H2  1  0.53648400  0.61459100  0.75185500  1
  H  H3  1  0.52603600  0.34159600  0.88769600  1
  H  H4  1  0.55097700  0.65421200  0.11178200  1
  H  H5  1  0.66750400  0.26751100  0.55057400  1
  H  H6  1  0.37161700  0.73175700  0.50063000  1
  H  H7  1  0.65894900  0.11588200  0.55142100  1
  H  H8  1  0.38117400  0.88329100  0.50143500  1
  H  H9  1  0.73750400  0.87946700  0.53020900  1
  H  H10  1  0.34690700  0.11957300  0.42811400  1
  H  H11  1  0.72225400  0.72613900  0.52758200  1
  H  H12  1  0.36261200  0.27380600  0.42845500  1
  H  H13  1  0.34754500  0.39636100  0.11043600  1
  H  H14  1  0.38999200  0.30602000  0.16681800  1
  H  H15  1  0.42626900  0.23177700  0.04291500  1
  H  H16  1  0.28126000  0.25809000  0.05494700  1
  H  H17  1  0.37178000  0.32003900  0.98971700  1
  H  H18  1  0.35543600  0.59575900  0.89098700  1
  H  H19  1  0.40610700  0.68823800  0.83627300  1
  H  H20  1  0.44786300  0.76110100  0.96119400  1
  H  H21  1  0.30062100  0.73054900  0.94963200  1
  H  H22  1  0.38755000  0.67007100  0.01330100  1
  H  H23  1  0.34738900  0.35187800  0.75189300  1
  H  H24  1  0.39678800  0.25967200  0.80215000  1
  H  H25  1  0.42856400  0.19382900  0.67366200  1
  H  H26  1  0.28328900  0.21678700  0.69030800  1
  H  H27  1  0.36927800  0.28409900  0.62649500  1
  H  H28  1  0.36598500  0.64691100  0.22865000  1
  H  H29  1  0.43547100  0.74372400  0.19236800  1
  H  H30  1  0.44619600  0.79478500  0.32931900  1
  H  H31  1  0.30393100  0.77535700  0.29481300  1
  H  H32  1  0.36574500  0.70013200  0.35960400  1
  C  C1  1  0.53090400  0.48718400  0.65259600  1
  C  C2  1  0.53053900  0.51132200  0.34841600  1
  C  C3  1  0.75038700  0.49876900  0.49980500  1
  C  C4  1  0.31184900  0.49976400  0.50121900  1
  C  C5  1  0.87077300  0.49878900  0.49997400  1
  C  C6  1  0.19146300  0.49975700  0.50105900  1
  C  C7  1  0.97187800  0.49906300  0.50029300  1
  C  C8  1  0.09035800  0.49948900  0.50074200  1
  C  C9  1  0.52905200  0.48087300  0.73816200  1
  C  C10  1  0.53052300  0.51687900  0.26271600  1
  C  C11  1  0.53239700  0.55388600  0.78089800  1
  C  C12  1  0.52655900  0.44336200  0.22062100  1
  C  C13  1  0.52798300  0.55161100  0.86113800  1
  C  C14  1  0.52435100  0.44463400  0.14029400  1
  C  C15  1  0.52831300  0.47403200  0.90035700  1
  C  C16  1  0.53590300  0.52177100  0.10042500  1
  C  C17  1  0.52638800  0.40161600  0.85746100  1
  C  C18  1  0.54270000  0.59460600  0.14267900  1
  C  C19  1  0.52265400  0.40387300  0.77742800  1
  C  C20  1  0.53458700  0.59331500  0.22261300  1
  C  C21  1  0.45263000  0.76419900  0.50670800  1
  C  C22  1  0.59770500  0.23461100  0.52246500  1
  C  C23  1  0.45865100  0.85103900  0.50679100  1
  C  C24  1  0.59208600  0.14784900  0.52279300  1
  C  C25  1  0.56201600  0.89353100  0.51438500  1
  C  C26  1  0.50095200  0.10537500  0.48890100  1
  C  C27  1  0.65607400  0.84754600  0.52345300  1
  C  C28  1  0.41878900  0.15145700  0.45478100  1
  C  C29  1  0.64715600  0.76095300  0.52181700  1
  C  C30  1  0.42782200  0.23817100  0.45489100  1
  C  C31  1  0.40183200  0.34165000  0.11137600  1
  C  C32  1  0.36820500  0.28409100  0.04529100  1
  C  C33  1  0.41459800  0.65170800  0.89111200  1
  C  C34  1  0.38586700  0.70701800  0.95832500  1
  C  C35  1  0.40404300  0.29875600  0.74837800  1
  C  C36  1  0.36910800  0.24478300  0.68011300  1
  C  C37  1  0.42697900  0.69936400  0.24253800  1
  C  C38  1  0.38292200  0.74559900  0.31126800  1
  N  N1  1  0.52759600  0.46413400  0.98246600  1
  N  N2  1  0.53906600  0.53111100  0.01828700  1
  N  N3  1  0.54636000  0.72032000  0.51243700  1
  N  N4  1  0.51627200  0.27837500  0.48894000  1
  N  N5  1  0.57414200  0.98238300  0.51335300  1
  N  N6  1  0.48878400  0.01647300  0.48928700  1
  O  O1  1  0.52679400  0.41802000  0.61199300  1
  O  O2  1  0.53576900  0.58071700  0.38899900  1
  O  O3  1  0.53582300  0.56245300  0.61994000  1
  O  O4  1  0.52617100  0.43606900  0.38113900  1
  O  O5  1  0.69348400  0.42646400  0.49599200  1
  O  O6  1  0.36871800  0.57218500  0.50494900  1
  O  O7  1  0.70292100  0.57111000  0.50397100  1
  O  O8  1  0.35922800  0.42728100  0.49729500  1
  O  O9  1  0.51455100  0.36907800  0.10302100  1
  O  O10  1  0.52496000  0.62663000  0.89905400  1
  O  O11  1  0.51517700  0.32940000  0.73849300  1
  O  O12  1  0.53173600  0.66810700  0.26063600  1
