# generated using pymatgen
data_Zn2H17C32N2ClO8
_symmetry_space_group_name_H-M   'P 1'
_cell_length_a   12.17097300
_cell_length_b   8.56250500
_cell_length_c   10.83643700
_cell_angle_alpha   90.00000000
_cell_angle_beta   108.94022000
_cell_angle_gamma   90.00000000
_symmetry_Int_Tables_number   1
_chemical_formula_structural   Zn2H17C32N2ClO8
_chemical_formula_sum   'Zn2 H17 C32 N2 Cl1 O8'
_cell_volume   1068.16531562
_cell_formula_units_Z   1
loop_
 _symmetry_equiv_pos_site_id
 _symmetry_equiv_pos_as_xyz
  1  'x, y, z'
loop_
 _atom_site_type_symbol
 _atom_site_label
 _atom_site_symmetry_multiplicity
 _atom_site_fract_x
 _atom_site_fract_y
 _atom_site_fract_z
 _atom_site_occupancy
  Zn  Zn1  1  0.12804600  0.50616100  0.53203400  1
  Zn  Zn2  1  0.87010200  0.50252200  0.46671700  1
  H  H1  1  0.91670400  0.65097900  0.86314400  1
  H  H2  1  0.87619800  0.29043400  0.91037900  1
  H  H3  1  0.91975100  0.63570700  0.06775200  1
  H  H4  1  0.00630400  0.38963200  0.11901700  1
  H  H5  1  0.05176800  0.01003400  0.60320000  1
  H  H6  1  0.94683400  0.00203200  0.39596900  1
  H  H7  1  0.07298900  0.63822700  0.92392100  1
  H  H8  1  0.99820100  0.39199700  0.88771300  1
  H  H9  1  0.07588200  0.64902600  0.12789700  1
  H  H10  1  0.12718400  0.28661700  0.09468900  1
  H  H11  1  0.71212500  0.47227000  0.22865000  1
  H  H12  1  0.31614800  0.47400800  0.17745600  1
  H  H13  1  0.70827400  0.51930800  0.60972000  1
  H  H14  1  0.27964100  0.52772500  0.76823500  1
  H  H15  1  0.60999800  0.54348900  0.72925100  1
  H  H16  1  0.48874800  0.55688300  0.86087100  1
  H  H17  1  0.20374600  0.49761600  0.31511000  1
  C  C1  1  0.03670200  0.00806500  0.69567400  1
  C  C2  1  0.01895700  0.86765300  0.74766700  1
  C  C3  1  0.02274000  0.14661100  0.75283400  1
  C  C4  1  0.00656400  0.86355100  0.86973100  1
  C  C5  1  0.00142200  0.14308000  0.87096600  1
  C  C6  1  0.99706100  0.70815200  0.92622400  1
  C  C7  1  0.97140600  0.28718500  0.92964100  1
  C  C8  1  0.99539300  0.70670400  0.06598500  1
  C  C9  1  0.03194600  0.28519100  0.07532000  1
  C  C10  1  0.00309800  0.00185200  0.93384500  1
  C  C11  1  0.99420200  0.00062700  0.06456500  1
  C  C12  1  0.98689700  0.86100500  0.12499200  1
  C  C13  1  0.00001900  0.14025100  0.13130900  1
  C  C14  1  0.97402500  0.86276000  0.24679000  1
  C  C15  1  0.98037000  0.14141400  0.25046700  1
  C  C16  1  0.96151800  0.00227800  0.30328300  1
  C  C17  1  0.98222700  0.72039000  0.32387100  1
  C  C18  1  0.98775300  0.28236300  0.32982200  1
  C  C19  1  0.01093600  0.72613200  0.66901100  1
  C  C20  1  0.01557700  0.28895900  0.67542400  1
  C  C21  1  0.54482100  0.47057300  0.24761500  1
  C  C22  1  0.33130900  0.52490700  0.70400600  1
  C  C23  1  0.44939800  0.53928900  0.75741200  1
  C  C24  1  0.51839800  0.53204500  0.68012900  1
  C  C25  1  0.46834300  0.51277200  0.54658400  1
  C  C26  1  0.34697600  0.50561600  0.49479100  1
  C  C27  1  0.53616600  0.50272600  0.46356000  1
  C  C28  1  0.48057300  0.48497000  0.33081800  1
  C  C29  1  0.36127600  0.48308400  0.28081300  1
  C  C30  1  0.29560300  0.49528600  0.36134700  1
  C  C31  1  0.65805000  0.50806100  0.50850300  1
  C  C32  1  0.66323900  0.48032200  0.29562100  1
  N  N1  1  0.71827100  0.49888500  0.42394400  1
  N  N2  1  0.28018200  0.51000900  0.57416700  1
  Cl  Cl1  1  0.47923300  0.43533800  0.08065800  1
  O  O1  1  0.88776500  0.66991300  0.34369200  1
  O  O2  1  0.89256100  0.33194900  0.34877600  1
  O  O3  1  0.08625700  0.66666667  0.38809600  1
  O  O4  1  0.09079000  0.33918600  0.39329500  1
  O  O5  1  0.10620100  0.67648100  0.65030400  1
  O  O6  1  0.11071300  0.33925200  0.65571800  1
  O  O7  1  0.90732100  0.66876500  0.60625300  1
  O  O8  1  0.91154800  0.34254800  0.61108300  1
