# generated using pymatgen
data_CuH6C20N(ClO2)2
_symmetry_space_group_name_H-M   'P 1'
_cell_length_a   14.99450100
_cell_length_b   13.54395700
_cell_length_c   14.44157100
_cell_angle_alpha   90.00000000
_cell_angle_beta   89.99010400
_cell_angle_gamma   90.00000000
_symmetry_Int_Tables_number   1
_chemical_formula_structural   CuH6C20N(ClO2)2
_chemical_formula_sum   'Cu2 H12 C40 N2 Cl4 O8'
_cell_volume   2932.86462331
_cell_formula_units_Z   2
loop_
 _symmetry_equiv_pos_site_id
 _symmetry_equiv_pos_as_xyz
  1  'x, y, z'
loop_
 _atom_site_type_symbol
 _atom_site_label
 _atom_site_symmetry_multiplicity
 _atom_site_fract_x
 _atom_site_fract_y
 _atom_site_fract_z
 _atom_site_occupancy
  Cu  Cu1  1  0.50062000  0.59882000  0.50098200  1
  Cu  Cu2  1  0.50062900  0.40126200  0.50127500  1
  H  H1  1  0.78146100  0.65788700  0.49578200  1
  H  H2  1  0.21975700  0.34217000  0.50573300  1
  H  H3  1  0.78141200  0.34225000  0.50547200  1
  H  H4  1  0.21980400  0.65778900  0.49601600  1
  H  H5  1  0.91905100  0.25446700  0.50789300  1
  H  H6  1  0.08214100  0.74555800  0.49289800  1
  H  H7  1  0.08205400  0.25443200  0.50793700  1
  H  H8  1  0.91913700  0.74559100  0.49287400  1
  H  H9  1  0.39856300  0.75266400  0.59869300  1
  H  H10  1  0.59861800  0.24735300  0.39927300  1
  H  H11  1  0.59919800  0.75299400  0.39942600  1
  H  H12  1  0.39876800  0.24716300  0.59936200  1
  C  C1  1  0.32909800  0.49998200  0.50108900  1
  C  C2  1  0.67210900  0.50009300  0.50107800  1
  C  C3  1  0.50106700  0.50002400  0.32341900  1
  C  C4  1  0.50103000  0.50005500  0.67884100  1
  C  C5  1  0.50200300  0.49988400  0.22406600  1
  C  C6  1  0.50195900  0.50020000  0.77820400  1
  C  C7  1  0.50250800  0.49989500  0.14062900  1
  C  C8  1  0.50247300  0.50019900  0.86164500  1
  C  C9  1  0.50279200  0.49999500  0.04285400  1
  C  C10  1  0.50278100  0.50010100  0.95941500  1
  C  C11  1  0.81649200  0.58821400  0.49790400  1
  C  C12  1  0.18471000  0.41183000  0.50351500  1
  C  C13  1  0.76997000  0.50007400  0.50080600  1
  C  C14  1  0.23123500  0.49998100  0.50091100  1
  C  C15  1  0.81646900  0.41190400  0.50335700  1
  C  C16  1  0.18473900  0.58813800  0.49804900  1
  C  C17  1  0.90851800  0.41198300  0.50321000  1
  C  C18  1  0.09268900  0.58805200  0.49787200  1
  C  C19  1  0.95457000  0.50002600  0.50050500  1
  C  C20  1  0.04663600  0.50000900  0.50053800  1
  C  C21  1  0.90854300  0.58808500  0.49779800  1
  C  C22  1  0.09265800  0.41194600  0.50329200  1
  C  C23  1  0.95461700  0.32385300  0.50581600  1
  C  C24  1  0.04658200  0.67617300  0.49505700  1
  C  C25  1  0.04652100  0.32383500  0.50585400  1
  C  C26  1  0.95467700  0.67619000  0.49502800  1
  C  C27  1  0.44228700  0.79529200  0.55496100  1
  C  C28  1  0.55479500  0.20477800  0.44293000  1
  C  C29  1  0.55517100  0.79543900  0.44295900  1
  C  C30  1  0.44238300  0.20468000  0.55541100  1
  C  C31  1  0.55525300  0.89771100  0.44087100  1
  C  C32  1  0.44031500  0.10239700  0.55537600  1
  C  C33  1  0.44031800  0.89758000  0.55520700  1
  C  C34  1  0.55503100  0.10250400  0.44081500  1
  C  C35  1  0.49776700  0.94898100  0.49806500  1
  C  C36  1  0.49772400  0.05111300  0.49810500  1
  C  C37  1  0.61216000  0.94934000  0.38266900  1
  C  C38  1  0.38199600  0.05076500  0.61205000  1
  C  C39  1  0.38198500  0.94910300  0.61194800  1
  C  C40  1  0.61199400  0.05099300  0.38258500  1
  N  N1  1  0.50055500  0.74653600  0.50089500  1
  N  N2  1  0.50076500  0.25354300  0.50155000  1
  Cl  Cl1  1  0.68662600  0.88939700  0.30754900  1
  Cl  Cl2  1  0.30664900  0.11073100  0.68619600  1
  Cl  Cl3  1  0.30661300  0.88898400  0.68595200  1
  Cl  Cl4  1  0.68626400  0.11110400  0.30737500  1
  O  O1  1  0.37103500  0.58470800  0.49777100  1
  O  O2  1  0.63023100  0.41519400  0.50452800  1
  O  O3  1  0.63023400  0.58500200  0.49778600  1
  O  O4  1  0.37103200  0.41525800  0.50447400  1
  O  O5  1  0.50349700  0.58503400  0.36640800  1
  O  O6  1  0.50350600  0.41507700  0.63584300  1
  O  O7  1  0.50350300  0.58488500  0.63555100  1
  O  O8  1  0.50352400  0.41516400  0.36670000  1
