# generated using pymatgen
data_Fe2H14C37O17
_symmetry_space_group_name_H-M   'P 1'
_cell_length_a   15.66294500
_cell_length_b   9.23198800
_cell_length_c   10.84417600
_cell_angle_alpha   76.65318200
_cell_angle_beta   87.92363000
_cell_angle_gamma   103.92210700
_symmetry_Int_Tables_number   1
_chemical_formula_structural   Fe2H14C37O17
_chemical_formula_sum   'Fe2 H14 C37 O17'
_cell_volume   1473.88790391
_cell_formula_units_Z   1
loop_
 _symmetry_equiv_pos_site_id
 _symmetry_equiv_pos_as_xyz
  1  'x, y, z'
loop_
 _atom_site_type_symbol
 _atom_site_label
 _atom_site_symmetry_multiplicity
 _atom_site_fract_x
 _atom_site_fract_y
 _atom_site_fract_z
 _atom_site_occupancy
  Fe  Fe1  1  0.48452000  0.99482900  0.23726200  1
  Fe  Fe2  1  0.48257900  0.98370900  0.68706900  1
  H  H1  1  0.89996000  0.05758000  0.76290200  1
  H  H2  1  0.99823200  0.95470800  0.82690400  1
  H  H3  1  0.75533800  0.05207500  0.71034600  1
  H  H4  1  0.21620300  0.97729700  0.20426500  1
  H  H5  1  0.07010900  0.98628500  0.25573800  1
  H  H6  1  0.92628100  0.00713500  0.30807200  1
  H  H7  1  0.78130100  0.01817900  0.25428000  1
  H  H8  1  0.55775300  0.51878500  0.63167300  1
  H  H9  1  0.39649800  0.44751400  0.29337700  1
  H  H10  1  0.13815400  0.93793100  0.48976600  1
  H  H11  1  0.15661500  0.72274100  0.40555900  1
  H  H12  1  0.18732500  0.49531100  0.54679000  1
  H  H13  1  0.19827800  0.48298500  0.77430000  1
  H  H14  1  0.17890400  0.69492000  0.86117100  1
  C  C1  1  0.85043600  0.03341800  0.84134500  1
  C  C2  1  0.25226700  0.97816000  0.89554400  1
  C  C3  1  0.16664700  0.97178000  0.86140900  1
  C  C4  1  0.10060000  0.97611100  0.94941700  1
  C  C5  1  0.01559800  0.97572200  0.91688400  1
  C  C6  1  0.95201600  0.99288000  0.00191600  1
  C  C7  1  0.76729200  0.03681900  0.80945500  1
  C  C8  1  0.69913100  0.01021400  0.90168600  1
  C  C9  1  0.86825800  0.00620900  0.96770900  1
  C  C10  1  0.80241500  0.00043300  0.06027800  1
  C  C11  1  0.71583200  0.99640500  0.02816500  1
  C  C12  1  0.26923000  0.97807800  0.02050000  1
  C  C13  1  0.20213800  0.97441000  0.10794400  1
  C  C14  1  0.11928600  0.97873600  0.07192200  1
  C  C15  1  0.05502200  0.98515100  0.15942100  1
  C  C16  1  0.97214100  0.99321000  0.12451200  1
  C  C17  1  0.90977100  0.00274300  0.21283700  1
  C  C18  1  0.82559800  0.00492100  0.18197500  1
  C  C19  1  0.64189800  0.97739400  0.12439000  1
  C  C20  1  0.47497400  0.69826300  0.37122600  1
  C  C21  1  0.35814000  0.99634800  0.06247300  1
  C  C22  1  0.43370700  0.23537800  0.30377900  1
  C  C23  1  0.52636300  0.73556700  0.62267100  1
  C  C24  1  0.61032500  0.98915100  0.86027600  1
  C  C25  1  0.47946100  0.27545300  0.55513000  1
  C  C26  1  0.32412700  0.98715600  0.79973900  1
  C  C27  1  0.43448800  0.37560500  0.34603800  1
  C  C28  1  0.47063300  0.40695500  0.45117000  1
  C  C29  1  0.48403700  0.56545900  0.47432200  1
  C  C30  1  0.52171500  0.59474400  0.57924100  1
  C  C31  1  0.14681000  0.96341700  0.73143400  1
  C  C32  1  0.15832700  0.83343300  0.68126600  1
  C  C33  1  0.15141300  0.83886900  0.55353900  1
  C  C34  1  0.16188800  0.71767700  0.50550800  1
  C  C35  1  0.17907000  0.59018600  0.58460600  1
  C  C36  1  0.18538800  0.58352000  0.71204200  1
  C  C37  1  0.17495400  0.70444000  0.76054500  1
  O  O1  1  0.57702200  0.04314400  0.09395600  1
  O  O2  1  0.47960300  0.69211500  0.25159800  1
  O  O3  1  0.63794400  0.88827800  0.23878100  1
  O  O4  1  0.48012400  0.83299600  0.39473600  1
  O  O5  1  0.36839200  0.91258900  0.17378600  1
  O  O6  1  0.42250800  0.11420700  0.00233800  1
  O  O7  1  0.50789300  0.19603100  0.28704800  1
  O  O8  1  0.36029300  0.15823100  0.27019800  1
  O  O9  1  0.45436000  0.78165100  0.63830200  1
  O  O10  1  0.60107800  0.80730200  0.65704500  1
  O  O11  1  0.60133400  0.06294600  0.74469700  1
  O  O12  1  0.54520400  0.87614700  0.92529700  1
  O  O13  1  0.32067200  0.04833900  0.67874000  1
  O  O14  1  0.48531500  0.14556100  0.53027200  1
  O  O15  1  0.39397700  0.93920600  0.83470700  1
  O  O16  1  0.46529700  0.27726400  0.67473700  1
  O  O17  1  0.12338300  0.06860800  0.66292100  1
