# Generated by REPEAT Assigner based on pymatgen
data_DB0-m3_o160_o88_f0_fsc.sym.3
_audit_creation_date              2022-05-24
_audit_creation_method            REPEAT_Assigner
_cell_length_a                    6.554375
_cell_length_b                    13.326310
_cell_length_c                    13.780080
_cell_angle_alpha                 100.290835
_cell_angle_beta                  100.170169
_cell_angle_gamma                 89.913925
_cell_volume                      1165.099283
_symmetry_space_group_name_H-M    P1
_symmetry_Int_Tables_number       1
loop_
    _symmetry_equiv_pos_site_id
    _symmetry_equiv_pos_as_xyz
    1  x,y,z
loop_
    _atom_site_type_symbol
    _atom_site_label
    _atom_site_fract_x
    _atom_site_fract_y
    _atom_site_fract_z
    _atom_type_partial_charge
    C   C1   0.427109  0.057918  0.819382  -0.106336
    H   H1   0.266585  0.073606  0.823229  0.098616
    C   C2   0.566370  0.053146  0.906082  -0.234722
    H   H2   0.515348  0.067819  0.977576  0.130168
    C   C3   0.768241  0.026187  0.901472  0.222275
    C   C4   0.831781  0.009562  0.809829  -0.257527
    H   H3   0.990752  0.993096  0.804174  0.178570
    C   C5   0.693981  0.016735  0.723458  -0.014186
    C   C6   0.489628  0.038505  0.727476  -0.024681
    C   C7   0.911018  0.016545  0.994240  -0.194821
    C   C8   0.101574  0.980729  0.993303  -0.226585
    H   H4   0.856334  0.038694  0.064289  0.108144
    H   H5   0.156264  0.958575  0.923255  0.134273
    C   C9   0.446225  0.944126  0.081440  -0.247638
    H   H6   0.497220  0.929445  0.009939  0.145521
    C   C10  0.585512  0.939361  0.168132  -0.063185
    H   H7   0.746027  0.923668  0.164271  0.096237
    C   C11  0.523017  0.958786  0.260042  -0.124471
    C   C12  0.318686  0.980558  0.264081  -0.007069
    C   C13  0.180852  0.987728  0.177718  -0.265421
    H   H8   0.021889  0.004204  0.183382  0.176935
    C   C14  0.244362  0.971091  0.086068  0.247236
    O   O1   0.846093  0.920334  0.594958  -0.745907
    O   O2   0.814485  0.093820  0.601408  -0.778484
    C   C15  0.775904  0.008670  0.631094  0.861231
    O   O3   0.240404  0.106360  0.609454  -0.582688
    O   O4   0.268626  0.931652  0.594724  -0.471118
    C   C16  0.331947  0.025392  0.636452  0.563751
    O   O5   0.166511  0.076949  0.392553  -0.787647
    O   O6   0.198194  0.903478  0.386133  -0.780057
    C   C17  0.236856  0.988634  0.356474  0.899755
    O   O7   0.772339  0.891073  0.378075  -0.574568
    O   O8   0.744082  0.065501  0.392825  -0.584304
    C   C18  0.680674  0.971892  0.351063  0.668324
    Zn  Zn1  0.993214  0.111271  0.500334  1.006767
    Zn  Zn2  0.019431  0.886022  0.487194  1.025507
    C   C19  0.169106  0.713720  0.547483  0.119265
    N   N1   0.032347  0.753681  0.480915  0.066897
    C   C20  0.883092  0.694414  0.416816  -0.137087
    C   C21  0.867199  0.591630  0.418119  -0.083714
    C   C22  0.004237  0.549095  0.486613  -0.320314
    C   C23  0.157723  0.611027  0.550985  0.572955
    C   C24  0.839531  0.380850  0.431289  -0.308431
    C   C25  0.990661  0.446699  0.492849  0.411093
    C   C26  0.133294  0.408875  0.562130  -0.143392
    C   C27  0.285285  0.472840  0.624662  0.322374
    N   N2   0.294526  0.572321  0.618552  -0.623972
    C   C28  0.837258  0.279118  0.438822  -0.039897
    N   N3   0.979604  0.243553  0.506308  0.140179
    C   C29  0.126591  0.306633  0.567731  -0.098125
    H   H9   0.771196  0.728163  0.365563  0.148399
    H   H10  0.243293  0.276591  0.619827  0.120790
    H   H11  0.397296  0.442986  0.678958  0.069131
    H   H12  0.744365  0.547119  0.366168  0.122394
    H   H13  0.724114  0.406063  0.375683  0.173790
    H   H14  0.723508  0.227043  0.388235  0.130274
    F   F1   0.314160  0.775156  0.613708  -0.134502
