# Generated by REPEAT Assigner based on pymatgen
data_DB0-m2_o12_o18_f0_pcu.sym.68_sqe
_audit_creation_date              2022-05-24
_audit_creation_method            REPEAT_Assigner
_cell_length_a                    9.741080
_cell_length_b                    11.184219
_cell_length_c                    15.942210
_cell_angle_alpha                 93.577920
_cell_angle_beta                  81.994291
_cell_angle_gamma                 111.024265
_cell_volume                      1605.276277
_symmetry_space_group_name_H-M    P1
_symmetry_Int_Tables_number       1
loop_
    _symmetry_equiv_pos_site_id
    _symmetry_equiv_pos_as_xyz
    1  x,y,z
loop_
    _atom_site_type_symbol
    _atom_site_label
    _atom_site_fract_x
    _atom_site_fract_y
    _atom_site_fract_z
    _atom_type_partial_charge
    O   O1   0.424499  0.668708  0.489559  -0.564348
    O   O2   0.578911  0.336569  0.508035  -0.571710
    O   O3   0.660544  0.703402  0.519400  -0.568747
    O   O4   0.343612  0.302021  0.477550  -0.506500
    C   C1   0.555630  0.744919  0.506329  0.757545
    C   C2   0.448009  0.260073  0.491107  0.701512
    O   O5   0.320144  0.477936  0.607947  -0.562747
    O   O6   0.683357  0.527137  0.389376  -0.561302
    O   O7   0.556723  0.504734  0.631923  -0.539694
    O   O8   0.446707  0.501068  0.365450  -0.561884
    C   C3   0.417836  0.487854  0.659256  0.594361
    C   C4   0.585635  0.518487  0.338191  0.627600
    Cu  Cu1  0.362845  0.482195  0.484522  0.846941
    Cu  Cu2  0.640649  0.522893  0.512758  0.890620
    C   C5   0.368256  0.476109  0.750862  -0.000277
    C   C6   0.634085  0.530282  0.246427  -0.035517
    C   C7   0.173121  0.422992  0.865191  -0.211819
    C   C8   0.828075  0.580709  0.131433  -0.222223
    C   C9   0.219548  0.439621  0.780144  -0.046474
    C   C10  0.782232  0.565700  0.216584  -0.050010
    C   C11  0.470007  0.498179  0.807815  -0.216895
    C   C12  0.531671  0.506671  0.189491  -0.155185
    C   C13  0.425435  0.485986  0.895169  0.058862
    C   C14  0.576139  0.518538  0.101807  0.033277
    C   C15  0.274557  0.445243  0.922723  0.203286
    C   C16  0.726915  0.558590  0.074049  0.204746
    C   C17  0.526860  0.511171  0.955139  0.064919
    C   C18  0.475085  0.492625  0.041499  0.052573
    C   C19  0.322847  0.447539  0.065636  -0.153636
    C   C20  0.679395  0.556258  0.930874  -0.197351
    C   C21  0.224888  0.425048  0.007729  -0.134334
    C   C22  0.777081  0.577733  0.988886  -0.089533
    H   H1   0.417915  0.479919  0.216738  0.119675
    H   H2   0.583438  0.522596  0.780688  0.151182
    H   H3   0.864695  0.584744  0.259293  0.096490
    H   H4   0.136638  0.419170  0.737426  0.096420
    H   H5   0.055078  0.390690  0.884566  0.157242
    H   H6   0.945475  0.610192  0.111612  0.158276
    H   H7   0.272040  0.427355  0.129746  0.153290
    H   H8   0.730940  0.578891  0.866929  0.180713
    H   H9   0.623613  0.136732  0.514628  0.115343
    H   H10  0.377445  0.867158  0.484884  0.101664
    C   C23  0.588556  0.883625  0.509816  -0.261444
    C   C24  0.415047  0.121269  0.486887  -0.231327
    C   C25  0.485846  0.932301  0.497094  0.024445
    C   C26  0.516699  0.071956  0.500302  0.017761
    H   H11  0.139004  0.592725  0.545769  0.153541
    H   H12  0.892854  0.457325  0.426721  0.138623
    N   N1   0.848303  0.553368  0.534000  -0.159178
    N   N2   0.155370  0.451911  0.462937  -0.197048
    C   C27  0.931017  0.503307  0.485338  0.059903
    C   C28  0.081581  0.517429  0.503454  0.084745
    C   C29  0.069539  0.379209  0.038767  0.377737
    N   N3   0.944540  0.342292  0.064025  -0.445836
    C   C30  0.932760  0.624751  0.958222  0.356831
    N   N4   0.058230  0.662865  0.934094  -0.436312
    C   C31  0.269676  0.040291  0.469131  0.381903
    N   N5   0.152445  0.975366  0.455056  -0.380624
    C   C32  0.733730  0.965694  0.527801  0.409093
    N   N6   0.850272  0.031663  0.542468  -0.391724
    C   C33  0.078938  0.345868  0.416338  0.474416
    N   N7   0.016323  0.257810  0.376755  -0.410990
    C   C34  0.889150  0.595370  0.613694  0.433417
    N   N8   0.922774  0.630192  0.680271  -0.414282
