# generated using pymatgen
data_ZnH19C26NO5
_symmetry_space_group_name_H-M   'P 1'
_cell_length_a   13.07531700
_cell_length_b   19.45792100
_cell_length_c   18.27008900
_cell_angle_alpha   89.98918700
_cell_angle_beta   95.43432900
_cell_angle_gamma   90.01564900
_symmetry_Int_Tables_number   1
_chemical_formula_structural   ZnH19C26NO5
_chemical_formula_sum   'Zn2 H38 C52 N2 O10'
_cell_volume   4627.35611934
_cell_formula_units_Z   2
loop_
 _symmetry_equiv_pos_site_id
 _symmetry_equiv_pos_as_xyz
  1  'x, y, z'
loop_
 _atom_site_type_symbol
 _atom_site_label
 _atom_site_symmetry_multiplicity
 _atom_site_fract_x
 _atom_site_fract_y
 _atom_site_fract_z
 _atom_site_occupancy
  Zn  Zn1  1  0.50872200  0.49987900  0.58383000  1
  Zn  Zn2  1  0.50792700  0.50017100  0.41723400  1
  H  H1  1  0.83499700  0.50019900  0.40482400  1
  H  H2  1  0.18165200  0.49992800  0.59624100  1
  H  H3  1  0.83660700  0.49987100  0.63924400  1
  H  H4  1  0.18004100  0.50007400  0.36182100  1
  H  H5  1  0.99332200  0.50015700  0.35016800  1
  H  H6  1  0.02332800  0.49986500  0.65089700  1
  H  H7  1  0.40991900  0.71753200  0.40054200  1
  H  H8  1  0.41071500  0.28251300  0.58774900  1
  H  H9  1  0.40226700  0.84201200  0.40295000  1
  H  H10  1  0.40306800  0.15801800  0.58439000  1
  H  H11  1  0.60894200  0.84275800  0.59945800  1
  H  H12  1  0.60801000  0.15730700  0.41479300  1
  H  H13  1  0.60583500  0.71813100  0.60083100  1
  H  H14  1  0.60485500  0.28192400  0.41296100  1
  H  H15  1  0.50529200  0.06431800  0.61580700  1
  H  H16  1  0.50424200  0.93573500  0.38488900  1
  H  H17  1  0.62494400  0.57491300  0.70771900  1
  H  H18  1  0.39161700  0.42520600  0.29332800  1
  H  H19  1  0.62789600  0.57563300  0.84135000  1
  H  H20  1  0.38869800  0.42447200  0.15969900  1
  H  H21  1  0.39005000  0.42383700  0.82519800  1
  H  H22  1  0.62672300  0.57613600  0.17587100  1
  H  H23  1  0.39321900  0.42449300  0.69199800  1
  H  H24  1  0.62355100  0.57547800  0.30907000  1
  H  H25  1  0.49042900  0.39066600  0.93333900  1
  H  H26  1  0.52627200  0.60937000  0.06773300  1
  H  H27  1  0.48983700  0.39091700  0.06568800  1
  H  H28  1  0.52684000  0.60912500  0.93538300  1
  H  H29  1  0.33885300  0.93987700  0.59091200  1
  H  H30  1  0.37312600  0.98327800  0.67752100  1
  H  H31  1  0.40611600  0.87017600  0.73832700  1
  H  H32  1  0.27590200  0.87628700  0.69519400  1
  H  H33  1  0.37101600  0.82726800  0.65162200  1
  H  H34  1  0.33783900  0.06005300  0.38803800  1
  H  H35  1  0.37133000  0.01668300  0.30585200  1
  H  H36  1  0.40367300  0.12981300  0.24932600  1
  H  H37  1  0.27379600  0.12361100  0.27546500  1
  H  H38  1  0.36935300  0.17269000  0.33150000  1
  C  C1  1  0.50822600  0.36560800  0.50030500  1
  C  C2  1  0.50833800  0.63444100  0.50075700  1
  C  C3  1  0.30712000  0.50002800  0.48734200  1
  C  C4  1  0.70953000  0.50002200  0.51372300  1
  C  C5  1  0.82227000  0.50002700  0.52106300  1
  C  C6  1  0.19438000  0.50002900  0.48000200  1
  C  C7  1  0.03454400  0.50010900  0.40432400  1
  C  C8  1  0.98210600  0.49992900  0.59674100  1
  C  C9  1  0.14044700  0.50005800  0.41111600  1
  C  C10  1  0.87620200  0.49992100  0.58994900  1
  C  C11  1  0.14105900  0.49999800  0.54191100  1
  C  C12  1  0.87559100  0.50012900  0.45915400  1
  C  C13  1  0.03498300  0.50000700  0.53490300  1
  C  C14  1  0.98166700  0.50008800  0.46616100  1
  C  C15  1  0.45309700  0.74501800  0.44466200  1
  C  C16  1  0.45349100  0.25502700  0.54925000  1
  C  C17  1  0.44949900  0.81582500  0.44597300  1
  C  C18  1  0.44990200  0.18421500  0.54750100  1
  C  C19  1  0.50370500  0.85228800  0.50211000  1
  C  C20  1  0.50361500  0.14775900  0.49842900  1
  C  C21  1  0.56149100  0.81621700  0.55686100  1
  C  C22  1  0.56091400  0.18383900  0.45119100  1
  C  C23  1  0.56101900  0.74534700  0.55728600  1
  C  C24  1  0.56041300  0.25470700  0.45067200  1
  C  C25  1  0.50750600  0.70954600  0.50089700  1
  C  C26  1  0.50737800  0.29050400  0.50007200  1
  C  C27  1  0.49826600  0.96584300  0.56619100  1
  C  C28  1  0.49760900  0.03420100  0.43361300  1
  C  C29  1  0.50198500  0.03672100  0.56434000  1
  C  C30  1  0.50140200  0.96332700  0.43595500  1
  C  C31  1  0.50172900  0.07181400  0.49844200  1
  C  C32  1  0.50179500  0.92823200  0.50186100  1
  C  C33  1  0.57338700  0.54165400  0.73417900  1
  C  C34  1  0.44322400  0.45843100  0.26687700  1
  C  C35  1  0.57422400  0.54242000  0.80970600  1
  C  C36  1  0.44240200  0.45765800  0.19135000  1
  C  C37  1  0.50895800  0.49973900  0.84393400  1
  C  C38  1  0.50772400  0.50030100  0.15713000  1
  C  C39  1  0.44384100  0.45698500  0.80085600  1
  C  C40  1  0.57289000  0.54301900  0.20021200  1
  C  C41  1  0.44482500  0.45770200  0.72545600  1
  C  C42  1  0.57190000  0.54230200  0.27561200  1
  C  C43  1  0.49688700  0.43919700  0.96213500  1
  C  C44  1  0.51980800  0.56084100  0.03893400  1
  C  C45  1  0.49653900  0.43933900  0.03758500  1
  C  C46  1  0.52014700  0.56070100  0.96348300  1
  C  C47  1  0.50799500  0.50016200  0.07662300  1
  C  C48  1  0.50869400  0.49987700  0.92444400  1
  C  C49  1  0.38704200  0.93719000  0.64415400  1
  C  C50  1  0.35808900  0.87346700  0.68505900  1
  C  C51  1  0.38554300  0.06277800  0.34106200  1
  C  C52  1  0.35613100  0.12648500  0.29635000  1
  N  N1  1  0.50910900  0.49968600  0.69333500  1
  N  N2  1  0.50754700  0.50036500  0.30772900  1
  O  O1  1  0.50760700  0.39751300  0.56350600  1
  O  O2  1  0.50707100  0.60253800  0.43742900  1
  O  O3  1  0.50890000  0.39774100  0.43722600  1
  O  O4  1  0.50960400  0.60230800  0.56396000  1
  O  O5  1  0.35557900  0.50046900  0.55363400  1
  O  O6  1  0.66106900  0.50066200  0.44743800  1
  O  O7  1  0.35494400  0.49959200  0.42732400  1
  O  O8  1  0.66170200  0.49937500  0.57373300  1
  O  O9  1  0.49091700  0.93386700  0.63223200  1
  O  O10  1  0.48959600  0.06616900  0.36656700  1
