# generated using pymatgen
data_CuH17C19NO4
_symmetry_space_group_name_H-M   'P 1'
_cell_length_a   10.66831400
_cell_length_b   12.97561300
_cell_length_c   11.54132100
_cell_angle_alpha   99.70155600
_cell_angle_beta   94.30272400
_cell_angle_gamma   90.00208800
_symmetry_Int_Tables_number   1
_chemical_formula_structural   CuH17C19NO4
_chemical_formula_sum   'Cu2 H34 C38 N2 O8'
_cell_volume   1570.22384248
_cell_formula_units_Z   2
loop_
 _symmetry_equiv_pos_site_id
 _symmetry_equiv_pos_as_xyz
  1  'x, y, z'
loop_
 _atom_site_type_symbol
 _atom_site_label
 _atom_site_symmetry_multiplicity
 _atom_site_fract_x
 _atom_site_fract_y
 _atom_site_fract_z
 _atom_site_occupancy
  Cu  Cu1  1  0.51014500  0.49795300  0.60809800  1
  Cu  Cu2  1  0.48976900  0.48871400  0.37416700  1
  H  H1  1  0.93383800  0.33698000  0.56003500  1
  H  H2  1  0.06627900  0.65118300  0.42279200  1
  H  H3  1  0.09133900  0.49720100  0.69093700  1
  H  H4  1  0.90910400  0.49133800  0.29119400  1
  H  H5  1  0.92412300  0.64611800  0.61814300  1
  H  H6  1  0.07600300  0.34228900  0.36443200  1
  H  H7  1  0.42664900  0.80524600  0.36256000  1
  H  H8  1  0.58275500  0.18052700  0.61675800  1
  H  H9  1  0.37823900  0.94997900  0.27532200  1
  H  H10  1  0.63162600  0.03446700  0.70427300  1
  H  H11  1  0.35753000  0.42189200  0.78756100  1
  H  H12  1  0.64410600  0.56367800  0.19514500  1
  H  H13  1  0.70062800  0.58342700  0.80010600  1
  H  H14  1  0.30206200  0.39750200  0.17946200  1
  H  H15  1  0.27931300  0.38288800  0.96461900  1
  H  H16  1  0.72519400  0.59791100  0.01541800  1
  H  H17  1  0.74134400  0.88296300  0.75161300  1
  H  H18  1  0.66778900  0.75891000  0.72498200  1
  H  H19  1  0.55441900  0.96082300  0.85639300  1
  H  H20  1  0.47322600  0.73106300  0.83785200  1
  H  H21  1  0.39199300  0.82693500  0.76397700  1
  H  H22  1  0.40436900  0.84344900  0.92228100  1
  H  H23  1  0.68842900  0.77842500  0.94778300  1
  H  H24  1  0.60596400  0.88160200  0.03563500  1
  H  H25  1  0.74340700  0.91199500  0.96551800  1
  H  H26  1  0.42732500  0.19113600  0.20409200  1
  H  H27  1  0.29566500  0.22537100  0.29257600  1
  H  H28  1  0.31524000  0.01674700  0.12372400  1
  H  H29  1  0.09434000  0.13269000  0.24495700  1
  H  H30  1  0.16995100  0.02202000  0.29360900  1
  H  H31  1  0.08813100  0.00693900  0.14983400  1
  H  H32  1  0.18059700  0.21970700  0.09384200  1
  H  H33  1  0.16279800  0.09578500  0.99561300  1
  H  H34  1  0.31212600  0.16360000  0.01615700  1
  C  C1  1  0.48673700  0.29214500  0.46326200  1
  C  C2  1  0.51369200  0.69485300  0.51890000  1
  C  C3  1  0.25968500  0.50048300  0.49409200  1
  C  C4  1  0.74010600  0.48795700  0.48844400  1
  C  C5  1  0.04832700  0.49548600  0.60020700  1
  C  C6  1  0.95136000  0.49273200  0.38220100  1
  C  C7  1  0.96522600  0.40846900  0.52888200  1
  C  C8  1  0.03440000  0.57975000  0.45355700  1
  C  C9  1  0.87945300  0.49017000  0.48907800  1
  C  C10  1  0.12023000  0.49816200  0.49339200  1
  C  C11  1  0.96023700  0.57710500  0.56047000  1
  C  C12  1  0.03949700  0.41115200  0.42199300  1
  C  C13  1  0.52321200  0.81040400  0.53274500  1
  C  C14  1  0.48096900  0.17653500  0.44868500  1
  C  C15  1  0.42084900  0.00421100  0.34825300  1
  C  C16  1  0.58431900  0.98314800  0.63075200  1
  C  C17  1  0.41946400  0.11209900  0.35073800  1
  C  C18  1  0.58078300  0.87694400  0.63148100  1
  C  C19  1  0.53526300  0.13166700  0.54068500  1
  C  C20  1  0.47241600  0.85478900  0.43868200  1
  C  C21  1  0.53082200  0.02529600  0.53769500  1
  C  C22  1  0.47522400  0.96157300  0.44146000  1
  C  C23  1  0.35956400  0.42406900  0.01473100  1
  C  C24  1  0.64354900  0.55849700  0.96626100  1
  C  C25  1  0.37300500  0.43184800  0.13557900  1
  C  C26  1  0.62909700  0.55128700  0.84533300  1
  C  C27  1  0.56336300  0.52387500  0.14460600  1
  C  C28  1  0.43780100  0.46200200  0.83796900  1
  C  C29  1  0.55257400  0.51673900  0.02363600  1
  C  C30  1  0.44998100  0.46752300  0.95854700  1
  C  C31  1  0.64794100  0.84299700  0.73737200  1
  C  C32  1  0.57656400  0.87661600  0.84746400  1
  C  C33  1  0.45405200  0.81535300  0.84200800  1
  C  C34  1  0.65874600  0.86088200  0.95598600  1
  C  C35  1  0.35364000  0.16006900  0.25215600  1
  C  C36  1  0.26646700  0.08840800  0.16185200  1
  C  C37  1  0.14782800  0.06082800  0.21631500  1
  C  C38  1  0.22811500  0.14576900  0.06063400  1
  N  N1  1  0.52595900  0.50579500  0.78327600  1
  N  N2  1  0.47304900  0.48202200  0.19912500  1
  O  O1  1  0.50390500  0.34519400  0.57096400  1
  O  O2  1  0.50346900  0.64116300  0.41144900  1
  O  O3  1  0.48574100  0.33772600  0.37009300  1
  O  O4  1  0.51942500  0.64861500  0.61141900  1
  O  O5  1  0.32678300  0.49847700  0.59304600  1
  O  O6  1  0.67260000  0.48736800  0.38863400  1
  O  O7  1  0.30895600  0.49920200  0.39363700  1
  O  O8  1  0.69059600  0.48848200  0.58914000  1
