data_DB0-m3_o25_o540_f0_fsc.sym.15_repeat
_audit_creation_date              2024-02-20
_audit_creation_method            'Materials Studio'
_symmetry_space_group_name_H-M    'P1'
_symmetry_Int_Tables_number       1
_symmetry_cell_setting            triclinic
loop_
_symmetry_equiv_pos_as_xyz
  x,y,z
_cell_length_a                    14.3019
_cell_length_b                    8.5453
_cell_length_c                    23.2682
_cell_angle_alpha                 90.0000
_cell_angle_beta                  93.8588
_cell_angle_gamma                 90.0000
loop_
_atom_site_label
_atom_site_type_symbol
_atom_site_fract_x
_atom_site_fract_y
_atom_site_fract_z
_atom_site_U_iso_or_equiv
_atom_site_adp_type
_atom_site_occupancy
C1     C     0.93830   0.08155   0.78762   0.00000  Uiso   1.00
C2     C     0.05804   0.91022   0.21208   0.00000  Uiso   1.00
C3     C     0.93814   0.09643   0.20595   0.00000  Uiso   1.00
C4     C     0.06674   0.91198   0.79402   0.00000  Uiso   1.00
O1     O     0.87399   0.16250   0.75505   0.00000  Uiso   1.00
O2     O     0.11911   0.82214   0.24435   0.00000  Uiso   1.00
O3     O     0.87545   0.18427   0.23192   0.00000  Uiso   1.00
O4     O     0.13258   0.83161   0.76789   0.00000  Uiso   1.00
N1     N     0.00322   0.99688   0.76211   0.00000  Uiso   1.00
N2     N     0.99727   0.00317   0.23784   0.00000  Uiso   1.00
C5     C     0.01114   0.85934   0.67115   0.00000  Uiso   1.00
C6     C     0.99042   0.14042   0.32917   0.00000  Uiso   1.00
C7     C     0.98968   0.85987   0.32832   0.00000  Uiso   1.00
C8     C     0.00860   0.13989   0.67166   0.00000  Uiso   1.00
C9     C     0.02449   0.86109   0.61308   0.00000  Uiso   1.00
C10    C     0.97542   0.13888   0.38705   0.00000  Uiso   1.00
C11    C     0.97582   0.85971   0.38644   0.00000  Uiso   1.00
C12    C     0.02338   0.14035   0.61365   0.00000  Uiso   1.00
C13    C     0.00710   0.99894   0.70106   0.00000  Uiso   1.00
C14    C     0.99292   0.00090   0.29897   0.00000  Uiso   1.00
C15    C     0.00112   0.99727   0.88048   0.00000  Uiso   1.00
C16    C     0.99961   0.00255   0.11936   0.00000  Uiso   1.00
C17    C     0.93637   0.08236   0.84703   0.00000  Uiso   1.00
C18    C     0.05944   0.90819   0.15265   0.00000  Uiso   1.00
C19    C     0.93908   0.09792   0.14659   0.00000  Uiso   1.00
C20    C     0.06657   0.91141   0.85341   0.00000  Uiso   1.00
C21    C     0.86926   0.16663   0.87302   0.00000  Uiso   1.00
C22    C     0.11998   0.81090   0.12642   0.00000  Uiso   1.00
C23    C     0.87935   0.19458   0.11447   0.00000  Uiso   1.00
C24    C     0.13296   0.82765   0.88576   0.00000  Uiso   1.00
C25    C     0.03562   0.00128   0.58551   0.00000  Uiso   1.00
C26    C     0.96370   0.99882   0.41456   0.00000  Uiso   1.00
H1     H     0.00242   0.24970   0.69413   0.00000  Uiso   1.00
H2     H     0.99397   0.74960   0.30594   0.00000  Uiso   1.00
H3     H     0.00057   0.25080   0.30777   0.00000  Uiso   1.00
H4     H     0.00309   0.74900   0.69301   0.00000  Uiso   1.00
H5     H     0.81632   0.23163   0.84776   0.00000  Uiso   1.00
H6     H     0.16651   0.73347   0.15144   0.00000  Uiso   1.00
H7     H     0.83241   0.27300   0.13485   0.00000  Uiso   1.00
H8     H     0.18633   0.76183   0.86559   0.00000  Uiso   1.00
C27    C     0.93734   0.09486   0.02688   0.00000  Uiso   1.00
C28    C     0.06588   0.90958   0.97304   0.00000  Uiso   1.00
C29    C     0.93511   0.08849   0.96670   0.00000  Uiso   1.00
C30    C     0.06313   0.90627   0.03305   0.00000  Uiso   1.00
C31    C     0.00007   0.00128   0.05957   0.00000  Uiso   1.00
C32    C     0.00066   0.99836   0.94026   0.00000  Uiso   1.00
C33    C     0.87870   0.19413   0.05548   0.00000  Uiso   1.00
C34    C     0.13312   0.82702   0.94473   0.00000  Uiso   1.00
C35    C     0.86810   0.16926   0.93197   0.00000  Uiso   1.00
C36    C     0.12163   0.80897   0.06749   0.00000  Uiso   1.00
H9     H     0.83215   0.27723   0.03408   0.00000  Uiso   1.00
H10    H     0.18938   0.76267   0.96645   0.00000  Uiso   1.00
H11    H     0.81137   0.23389   0.94838   0.00000  Uiso   1.00
H12    H     0.16875   0.72542   0.05078   0.00000  Uiso   1.00
H13    H     0.04653   0.00219   0.54016   0.00000  Uiso   1.00
H14    H     0.95255   0.99799   0.45988   0.00000  Uiso   1.00
O5     O     0.09198   0.66981   0.55430   0.00000  Uiso   1.00
O6     O     0.90760   0.33015   0.44583   0.00000  Uiso   1.00
O7     O     0.90788   0.66865   0.44514   0.00000  Uiso   1.00
O8     O     0.09164   0.33133   0.55495   0.00000  Uiso   1.00
O9     O     0.93262   0.66418   0.56462   0.00000  Uiso   1.00
O10    O     0.06695   0.33596   0.43547   0.00000  Uiso   1.00
O11    O     0.06720   0.66197   0.43484   0.00000  Uiso   1.00
O12    O     0.93232   0.33819   0.56530   0.00000  Uiso   1.00
C37    C     0.01690   0.71942   0.57810   0.00000  Uiso   1.00
C38    C     0.98275   0.28057   0.42203   0.00000  Uiso   1.00
C39    C     0.98299   0.71723   0.42108   0.00000  Uiso   1.00
C40    C     0.01645   0.28284   0.57902   0.00000  Uiso   1.00
Zn1    Zn    0.89638   0.50035   0.50493   0.00000  Uiso   1.00
Zn2    Zn    0.10317   0.49970   0.49518   0.00000  Uiso   1.00
C41    C     0.46954   0.36690   0.52267   0.00000  Uiso   1.00
C42    C     0.53001   0.63318   0.47745   0.00000  Uiso   1.00
C43    C     0.53038   0.37733   0.47100   0.00000  Uiso   1.00
C44    C     0.46917   0.62275   0.52912   0.00000  Uiso   1.00
H15    H     0.55602   0.27902   0.44522   0.00000  Uiso   1.00
H16    H     0.44352   0.72106   0.55490   0.00000  Uiso   1.00
H17    H     0.44421   0.25926   0.54325   0.00000  Uiso   1.00
H18    H     0.55534   0.74081   0.45687   0.00000  Uiso   1.00
N3     N     0.77427   0.50080   0.50957   0.00000  Uiso   1.00
N4     N     0.22528   0.49926   0.49053   0.00000  Uiso   1.00
C45    C     0.53053   0.49057   0.55249   0.00000  Uiso   1.00
C46    C     0.46901   0.50951   0.44763   0.00000  Uiso   1.00
C47    C     0.59065   0.50067   0.50256   0.00000  Uiso   1.00
C48    C     0.40890   0.49941   0.49756   0.00000  Uiso   1.00
C49    C     0.69319   0.50078   0.50721   0.00000  Uiso   1.00
C50    C     0.30635   0.49929   0.49290   0.00000  Uiso   1.00
N5     N     0.43149   0.52018   0.38826   0.00000  Uiso   1.00
H19    H     0.48820   0.52148   0.36226   0.00000  Uiso   1.00
H20    H     0.39317   0.41823   0.37896   0.00000  Uiso   1.00
N6     N     0.56806   0.47990   0.61186   0.00000  Uiso   1.00
H21    H     0.51135   0.47860   0.63786   0.00000  Uiso   1.00
H22    H     0.60638   0.58185   0.62116   0.00000  Uiso   1.00
