# generated using pymatgen
data_ZnH13C17NO4
_symmetry_space_group_name_H-M   'P 1'
_cell_length_a   14.25347400
_cell_length_b   8.56029100
_cell_length_c   10.68085700
_cell_angle_alpha   90.00000000
_cell_angle_beta   97.75429300
_cell_angle_gamma   90.00000000
_symmetry_Int_Tables_number   1
_chemical_formula_structural   ZnH13C17NO4
_chemical_formula_sum   'Zn2 H26 C34 N2 O8'
_cell_volume   1291.29600860
_cell_formula_units_Z   2
loop_
 _symmetry_equiv_pos_site_id
 _symmetry_equiv_pos_as_xyz
  1  'x, y, z'
loop_
 _atom_site_type_symbol
 _atom_site_label
 _atom_site_symmetry_multiplicity
 _atom_site_fract_x
 _atom_site_fract_y
 _atom_site_fract_z
 _atom_site_occupancy
  Zn  Zn1  1  0.10426800  0.50157400  0.49578300  1
  Zn  Zn2  1  0.89579700  0.49314400  0.50419600  1
  H  H1  1  0.04648900  0.38244500  0.90434900  1
  H  H2  1  0.02278800  0.38077000  0.12441700  1
  H  H3  1  0.97729400  0.61397500  0.87556100  1
  H  H4  1  0.95359600  0.61229900  0.09564400  1
  H  H5  1  0.05065000  0.00094700  0.59117800  1
  H  H6  1  0.94942900  0.99383000  0.40880600  1
  H  H7  1  0.58407900  0.70991600  0.60067400  1
  H  H8  1  0.42274800  0.71596000  0.39912400  1
  H  H9  1  0.43128400  0.69577800  0.62594100  1
  H  H10  1  0.57484400  0.68798100  0.37376400  1
  H  H11  1  0.39585800  0.54807100  0.29916800  1
  H  H12  1  0.60558000  0.54101300  0.70085500  1
  H  H13  1  0.41501100  0.25690500  0.56038700  1
  H  H14  1  0.57759300  0.24909300  0.44004500  1
  H  H15  1  0.41731700  0.28486600  0.39468600  1
  H  H16  1  0.57618800  0.27909300  0.60575000  1
  H  H17  1  0.69937000  0.56790900  0.26946500  1
  H  H18  1  0.68904000  0.35699200  0.29295300  1
  H  H19  1  0.66199000  0.44000000  0.13865600  1
  H  H20  1  0.52016900  0.36588900  0.25506700  1
  H  H21  1  0.52104600  0.55076900  0.17738800  1
  H  H22  1  0.30296500  0.58764000  0.72994500  1
  H  H23  1  0.30690400  0.37569600  0.70760400  1
  H  H24  1  0.33637000  0.45889800  0.86144900  1
  H  H25  1  0.47573200  0.37069200  0.74521900  1
  H  H26  1  0.48059400  0.55628400  0.82257200  1
  C  C1  1  0.04064000  0.00006900  0.68942900  1
  C  C2  1  0.95943900  0.99469400  0.31055500  1
  C  C3  1  0.03518000  0.13947700  0.75197400  1
  C  C4  1  0.97592400  0.13420200  0.25336500  1
  C  C5  1  0.02312500  0.13785000  0.87837600  1
  C  C6  1  0.99489300  0.13514200  0.12971300  1
  C  C7  1  0.02837900  0.27449500  0.94685300  1
  C  C8  1  0.01566100  0.27295700  0.07228400  1
  C  C9  1  0.02414600  0.86055100  0.74660300  1
  C  C10  1  0.96490000  0.85527700  0.24802300  1
  C  C11  1  0.00518700  0.85960000  0.87026500  1
  C  C12  1  0.97695900  0.85689200  0.12161700  1
  C  C13  1  0.00776600  0.99793200  0.93737800  1
  C  C14  1  0.99232000  0.99680700  0.06260900  1
  C  C15  1  0.98442100  0.72178500  0.92769900  1
  C  C16  1  0.97170600  0.72024600  0.05313600  1
  C  C17  1  0.02464600  0.28227700  0.67524800  1
  C  C18  1  0.98337400  0.27482800  0.33156400  1
  C  C19  1  0.97542700  0.71249300  0.32477300  1
  C  C20  1  0.01668700  0.71994100  0.66837500  1
  C  C21  1  0.45911600  0.57536900  0.62023700  1
  C  C22  1  0.54324100  0.57026500  0.37969500  1
  C  C23  1  0.43833900  0.59032300  0.38727800  1
  C  C24  1  0.56451300  0.58596300  0.61265600  1
  C  C25  1  0.41120400  0.49921400  0.49892100  1
  C  C26  1  0.58882500  0.49138300  0.50113400  1
  C  C27  1  0.55114600  0.32661500  0.51060300  1
  C  C28  1  0.44384100  0.33125700  0.48973700  1
  C  C29  1  0.69196100  0.48841800  0.50716500  1
  C  C30  1  0.30810300  0.50414600  0.49285000  1
  C  C31  1  0.55537500  0.48129700  0.25858800  1
  C  C32  1  0.65842600  0.46074500  0.24039700  1
  C  C33  1  0.44416400  0.48896200  0.74146900  1
  C  C34  1  0.34059900  0.47759900  0.75962100  1
  N  N1  1  0.77345200  0.48731100  0.51056400  1
  N  N2  1  0.22662400  0.50669600  0.48942100  1
  O  O1  1  0.93800500  0.32890200  0.63481600  1
  O  O2  1  0.06833000  0.32946100  0.36992400  1
  O  O3  1  0.09943000  0.33968000  0.63192100  1
  O  O4  1  0.90667500  0.32752400  0.37280200  1
  O  O5  1  0.06206600  0.66582000  0.36516500  1
  O  O6  1  0.93173100  0.66526100  0.63005600  1
  O  O7  1  0.90063600  0.65504800  0.36806400  1
  O  O8  1  0.09339300  0.66720100  0.62717300  1
