# Generated by REPEAT Assigner based on pymatgen
data_DB0-m9_o18_o29_f0_sra.sym.27_sqe
_audit_creation_date              2022-05-24
_audit_creation_method            REPEAT_Assigner
_cell_length_a                    6.335742
_cell_length_b                    11.530247
_cell_length_c                    34.744240
_cell_angle_alpha                 90.000000
_cell_angle_beta                  91.732384
_cell_angle_gamma                 90.000000
_cell_volume                      2536.999496
_symmetry_space_group_name_H-M    P1
_symmetry_Int_Tables_number       1
loop_
    _symmetry_equiv_pos_site_id
    _symmetry_equiv_pos_as_xyz
    1  x,y,z
loop_
    _atom_site_type_symbol
    _atom_site_label
    _atom_site_fract_x
    _atom_site_fract_y
    _atom_site_fract_z
    _atom_type_partial_charge
    O  O1    0.436366  0.207651  0.652774  -0.604615
    O  O2    0.529449  0.803524  0.348246  -0.620864
    O  O3    0.028400  0.702447  0.348362  -0.627363
    O  O4    0.936547  0.309025  0.653504  -0.605151
    O  O5    0.823871  0.192351  0.758248  -0.449267
    O  O6    0.142222  0.810133  0.242558  -0.492826
    O  O7    0.639602  0.692068  0.242749  -0.556707
    O  O8    0.324767  0.310346  0.759215  -0.507277
    O  O9    0.029348  0.378794  0.729634  -0.398102
    O  O10   0.936509  0.625853  0.272955  -0.372826
    O  O11   0.435673  0.876727  0.272710  -0.434110
    O  O12   0.528863  0.127990  0.727695  -0.446338
    C  C1    0.645043  0.137159  0.759153  0.733812
    C  C2    0.324544  0.862182  0.240985  0.731700
    C  C3    0.814708  0.633769  0.242038  0.616823
    C  C4    0.147384  0.366693  0.760895  0.635806
    O  O13   0.722207  0.116928  0.682662  -0.384380
    O  O14   0.242465  0.891699  0.317593  -0.398182
    O  O15   0.743325  0.612680  0.318041  -0.485855
    O  O16   0.222442  0.395851  0.684625  -0.451814
    C  C5    0.610871  0.144601  0.651163  0.726537
    C  C6    0.354289  0.866284  0.349315  0.722930
    C  C7    0.854232  0.639361  0.349721  0.759797
    C  C8    0.111850  0.371345  0.652673  0.749764
    O  O17   0.629816  0.342120  0.705483  -0.558883
    O  O18   0.335591  0.664767  0.296880  -0.570348
    O  O19   0.835476  0.839034  0.296203  -0.563619
    O  O20   0.129602  0.167886  0.704263  -0.556460
    V  V1    0.903965  0.238876  0.705883  1.200157
    V  V2    0.061266  0.767940  0.295324  1.248252
    V  V3    0.561381  0.735703  0.295510  1.332722
    V  V4    0.403942  0.271013  0.706115  1.279124
    C  C9    0.163239  0.659954  0.918799  -0.076355
    C  C10   0.954035  0.354009  0.084819  0.433422
    C  C11   0.412007  0.140674  0.080780  0.158098
    C  C12   0.574579  0.843651  0.916573  0.089238
    O  O21   0.201664  0.547801  0.926607  -0.263905
    O  O22   0.956996  0.468649  0.078130  -0.556761
    O  O23   0.382278  0.027712  0.073017  -0.388245
    O  O24   0.615775  0.955015  0.925171  -0.506737
    N  N1    0.138313  0.696458  0.882047  0.511866
    N  N2    0.920854  0.313546  0.120570  -0.376098
    N  N3    0.430502  0.177558  0.117581  0.099994
    N  N4    0.561451  0.808681  0.879541  0.093237
    C  C13   0.113622  0.810449  0.874586  -0.238908
    C  C14   0.924473  0.198389  0.127416  0.540491
    C  C15   0.454117  0.291746  0.125073  -0.033209
    C  C16   0.529728  0.695458  0.871253  0.039584
    C  C17   0.186637  0.647316  0.814251  0.016834
    C  C18   0.945864  0.363606  0.188884  -0.171997
    C  C19   0.345010  0.135337  0.184053  -0.227747
    C  C20   0.652871  0.857480  0.813563  -0.223406
    C  C21   0.184180  0.567061  0.784707  -0.172287
    C  C22   0.927272  0.442957  0.218310  -0.278148
    C  C23   0.315863  0.058412  0.213781  -0.007448
    C  C24   0.670118  0.937142  0.784100  -0.017738
    C  C25   0.077326  0.420690  0.828340  0.204779
    C  C26   0.763305  0.575840  0.174351  0.441018
    C  C27   0.439180  0.904471  0.174682  -0.033967
    C  C28   0.548188  0.086414  0.825275  0.080648
    C  C29   0.073586  0.501205  0.857560  -0.136600
    C  C30   0.793481  0.499447  0.144436  -0.463750
    C  C31   0.466160  0.981461  0.144649  -0.130153
    C  C32   0.525943  0.006467  0.854504  -0.340346
    C  C33   0.132967  0.614548  0.851063  -0.131820
    C  C34   0.885002  0.392476  0.151511  0.425908
    C  C35   0.416015  0.097479  0.148974  0.391617
    C  C36   0.579924  0.891409  0.849003  0.490206
    C  C37   0.126588  0.853699  0.941695  0.169125
    C  C38   0.999545  0.161078  0.061522  0.331680
    C  C39   0.436382  0.335674  0.057964  0.093347
    C  C40   0.519418  0.649599  0.938256  0.104757
    C  C41   0.147820  0.737222  0.948811  -0.050051
    C  C42   0.989153  0.278346  0.054922  -0.166681
    C  C43   0.422404  0.218755  0.050742  -0.179026
    C  C44   0.548679  0.765398  0.946051  0.030196
    C  C45   0.154028  0.697323  0.985978  -0.213344
    C  C46   0.016482  0.320667  0.018454  0.007312
    C  C47   0.414555  0.179587  0.013404  0.002949
    C  C48   0.555354  0.803667  0.983458  -0.035920
    C  C49   0.123464  0.891071  0.904211  0.321471
    C  C50   0.971627  0.120781  0.098385  -0.278346
    C  C51   0.439725  0.372936  0.095641  0.313463
    C  C52   0.517251  0.613598  0.900449  -0.027948
    C  C53   0.132368  0.453027  0.791701  -0.025736
    C  C54   0.836475  0.549424  0.211040  -0.017382
    C  C55   0.357993  0.942361  0.209001  -0.329820
    C  C56   0.619289  0.051954  0.789946  -0.340625
    H  H1    0.034337  0.332722  0.834792  0.035693
    H  H2    0.695292  0.660197  0.168656  -0.044308
    H  H3    0.484778  0.814732  0.171243  0.158714
    H  H4    0.506605  0.176132  0.829948  0.079262
    H  H5    0.019616  0.474016  0.885268  0.073301
    H  H6    0.742452  0.523948  0.115703  0.172539
    H  H7    0.531210  0.950154  0.118249  0.073071
    H  H8    0.461212  0.034958  0.881261  0.160368
    H  H9    0.175250  0.605821  0.991657  0.207169
    H  H10   0.009949  0.413081  0.013315  0.055614
    H  H11   0.400721  0.087720  0.007654  0.116796
    H  H12   0.581958  0.894508  0.989579  0.075101
    C  C57   0.052184  0.967417  0.038614  -0.012729
    C  C58   0.086000  0.049099  0.964198  -0.020633
    C  C59   0.466961  0.454237  0.959967  -0.164107
    C  C60   0.465399  0.531452  0.035657  0.084019
    C  C61   0.058658  0.126892  0.994413  0.235626
    C  C62   0.094136  0.890577  0.008994  0.192410
    C  C63   0.493825  0.609961  0.005812  0.045861
    C  C64   0.447625  0.374932  0.990063  0.332530
    C  C65   0.037314  0.085072  0.031465  -0.149678
    C  C66   0.103884  0.931457  0.971705  -0.018584
    C  C67   0.493470  0.571044  0.968059  -0.007533
    C  C68   0.448956  0.414175  0.027806  -0.094488
    C  C69   0.022401  0.927934  0.075505  -0.095597
    C  C70   0.096261  0.086551  0.926384  0.003822
    C  C71   0.466774  0.418582  0.921794  -0.023273
    C  C72   0.447906  0.568679  0.073364  -0.069153
    C  C73   0.985577  0.002902  0.105154  -0.029933
    C  C74   0.117866  0.008395  0.896800  -0.364801
    C  C75   0.495249  0.496642  0.892349  -0.037689
    C  C76   0.430991  0.490776  0.103133  -0.166373
    O  O25   0.871487  0.158972  0.162098  -0.490672
    O  O26   0.062493  0.844683  0.838644  -0.306934
    O  O27   0.497908  0.663145  0.834509  -0.219323
    O  O28   0.508818  0.325703  0.160875  -0.392206
    C  C77   0.125521  0.772968  0.015946  -0.173261
    C  C78   0.049174  0.245885  0.988297  -0.389346
    C  C79   0.427642  0.256565  0.983247  -0.277519
    C  C80   0.527826  0.726952  0.013189  -0.188045
    H  H13   0.980399  0.420703  0.247235  0.141536
    H  H14   0.230184  0.592978  0.756259  0.096387
    H  H15   0.728631  0.909864  0.756632  0.094934
    H  H16   0.256407  0.089129  0.240778  0.115247
    H  H17   0.014832  0.280469  0.195411  0.220433
    H  H18   0.237390  0.734559  0.808188  0.106614
    H  H19   0.703034  0.769360  0.808785  0.114161
    H  H20   0.304691  0.224796  0.188328  0.135854
    H  H21   0.027313  0.837564  0.082817  0.081806
    H  H22   0.086596  0.176559  0.918577  0.062226
    H  H23   0.450866  0.329143  0.913629  0.059559
    H  H24   0.439258  0.659004  0.080730  0.098058
    H  H25   0.131539  0.736296  0.044355  0.173421
    H  H26   0.068362  0.284181  0.960439  0.224556
    H  H27   0.423059  0.220235  0.954780  0.166798
    H  H28   0.539372  0.761573  0.041882  0.136094
    C  C81   0.820971  0.568429  0.383811  -0.146409
    C  C82   0.146395  0.443424  0.618895  -0.162085
    C  C83   0.643888  0.073297  0.617218  -0.155460
    C  C84   0.320721  0.938955  0.382924  -0.152981
    C  C85   0.629065  0.418519  0.414138  -0.205317
    C  C86   0.338647  0.593522  0.588730  -0.209428
    C  C87   0.836890  0.922503  0.587609  -0.193764
    C  C88   0.128091  0.090263  0.412344  -0.194658
    C  C89   0.667503  0.484139  0.382134  -0.099198
    C  C90   0.300217  0.527529  0.620687  -0.091480
    C  C91   0.797730  0.989263  0.619282  -0.116015
    C  C92   0.166864  0.022986  0.380738  -0.109082
    C  C93   0.936227  0.587473  0.417596  -0.022276
    C  C94   0.031107  0.424974  0.585107  0.004136
    C  C95   0.528806  0.091082  0.583387  0.006766
    C  C96   0.435994  0.921784  0.416743  0.005819
    C  C97   0.896783  0.522231  0.450364  -0.077977
    C  C98   0.070626  0.490388  0.552407  -0.095792
    C  C99   0.569027  0.024632  0.550932  -0.090379
    C  C100  0.396127  0.988584  0.449109  -0.091534
    C  C101  0.742198  0.437695  0.448004  0.296289
    C  C102  0.225366  0.574780  0.554822  0.306078
    C  C103  0.723951  0.940320  0.553675  0.300664
    C  C104  0.241231  0.072858  0.446309  0.299716
    C  C105  0.006838  0.539982  0.485369  0.038159
    C  C106  0.960509  0.472753  0.517415  0.052820
    C  C107  0.459288  0.040942  0.515865  0.047972
    C  C108  0.506064  0.972442  0.484154  0.048174
    C  C109  0.804986  0.388534  0.513962  -0.080548
    C  C110  0.162362  0.624192  0.488848  -0.068892
    C  C111  0.661823  0.888482  0.487980  -0.087918
    C  C112  0.303687  0.124981  0.512010  -0.084963
    C  C113  0.697591  0.371546  0.479541  -0.314467
    C  C114  0.269898  0.641070  0.523291  -0.321140
    C  C115  0.769100  0.872975  0.522465  -0.312030
    C  C116  0.196350  0.140433  0.477500  -0.319199
    H  H29   0.576301  0.305748  0.477297  0.144471
    H  H30   0.391272  0.706817  0.525546  0.143642
    H  H31   0.890640  0.807394  0.525030  0.139530
    H  H32   0.074893  0.206051  0.474922  0.143946
    H  H33   0.914302  0.357504  0.585392  0.065903
    H  H34   0.052986  0.654998  0.417294  0.077500
    H  H35   0.552842  0.854322  0.416736  0.069543
    H  H36   0.411658  0.158418  0.583443  0.063613
    H  H37   0.391091  0.541436  0.647118  0.109600
    H  H38   0.576847  0.469800  0.355706  0.111526
    H  H39   0.076189  0.035801  0.354224  0.110348
    H  H40   0.888078  0.976013  0.645810  0.113309
    H  H41   0.508352  0.352256  0.412846  0.119023
    H  H42   0.459588  0.659653  0.590085  0.120213
    H  H43   0.957862  0.856423  0.589223  0.119174
    H  H44   0.007091  0.156322  0.410668  0.118152
    H  H45   0.762051  0.334066  0.537535  0.110261
    H  H46   0.205069  0.678645  0.465249  0.107375
    H  H47   0.705143  0.833115  0.464671  0.116233
    H  H48   0.260762  0.180437  0.535335  0.115620
    C  C117  0.977773  0.949592  0.143071  0.624047
    O  O29   0.016591  0.004645  0.172348  -0.308673
    O  O30   0.965340  0.833380  0.144483  -0.523522
    C  C118  0.021837  0.775609  0.177433  0.500920
    H  H49   0.019140  0.681556  0.171619  -0.019772
    H  H50   0.911715  0.798045  0.200496  -0.098905
    H  H51   0.185302  0.800132  0.185657  -0.020441
    C  C119  0.132910  0.052701  0.857711  0.828573
    O  O31   0.219126  0.996605  0.832980  -0.357591
    O  O32   0.049573  0.156362  0.848825  -0.451683
    C  C120  0.965228  0.171495  0.812610  -0.027581
    H  H52   0.814259  0.219491  0.815146  0.152034
    H  H53   0.934939  0.084445  0.799982  0.077650
    H  H54   0.078879  0.217777  0.794321  0.007640
    C  C121  0.511609  0.450325  0.853239  0.358650
    O  O33   0.434173  0.356105  0.845460  -0.362047
    O  O34   0.629257  0.504619  0.827139  -0.168670
    C  C122  0.644177  0.460334  0.790736  0.080992
    H  H55   0.748370  0.516601  0.773718  0.005325
    H  H56   0.484912  0.457171  0.776641  0.062825
    H  H57   0.711264  0.371667  0.792328  -0.103061
    C  C123  0.392378  0.538263  0.141524  0.578348
    O  O35   0.397758  0.642975  0.146233  -0.521696
    O  O36   0.335421  0.469439  0.170687  -0.146186
    C  C124  0.317480  0.513497  0.207073  0.182110
    H  H58   0.275934  0.442619  0.227034  0.049886
    H  H59   0.192743  0.580685  0.207131  -0.149207
    H  H60   0.470222  0.552349  0.216720  -0.069112
