# Generated by REPEAT Assigner based on pymatgen
data_DB0-m3_o23_o25_f0_nbo.sym.64
_audit_creation_date              2022-05-24
_audit_creation_method            REPEAT_Assigner
_cell_length_a                    27.606390
_cell_length_b                    27.601212
_cell_length_c                    27.651792
_cell_angle_alpha                 109.371593
_cell_angle_beta                  109.512827
_cell_angle_gamma                 109.416877
_cell_volume                      16241.997829
_symmetry_space_group_name_H-M    P1
_symmetry_Int_Tables_number       1
loop_
    _symmetry_equiv_pos_site_id
    _symmetry_equiv_pos_as_xyz
    1  x,y,z
loop_
    _atom_site_type_symbol
    _atom_site_label
    _atom_site_fract_x
    _atom_site_fract_y
    _atom_site_fract_z
    _atom_type_partial_charge
    O   O1   0.936092  0.972225  0.532189  -0.690312
    O   O2   0.938503  0.900130  0.461985  -0.675367
    C   C1   0.917707  0.916646  0.496877  0.731655
    O   O3   0.938358  0.038176  0.473156  -0.667900
    O   O4   0.937402  0.964388  0.401237  -0.683497
    C   C2   0.918540  0.001296  0.417740  0.685942
    Zn  Zn1  0.999582  0.047108  0.546102  1.309679
    Zn  Zn2  0.000545  0.952913  0.451357  1.311479
    O   O5   0.061630  0.099883  0.535482  -0.676990
    O   O6   0.064052  0.027797  0.465280  -0.692953
    O   O7   0.062725  0.035635  0.596223  -0.687381
    O   O8   0.061768  0.961844  0.524304  -0.673730
    C   C3   0.082414  0.083379  0.500581  0.740322
    C   C4   0.081588  0.998725  0.579721  0.713120
    C   C5   0.702256  0.985974  0.254695  -0.217447
    C   C6   0.729900  0.947128  0.243245  -0.210259
    H   H1   0.714737  0.902994  0.239956  0.078874
    H   H2   0.661583  0.974002  0.258287  0.078185
    H   H3   0.723877  0.928800  0.151504  0.080327
    C   C7   0.873686  0.001184  0.372719  0.117839
    C   C8   0.625638  0.999473  0.124924  0.114348
    C   C9   0.763226  0.039565  0.301280  -0.195523
    C   C10  0.790026  0.000713  0.288986  0.934174
    C   C11  0.769651  0.053692  0.254328  -0.211333
    C   C12  0.709526  0.000105  0.208588  0.937489
    C   C13  0.797300  0.014845  0.242882  -0.216655
    C   C14  0.736325  0.961252  0.196293  -0.213150
    C   C15  0.835918  0.001009  0.334881  -0.649830
    C   C16  0.663553  0.999751  0.162718  -0.648304
    H   H4   0.837974  0.026816  0.239290  0.080838
    H   H5   0.784814  0.097826  0.257618  0.076926
    H   H6   0.775673  0.072016  0.346069  0.070392
    C   C17  0.796852  0.810159  0.558139  -0.116133
    C   C18  0.793721  0.732555  0.477827  -0.152704
    C   C19  0.749193  0.686969  0.482399  -0.150099
    H   H7   0.765281  0.753668  0.591593  0.042475
    H   H8   0.839768  0.817256  0.588997  0.020817
    H   H9   0.784549  0.714462  0.431496  0.028161
    H   H10  0.839085  0.743184  0.507027  0.040283
    H   H11  0.772935  0.679528  0.517916  0.026480
    H   H12  0.721909  0.644647  0.439781  0.038445
    C   C20  0.626640  0.626058  0.497585  0.035140
    C   C21  0.788758  0.788077  0.496459  0.739130
    C   C22  0.746724  0.764612  0.557131  -0.180897
    C   C23  0.709734  0.709289  0.496738  0.767249
    C   C24  0.680800  0.723677  0.450499  -0.158162
    C   C25  0.728163  0.774117  0.453564  -0.164203
    C   C26  0.664031  0.663634  0.497035  -0.548424
    C   C27  0.834634  0.833797  0.496399  -0.539351
    C   C28  0.872525  0.871560  0.496533  0.026696
    H   H13  0.723217  0.813824  0.468928  0.033255
    H   H14  0.723243  0.761143  0.408980  0.044385
    H   H15  0.649293  0.736833  0.458813  0.040508
    H   H16  0.796656  0.852623  0.573388  0.029337
    H   H17  0.718594  0.782899  0.566310  0.035802
    H   H18  0.656385  0.684114  0.405900  0.029025
    C   C29  0.249502  0.061157  0.761759  -0.166681
    C   C30  0.246871  0.980583  0.684853  -0.161481
    C   C31  0.297142  0.985314  0.733913  -0.141697
    H   H19  0.339510  0.094788  0.826585  0.035386
    H   H20  0.273042  0.091946  0.749520  0.032213
    H   H21  0.218693  0.934149  0.647878  0.027106
    H   H22  0.265231  0.009733  0.668553  0.042661
    H   H23  0.339980  0.020853  0.745542  0.023922
    H   H24  0.296964  0.942653  0.718783  0.038676
    C   C32  0.373020  0.000435  0.871309  0.046274
    C   C33  0.210066  0.999295  0.708486  0.764132
    C   C34  0.294209  0.060326  0.810871  -0.139039
    C   C35  0.289211  0.999846  0.787619  0.750860
    C   C36  0.228803  0.953569  0.770606  -0.165677
    C   C37  0.181300  0.956472  0.726315  -0.148982
    C   C38  0.335131  0.000170  0.833505  -0.554474
    C   C39  0.164191  0.999002  0.662587  -0.555906
    C   C40  0.126433  0.998831  0.624744  0.046216
    H   H25  0.156973  0.971914  0.746569  0.027105
    H   H26  0.149762  0.911784  0.686812  0.039598
    H   H27  0.224107  0.962050  0.810441  0.043725
    H   H28  0.222256  0.076414  0.777142  0.041189
    H   H29  0.285230  0.069631  0.848188  0.026776
    H   H30  0.223907  0.908926  0.750620  0.032156
    C   C41  0.207792  0.268406  0.522645  -0.202232
    C   C42  0.207942  0.192664  0.444120  -0.147718
    C   C43  0.261043  0.238337  0.449119  -0.149274
    H   H31  0.228087  0.317673  0.479302  0.007326
    H   H32  0.162326  0.257353  0.493200  0.047919
    H   H33  0.206647  0.149475  0.428040  0.034861
    H   H34  0.166727  0.187757  0.412585  0.021206
    H   H35  0.245796  0.248841  0.413413  0.046473
    H   H36  0.290401  0.220189  0.443832  0.021942
    C   C44  0.375629  0.374887  0.502947  0.092243
    C   C45  0.213399  0.213251  0.504420  0.746270
    C   C46  0.252033  0.314040  0.517891  -0.065380
    C   C47  0.295110  0.294342  0.509010  0.728796
    C   C48  0.323154  0.280349  0.557290  -0.054881
    C   C49  0.273131  0.226810  0.548679  -0.197942
    C   C50  0.339320  0.338548  0.505749  -0.610496
    C   C51  0.166436  0.166699  0.502508  -0.509008
    C   C52  0.127973  0.128559  0.501406  0.008215
    H   H37  0.272643  0.234812  0.590415  0.030637
    H   H38  0.279012  0.187818  0.532555  0.028428
    H   H39  0.216603  0.286490  0.568843  0.026080
    H   H40  0.275478  0.357746  0.558244  0.007969
    H   H41  0.354571  0.267072  0.548934  -0.005112
    O   O9   0.464740  0.026547  0.061228  -0.690731
    O   O10  0.535053  0.099506  0.059635  -0.675709
    C   C53  0.499766  0.082365  0.079909  0.732678
    O   O11  0.525018  0.961738  0.059675  -0.669234
    O   O12  0.597025  0.036415  0.061461  -0.682330
    C   C54  0.580520  0.999175  0.079981  0.689666
    Zn  Zn3  0.451890  0.952260  0.998072  1.310728
    Zn  Zn4  0.546790  0.047628  0.998188  1.310388
    O   O13  0.463634  0.900385  0.936631  -0.675248
    O   O14  0.533949  0.973342  0.935040  -0.691236
    O   O15  0.401632  0.963505  0.934790  -0.687655
    O   O16  0.473633  0.038174  0.936573  -0.673052
    C   C55  0.498939  0.917524  0.916374  0.730450
    C   C56  0.418132  0.000731  0.916255  0.712955
    O   O17  0.538341  0.564146  0.597171  -0.692018
    O   O18  0.462836  0.561622  0.525335  -0.676967
    C   C57  0.500817  0.582516  0.580797  0.737877
    O   O19  0.600285  0.561590  0.534214  -0.671165
    O   O20  0.526473  0.562471  0.464032  -0.691997
    C   C58  0.582470  0.581354  0.498624  0.722501
    Zn  Zn5  0.549223  0.500555  0.547044  1.306623
    Zn  Zn6  0.452727  0.499466  0.452328  1.313736
    O   O21  0.539110  0.438393  0.474032  -0.677532
    O   O22  0.463620  0.435885  0.402211  -0.686848
    O   O23  0.475482  0.437599  0.535370  -0.677343
    O   O24  0.401645  0.438453  0.465182  -0.676864
    C   C59  0.501118  0.417496  0.418567  0.722725
    C   C60  0.419500  0.418698  0.500786  0.688710
    C   C61  0.438162  0.188315  0.201564  -0.124660
    C   C62  0.518739  0.266034  0.204896  -0.154158
    C   C63  0.514549  0.311571  0.249833  -0.147749
    H   H42  0.405184  0.245018  0.233961  0.041776
    H   H43  0.407212  0.181617  0.158972  0.023520
    H   H44  0.565097  0.284013  0.213867  0.028745
    H   H45  0.489448  0.255826  0.159812  0.040065
    H   H46  0.479095  0.319354  0.226532  0.025812
    H   H47  0.557380  0.353774  0.277117  0.038190
    C   C64  0.500756  0.372399  0.373354  0.032725
    C   C65  0.499840  0.210173  0.209303  0.738045
    C   C66  0.439566  0.233770  0.252061  -0.175351
    C   C67  0.500232  0.288953  0.289095  0.764381
    C   C68  0.546339  0.274027  0.317296  -0.167505
    C   C69  0.542851  0.223652  0.269544  -0.154577
    C   C70  0.500491  0.334658  0.335330  -0.544682
    C   C71  0.499664  0.164543  0.163076  -0.537891
    C   C72  0.499638  0.127019  0.125075  0.025642
    H   H48  0.527303  0.183752  0.274180  0.031681
    H   H49  0.587429  0.236491  0.274248  0.042024
    H   H50  0.538088  0.260595  0.348640  0.041755
    H   H51  0.422679  0.145666  0.201414  0.031229
    H   H52  0.430363  0.215185  0.279959  0.034271
    H   H53  0.591138  0.313450  0.341686  0.031889
    C   C73  0.486246  0.735871  0.796120  -0.146103
    C   C74  0.560772  0.813671  0.793462  -0.128699
    C   C75  0.562336  0.764940  0.749111  -0.177924
    H   H54  0.511715  0.671244  0.764792  0.038445
    H   H55  0.521850  0.747763  0.839027  0.027332
    H   H56  0.569684  0.851015  0.784402  0.020936
    H   H57  0.595284  0.829669  0.838798  0.035478
    H   H58  0.593516  0.753158  0.772914  0.030790
    H   H59  0.577609  0.780684  0.722080  0.046024
    C   C76  0.501079  0.627592  0.625930  0.021623
    C   C77  0.500166  0.789742  0.788245  0.746997
    C   C78  0.482187  0.687137  0.746160  -0.153057
    C   C79  0.500783  0.710995  0.709419  0.763595
    C   C80  0.457464  0.728377  0.680502  -0.168042
    C   C81  0.453858  0.772221  0.727642  -0.152114
    C   C82  0.501058  0.665312  0.663691  -0.538392
    C   C83  0.499774  0.835359  0.833922  -0.546235
    C   C84  0.499403  0.872877  0.871536  0.030650
    H   H60  0.409119  0.751594  0.722437  0.029683
    H   H61  0.461813  0.812013  0.722794  0.041180
    H   H62  0.412971  0.688525  0.648855  0.042056
    H   H63  0.443463  0.720078  0.795672  0.036925
    H   H64  0.435911  0.649731  0.717898  0.027378
    H   H65  0.472783  0.748954  0.656322  0.031566
    C   C85  0.357279  0.330368  0.622805  0.452863
    C   C86  0.393003  0.313082  0.662302  -0.409619
    C   C87  0.401662  0.390088  0.635761  -0.369923
    H   H66  0.325575  0.336829  0.636696  -0.080633
    H   H67  0.428829  0.312032  0.652985  0.085090
    H   H68  0.365451  0.269302  0.655756  0.074325
    H   H69  0.413270  0.346277  0.709398  0.093930
    H   H70  0.431027  0.384739  0.617707  0.096130
    H   H71  0.429711  0.420038  0.684294  0.063789
    H   H72  0.378878  0.411686  0.618175  0.077124
