# generated using pymatgen
data_ZnH23C35N3O8
_symmetry_space_group_name_H-M   'P 1'
_cell_length_a   13.68813800
_cell_length_b   13.32391500
_cell_length_c   15.78585400
_cell_angle_alpha   94.86670300
_cell_angle_beta   90.04884800
_cell_angle_gamma   90.63129900
_symmetry_Int_Tables_number   1
_chemical_formula_structural   ZnH23C35N3O8
_chemical_formula_sum   'Zn2 H46 C70 N6 O16'
_cell_volume   2868.45926591
_cell_formula_units_Z   2
loop_
 _symmetry_equiv_pos_site_id
 _symmetry_equiv_pos_as_xyz
  1  'x, y, z'
loop_
 _atom_site_type_symbol
 _atom_site_label
 _atom_site_symmetry_multiplicity
 _atom_site_fract_x
 _atom_site_fract_y
 _atom_site_fract_z
 _atom_site_occupancy
  Zn  Zn1  1  0.52362400  0.90024500  0.48759500  1
  Zn  Zn2  1  0.48139100  0.12050800  0.50537400  1
  H  H1  1  0.73681000  0.18248700  0.02319100  1
  H  H2  1  0.28168100  0.83790100  0.96676200  1
  H  H3  1  0.98086100  0.08742200  0.94644800  1
  H  H4  1  0.02685900  0.91398800  0.04330100  1
  H  H5  1  0.18334900  0.02256700  0.32752300  1
  H  H6  1  0.81846800  0.99940100  0.65936500  1
  H  H7  1  0.81735900  0.96708400  0.33202400  1
  H  H8  1  0.18603200  0.04650700  0.66176700  1
  H  H9  1  0.57439800  0.14382900  0.26999200  1
  H  H10  1  0.44036900  0.88703500  0.72466700  1
  H  H11  1  0.65078200  0.18410800  0.13940300  1
  H  H12  1  0.36825100  0.84252600  0.85504700  1
  H  H13  1  0.45555100  0.90946200  0.23315000  1
  H  H14  1  0.54546900  0.08316100  0.76774900  1
  H  H15  1  0.25051800  0.45499600  0.51188000  1
  H  H16  1  0.75458300  0.57072000  0.50142100  1
  H  H17  1  0.31346900  0.60358400  0.56611300  1
  H  H18  1  0.68653600  0.43100300  0.42418100  1
  H  H19  1  0.27755700  0.62950100  0.46080100  1
  H  H20  1  0.72721400  0.39013100  0.52405500  1
  H  H21  1  0.62365200  0.25066300  0.51765700  1
  H  H22  1  0.38162000  0.77030400  0.47049600  1
  H  H23  1  0.27108000  0.24040000  0.37848100  1
  H  H24  1  0.16238200  0.27639200  0.43911700  1
  H  H25  1  0.20943600  0.15131300  0.44151200  1
  H  H26  1  0.73547100  0.75730100  0.37647800  1
  H  H27  1  0.84058800  0.72720600  0.43882800  1
  H  H28  1  0.79954500  0.85565800  0.44207600  1
  H  H29  1  0.84743500  0.57846300  0.62069300  1
  H  H30  1  0.80524100  0.50483100  0.70456900  1
  H  H31  1  0.78356000  0.63876800  0.71107300  1
  H  H32  1  0.43351300  0.48259300  0.33570600  1
  H  H33  1  0.33664900  0.52670200  0.27170500  1
  H  H34  1  0.35905300  0.39341800  0.27165500  1
  H  H35  1  0.94533000  0.87929200  0.63899700  1
  H  H36  1  0.07483900  0.89173200  0.62481500  1
  H  H37  1  0.99260500  0.95303400  0.55689100  1
  H  H38  1  0.08326500  0.82831300  0.30854800  1
  H  H39  1  0.95218500  0.81067200  0.30405000  1
  H  H40  1  0.01009900  0.86089500  0.40184600  1
  H  H41  1  0.31082400  0.70409300  0.09979000  1
  H  H42  1  0.44089900  0.68201100  0.09879100  1
  H  H43  1  0.37837100  0.70100800  0.00084400  1
  H  H44  1  0.52747600  0.22757400  0.87586000  1
  H  H45  1  0.52525200  0.23083400  0.99027600  1
  H  H46  1  0.44680400  0.14303900  0.92768000  1
  C  C1  1  0.83194600  0.04887300  0.21920500  1
  C  C2  1  0.17761000  0.96414300  0.77487600  1
  C  C3  1  0.78241900  0.10379200  0.16460600  1
  C  C4  1  0.23061500  0.91315000  0.82981700  1
  C  C5  1  0.83550400  0.10278700  0.09083600  1
  C  C6  1  0.17609900  0.90764100  0.90231200  1
  C  C7  1  0.92073300  0.02379100  0.18015800  1
  C  C8  1  0.08671100  0.98126500  0.81239800  1
  C  C9  1  0.80079000  0.13614800  0.01907800  1
  C  C10  1  0.21223400  0.87272000  0.97296000  1
  C  C11  1  0.82729600  0.09388800  0.93323100  1
  C  C12  1  0.17957900  0.89916700  0.06078300  1
  C  C13  1  0.76433100  0.07725900  0.86395400  1
  C  C14  1  0.24051600  0.91448600  0.13173600  1
  C  C15  1  0.82034100  0.04565400  0.79508300  1
  C  C16  1  0.18453200  0.95617500  0.19714000  1
  C  C17  1  0.91677700  0.04164600  0.82479100  1
  C  C18  1  0.08888500  0.95889700  0.16591300  1
  C  C19  1  0.00644300  0.01652800  0.77531400  1
  C  C20  1  0.99907600  0.98236800  0.21536200  1
  C  C21  1  0.33902800  0.89578200  0.14430000  1
  C  C22  1  0.66395600  0.08851700  0.85612400  1
  C  C23  1  0.37964600  0.92605000  0.22232800  1
  C  C24  1  0.62335300  0.07512400  0.77564400  1
  C  C25  1  0.32562000  0.97283300  0.28802900  1
  C  C26  1  0.67874200  0.04381300  0.70524800  1
  C  C27  1  0.22613000  0.98820900  0.27596800  1
  C  C28  1  0.77775000  0.02556600  0.71484100  1
  C  C29  1  0.78587000  0.01872700  0.29126700  1
  C  C30  1  0.22153600  0.99812300  0.70334100  1
  C  C31  1  0.69288500  0.05383900  0.30900300  1
  C  C32  1  0.31599500  0.96824800  0.68549800  1
  C  C33  1  0.64735500  0.11694900  0.25612600  1
  C  C34  1  0.36608700  0.90944300  0.73881900  1
  C  C35  1  0.69054900  0.14010900  0.18192900  1
  C  C36  1  0.32502900  0.88389800  0.81300400  1
  C  C37  1  0.37658200  0.98979300  0.37066000  1
  C  C38  1  0.62782100  0.03047000  0.62258700  1
  C  C39  1  0.63887000  0.03070100  0.38418300  1
  C  C40  1  0.36644300  0.99024800  0.60871000  1
  C  C41  1  0.55911700  0.29561900  0.51440000  1
  C  C42  1  0.44580100  0.72509400  0.47483300  1
  C  C43  1  0.38940300  0.30964900  0.50397800  1
  C  C44  1  0.61396200  0.71119000  0.49545700  1
  C  C45  1  0.40053100  0.41314200  0.49507700  1
  C  C46  1  0.60176700  0.60761400  0.50201900  1
  C  C47  1  0.49315400  0.45670500  0.50040800  1
  C  C48  1  0.50941100  0.56411100  0.49310700  1
  C  C49  1  0.57228800  0.39670900  0.50782600  1
  C  C50  1  0.43121900  0.62428800  0.48265200  1
  C  C51  1  0.31454800  0.47588300  0.47399800  1
  C  C52  1  0.68504600  0.54490100  0.52840700  1
  C  C53  1  0.33015100  0.58764000  0.49758800  1
  C  C54  1  0.67247000  0.43621200  0.49358700  1
  C  C55  1  0.29157000  0.26532100  0.51314700  1
  C  C56  1  0.23008800  0.23144700  0.43796800  1
  C  C57  1  0.71064400  0.75815700  0.51010700  1
  C  C58  1  0.77545600  0.77574300  0.43702500  1
  C  C59  1  0.69224300  0.55021300  0.62344700  1
  C  C60  1  0.78816400  0.56935400  0.66730500  1
  C  C61  1  0.28659700  0.45947400  0.38185400  1
  C  C62  1  0.35880200  0.46608800  0.31149200  1
  C  C63  1  0.00345000  0.02441300  0.68303900  1
  C  C64  1  0.00454100  0.93154600  0.62241400  1
  C  C65  1  0.00008200  0.96373400  0.30577600  1
  C  C66  1  0.01242700  0.85940300  0.33154600  1
  C  C67  1  0.40065500  0.83399600  0.08520300  1
  C  C68  1  0.38118400  0.72342200  0.07007800  1
  C  C69  1  0.59758800  0.10380200  0.92898200  1
  C  C70  1  0.51936200  0.18105400  0.93048000  1
  N  N1  1  0.92032600  0.05362200  0.09990600  1
  N  N2  1  0.08777600  0.94975000  0.89221400  1
  N  N3  1  0.91918000  0.07279000  0.90855000  1
  N  N4  1  0.08772500  0.92477000  0.08277800  1
  N  N5  1  0.46938400  0.25225100  0.51281400  1
  N  N6  1  0.53561900  0.76847400  0.48010000  1
  O  O1  1  0.38870900  0.08142700  0.40816900  1
  O  O2  1  0.61617800  0.93927400  0.58471400  1
  O  O3  1  0.42401900  0.91237200  0.39510000  1
  O  O4  1  0.58064900  0.10843300  0.59831900  1
  O  O5  1  0.62432600  0.93683500  0.40183900  1
  O  O6  1  0.38047900  0.08399100  0.59088800  1
  O  O7  1  0.59085300  0.10640100  0.42054000  1
  O  O8  1  0.41421400  0.91426100  0.57244500  1
  O  O9  1  0.25870900  0.25853600  0.58421600  1
  O  O10  1  0.74170300  0.77493300  0.58238700  1
  O  O11  1  0.61945000  0.53756900  0.66588600  1
  O  O12  1  0.20104900  0.44320100  0.36344700  1
  O  O13  1  0.98931100  0.10605000  0.65591700  1
  O  O14  1  0.99148600  0.03374100  0.36021100  1
  O  O15  1  0.47631400  0.86931700  0.05914300  1
  O  O16  1  0.60229900  0.04870500  0.98667100  1
