# generated using pymatgen
data_CuH6C12NO4
_symmetry_space_group_name_H-M   'P 1'
_cell_length_a   6.60261300
_cell_length_b   9.19636600
_cell_length_c   12.32430000
_cell_angle_alpha   99.81619500
_cell_angle_beta   100.08195200
_cell_angle_gamma   90.68529000
_symmetry_Int_Tables_number   1
_chemical_formula_structural   CuH6C12NO4
_chemical_formula_sum   'Cu2 H12 C24 N2 O8'
_cell_volume   725.31563637
_cell_formula_units_Z   2
loop_
 _symmetry_equiv_pos_site_id
 _symmetry_equiv_pos_as_xyz
  1  'x, y, z'
loop_
 _atom_site_type_symbol
 _atom_site_label
 _atom_site_symmetry_multiplicity
 _atom_site_fract_x
 _atom_site_fract_y
 _atom_site_fract_z
 _atom_site_occupancy
  Cu  Cu1  1  0.99095100  0.85622700  0.00151800  1
  Cu  Cu2  1  0.01360700  0.14611400  0.01212200  1
  H  H1  1  0.73872300  0.37633700  0.07406600  1
  H  H2  1  0.37703200  0.24259200  0.98703400  1
  H  H3  1  0.64035100  0.36260700  0.91249300  1
  H  H4  1  0.62596900  0.62802800  0.90619500  1
  H  H5  1  0.35000100  0.76735700  0.97528400  1
  H  H6  1  0.72305900  0.64104800  0.06626800  1
  H  H7  1  0.01419100  0.91999000  0.63880000  1
  H  H8  1  0.14533000  0.94492300  0.47234800  1
  H  H9  1  0.75414900  0.01345400  0.66684100  1
  H  H10  1  0.85890600  0.04962800  0.53835800  1
  H  H11  1  0.98789300  0.07729400  0.37137900  1
  H  H12  1  0.24855600  0.98759800  0.34561200  1
  C  C1  1  0.78436900  0.03533800  0.16448700  1
  C  C2  1  0.33593000  0.02084400  0.15655700  1
  C  C3  1  0.21234800  0.96490400  0.84554600  1
  C  C4  1  0.66683100  0.98196400  0.85661900  1
  C  C5  1  0.35579100  0.35342000  0.97148300  1
  C  C6  1  0.51004800  0.42312200  0.93490200  1
  C  C7  1  0.50212400  0.57149900  0.93151400  1
  C  C8  1  0.33930600  0.64895900  0.96397900  1
  C  C9  1  0.17040600  0.57545000  0.98534100  1
  C  C10  1  0.18061000  0.42681600  0.99109700  1
  C  C11  1  0.86102200  0.43162700  0.04659000  1
  C  C12  1  0.85013200  0.57982000  0.04005100  1
  C  C13  1  0.17813000  0.93622300  0.64393500  1
  C  C14  1  0.25382900  0.95293700  0.54936100  1
  C  C15  1  0.46132000  0.98515700  0.55574800  1
  C  C16  1  0.59135300  0.99099200  0.65780100  1
  C  C17  1  0.51667400  0.97089200  0.75237500  1
  C  C18  1  0.30693200  0.94878900  0.74606600  1
  C  C19  1  0.74973200  0.04392500  0.46176700  1
  C  C20  1  0.82418700  0.06167800  0.36689300  1
  C  C21  1  0.69378800  0.05183900  0.26538300  1
  C  C22  1  0.48513200  0.03063300  0.26028200  1
  C  C23  1  0.41125500  0.00949500  0.35467300  1
  C  C24  1  0.54205200  0.01329200  0.45614700  1
  N  N1  1  0.02256500  0.35544400  0.01854500  1
  N  N2  1  0.00010000  0.64873500  0.00420900  1
  O  O1  1  0.83203000  0.90243300  0.12117600  1
  O  O2  1  0.84831400  0.15247600  0.13020900  1
  O  O3  1  0.24254900  0.89251200  0.11302900  1
  O  O4  1  0.26154300  0.14218000  0.12545200  1
  O  O5  1  0.13662600  0.84856900  0.87528100  1
  O  O6  1  0.17311300  0.09801200  0.89230500  1
  O  O7  1  0.73597400  0.86066200  0.89131200  1
  O  O8  1  0.76626000  0.10968100  0.89659700  1
