# generated using pymatgen
data_ZnH26C29(NO2)3
_symmetry_space_group_name_H-M   'P 1'
_cell_length_a   19.48456600
_cell_length_b   18.27419100
_cell_length_c   11.91969600
_cell_angle_alpha   90.00000000
_cell_angle_beta   90.00301700
_cell_angle_gamma   90.00000000
_symmetry_Int_Tables_number   1
_chemical_formula_structural   ZnH26C29(NO2)3
_chemical_formula_sum   'Zn2 H52 C58 N6 O12'
_cell_volume   4244.18274364
_cell_formula_units_Z   2
loop_
 _symmetry_equiv_pos_site_id
 _symmetry_equiv_pos_as_xyz
  1  'x, y, z'
loop_
 _atom_site_type_symbol
 _atom_site_label
 _atom_site_symmetry_multiplicity
 _atom_site_fract_x
 _atom_site_fract_y
 _atom_site_fract_z
 _atom_site_occupancy
  Zn  Zn1  1  0.50000100  0.58115900  0.49999900  1
  Zn  Zn2  1  0.50000000  0.41466500  0.49999900  1
  H  H1  1  0.84570900  0.41093800  0.61622000  1
  H  H2  1  0.15593500  0.58824200  0.61365500  1
  H  H3  1  0.15429300  0.41093900  0.38377700  1
  H  H4  1  0.84406600  0.58824300  0.38634500  1
  H  H5  1  0.93794100  0.61673900  0.50225500  1
  H  H6  1  0.06196800  0.38262800  0.50157300  1
  H  H7  1  0.06206000  0.61673900  0.49774500  1
  H  H8  1  0.93803300  0.38262800  0.49842600  1
  H  H9  1  0.56038200  0.69728800  0.64609100  1
  H  H10  1  0.44704300  0.29843100  0.34637900  1
  H  H11  1  0.43961900  0.69728800  0.35390800  1
  H  H12  1  0.55295700  0.29843100  0.65362000  1
  H  H13  1  0.56016300  0.83043400  0.65023400  1
  H  H14  1  0.44644000  0.16506000  0.34347400  1
  H  H15  1  0.43983800  0.83043500  0.34976600  1
  H  H16  1  0.55356100  0.16505900  0.65652400  1
  H  H17  1  0.39584600  0.93209600  0.44299100  1
  H  H18  1  0.60379600  0.06444000  0.55795900  1
  H  H19  1  0.60415500  0.93209500  0.55700900  1
  H  H20  1  0.39620600  0.06444100  0.44204000  1
  H  H21  1  0.76127400  0.31106900  0.54504800  1
  H  H22  1  0.68212000  0.28686200  0.61181400  1
  H  H23  1  0.82220700  0.31081000  0.72422800  1
  H  H24  1  0.77029700  0.23097800  0.71805000  1
  H  H25  1  0.79182700  0.40653000  0.82119400  1
  H  H26  1  0.71965100  0.40396400  0.91395900  1
  H  H27  1  0.69807700  0.48153900  0.74609100  1
  H  H28  1  0.63861700  0.40621400  0.75940900  1
  H  H29  1  0.25098400  0.68500300  0.53057800  1
  H  H30  1  0.32916600  0.70500300  0.60436500  1
  H  H31  1  0.18323200  0.69696200  0.70143600  1
  H  H32  1  0.24089900  0.77224100  0.69483000  1
  H  H33  1  0.20162800  0.60392300  0.81157900  1
  H  H34  1  0.27051400  0.60385500  0.91065000  1
  H  H35  1  0.29045000  0.51766100  0.75140900  1
  H  H36  1  0.35614600  0.58661900  0.76626900  1
  H  H37  1  0.23872600  0.31106900  0.45495000  1
  H  H38  1  0.31788000  0.28686200  0.38818500  1
  H  H39  1  0.17779400  0.31081100  0.27576900  1
  H  H40  1  0.22970300  0.23097900  0.28194800  1
  H  H41  1  0.20817400  0.40653100  0.17880500  1
  H  H42  1  0.28035000  0.40396500  0.08603900  1
  H  H43  1  0.30192400  0.48153900  0.25390800  1
  H  H44  1  0.36138400  0.40621400  0.24059100  1
  H  H45  1  0.74901700  0.68500300  0.46942200  1
  H  H46  1  0.67083400  0.70500300  0.39563500  1
  H  H47  1  0.81676900  0.69696200  0.29856400  1
  H  H48  1  0.75910200  0.77224100  0.30517000  1
  H  H49  1  0.79837300  0.60392400  0.18842000  1
  H  H50  1  0.72948600  0.60385600  0.08934900  1
  H  H51  1  0.70955100  0.51766100  0.24859100  1
  H  H52  1  0.64385500  0.58661900  0.23373100  1
  C  C1  1  0.36539900  0.49794300  0.49866600  1
  C  C2  1  0.63460200  0.49794300  0.50133300  1
  C  C3  1  0.50083500  0.49792000  0.28071000  1
  C  C4  1  0.49916600  0.49792000  0.71928900  1
  C  C5  1  0.50063600  0.49792000  0.16031800  1
  C  C6  1  0.49936500  0.49792000  0.83968000  1
  C  C7  1  0.50026200  0.49792000  0.05922800  1
  C  C8  1  0.49973800  0.49792000  0.94077100  1
  C  C9  1  0.74661700  0.44678300  0.56358100  1
  C  C10  1  0.25419600  0.55024100  0.56076300  1
  C  C11  1  0.25338400  0.44678300  0.43641800  1
  C  C12  1  0.74580500  0.55024200  0.43923600  1
  C  C13  1  0.81760000  0.44840600  0.56377900  1
  C  C14  1  0.18323000  0.55008100  0.56117700  1
  C  C15  1  0.18240100  0.44840700  0.43621900  1
  C  C16  1  0.81677100  0.55008100  0.43882300  1
  C  C17  1  0.85300600  0.49950300  0.50115700  1
  C  C18  1  0.14699500  0.49950300  0.49884200  1
  C  C19  1  0.71027500  0.49824000  0.50146100  1
  C  C20  1  0.28972600  0.49824000  0.49853800  1
  C  C21  1  0.96460000  0.56491000  0.50021200  1
  C  C22  1  0.03537300  0.43449700  0.49977300  1
  C  C23  1  0.03540100  0.56491000  0.49978800  1
  C  C24  1  0.96462800  0.43449700  0.50022600  1
  C  C25  1  0.07142300  0.49968600  0.49948700  1
  C  C26  1  0.92857800  0.49968600  0.50051200  1
  C  C27  1  0.53365600  0.72714900  0.58116500  1
  C  C28  1  0.47042700  0.26863000  0.41469100  1
  C  C29  1  0.46634500  0.72714900  0.41883400  1
  C  C30  1  0.52957400  0.26863100  0.58530800  1
  C  C31  1  0.53409200  0.80260300  0.58257300  1
  C  C32  1  0.46963500  0.19317600  0.41364500  1
  C  C33  1  0.46591000  0.80260300  0.41742600  1
  C  C34  1  0.53036500  0.19317600  0.58635400  1
  C  C35  1  0.50000100  0.84133500  0.50000000  1
  C  C36  1  0.50000000  0.15458300  0.50000000  1
  C  C37  1  0.44233500  0.96038700  0.46661200  1
  C  C38  1  0.55756200  0.03584700  0.53375500  1
  C  C39  1  0.55766600  0.96038700  0.53338800  1
  C  C40  1  0.44243900  0.03584700  0.46624400  1
  C  C41  1  0.50000000  0.07415000  0.50000000  1
  C  C42  1  0.50000100  0.92194000  0.50000000  1
  C  C43  1  0.72964600  0.31955500  0.62128300  1
  C  C44  1  0.76834700  0.29152400  0.72345200  1
  C  C45  1  0.73827800  0.38686600  0.83004800  1
  C  C46  1  0.69271600  0.42118600  0.74200400  1
  C  C47  1  0.27881000  0.67702600  0.61081300  1
  C  C48  1  0.23821700  0.71202700  0.70552900  1
  C  C49  1  0.25622600  0.61900900  0.82364100  1
  C  C50  1  0.30170500  0.57693200  0.74363000  1
  C  C51  1  0.27035400  0.31955500  0.37871500  1
  C  C52  1  0.23165400  0.29152500  0.27654600  1
  C  C53  1  0.26172300  0.38686700  0.16995100  1
  C  C54  1  0.30728500  0.42118600  0.25799500  1
  C  C55  1  0.72119000  0.67702600  0.38918700  1
  C  C56  1  0.76178400  0.71202800  0.29447100  1
  C  C57  1  0.74377400  0.61900900  0.17635900  1
  C  C58  1  0.69829600  0.57693200  0.25637000  1
  N  N1  1  0.50000100  0.69062600  0.49999900  1
  N  N2  1  0.50000000  0.30518700  0.49999900  1
  N  N3  1  0.71113800  0.39579300  0.63174500  1
  N  N4  1  0.29054900  0.60002200  0.62962900  1
  N  N5  1  0.28886300  0.39579300  0.36825400  1
  N  N6  1  0.70945200  0.60002300  0.37037000  1
  O  O1  1  0.39775200  0.56101400  0.49901000  1
  O  O2  1  0.60228600  0.43479900  0.50118400  1
  O  O3  1  0.60224900  0.56101400  0.50099000  1
  O  O4  1  0.39771500  0.43479900  0.49881400  1
  O  O5  1  0.50060300  0.56108600  0.33284100  1
  O  O6  1  0.49927600  0.43475300  0.66715400  1
  O  O7  1  0.49939800  0.56108600  0.66715800  1
  O  O8  1  0.50072500  0.43475300  0.33284500  1
  O  O9  1  0.73448600  0.31074000  0.82247000  1
  O  O10  1  0.26650500  0.69406500  0.80964100  1
  O  O11  1  0.26551500  0.31074100  0.17752800  1
  O  O12  1  0.73349600  0.69406600  0.19035900  1
