# generated using pymatgen
data_Fe2H20(C13O6)3
_symmetry_space_group_name_H-M   'P 1'
_cell_length_a   15.24397500
_cell_length_b   9.30654200
_cell_length_c   18.47274800
_cell_angle_alpha   90.15429900
_cell_angle_beta   103.80142700
_cell_angle_gamma   107.74802000
_symmetry_Int_Tables_number   1
_chemical_formula_structural   Fe2H20(C13O6)3
_chemical_formula_sum   'Fe2 H20 C39 O18'
_cell_volume   2415.84215855
_cell_formula_units_Z   1
loop_
 _symmetry_equiv_pos_site_id
 _symmetry_equiv_pos_as_xyz
  1  'x, y, z'
loop_
 _atom_site_type_symbol
 _atom_site_label
 _atom_site_symmetry_multiplicity
 _atom_site_fract_x
 _atom_site_fract_y
 _atom_site_fract_z
 _atom_site_occupancy
  Fe  Fe1  1  0.49770600  0.02080400  0.84833500  1
  Fe  Fe2  1  0.51656300  0.02620300  0.17633700  1
  H  H1  1  0.81331700  0.07972900  0.19578100  1
  H  H2  1  0.95907600  0.05518200  0.17291400  1
  H  H3  1  0.82401000  0.95048500  0.94090400  1
  H  H4  1  0.98191200  0.08563600  0.94762500  1
  H  H5  1  0.04842400  0.95905900  0.85330500  1
  H  H6  1  0.19912400  0.95917400  0.82876200  1
  H  H7  1  0.18242500  0.06242100  0.08498000  1
  H  H8  1  0.49634500  0.76221600  0.63916700  1
  H  H9  1  0.48277400  0.30118500  0.60310500  1
  H  H10  1  0.51605600  0.28409500  0.38485100  1
  H  H11  1  0.53070200  0.74544200  0.42145900  1
  H  H12  1  0.50606000  0.47936700  0.82039300  1
  H  H13  1  0.50535700  0.56712400  0.20372400  1
  H  H14  1  0.46773600  0.65710000  0.51238500  1
  H  H15  1  0.54520900  0.38916300  0.51187500  1
  H  H16  1  0.03173100  0.57383300  0.11010000  1
  H  H17  1  0.14264100  0.71561400  0.15744200  1
  H  H18  1  0.10104600  0.54319600  0.00473300  1
  H  H19  1  0.17117600  0.50699600  0.09248300  1
  H  H20  1  0.21176700  0.68463700  0.05198000  1
  C  C1  1  0.81570300  0.05550800  0.13915200  1
  C  C2  1  0.89743200  0.03794300  0.12648200  1
  C  C3  1  0.89954100  0.99590000  0.05540800  1
  C  C4  1  0.82149100  0.98193200  0.99648700  1
  C  C5  1  0.73924400  0.00067900  0.00842200  1
  C  C6  1  0.73524800  0.03119900  0.08116400  1
  C  C7  1  0.98299500  0.96220600  0.04241200  1
  C  C8  1  0.01727000  0.01866100  0.98444300  1
  C  C9  1  0.11081000  0.97815100  0.89930300  1
  C  C10  1  0.19556100  0.97673900  0.88571700  1
  C  C11  1  0.27676300  0.00643700  0.94352900  1
  C  C12  1  0.27183600  0.03232800  0.01656200  1
  C  C13  1  0.18652800  0.03539100  0.02925800  1
  C  C14  1  0.10588600  0.00624900  0.97116900  1
  C  C15  1  0.49146300  0.23084800  0.74300200  1
  C  C16  1  0.36724700  0.02652400  0.92419200  1
  C  C17  1  0.66046800  0.99309100  0.94280200  1
  C  C18  1  0.49890300  0.75489200  0.78599200  1
  C  C19  1  0.51251700  0.29141200  0.23784800  1
  C  C20  1  0.35222600  0.04741400  0.08191200  1
  C  C21  1  0.64532700  0.01777900  0.10001900  1
  C  C22  1  0.52143600  0.81595600  0.28158300  1
  C  C23  1  0.50036900  0.63425400  0.73528800  1
  C  C24  1  0.49698200  0.65453500  0.66063400  1
  C  C25  1  0.49472300  0.53765400  0.61289600  1
  C  C26  1  0.49103300  0.39754400  0.63964800  1
  C  C27  1  0.49726100  0.37864100  0.71442300  1
  C  C28  1  0.50354800  0.49726700  0.76227900  1
  C  C29  1  0.49248100  0.56476400  0.53404200  1
  C  C30  1  0.52052200  0.48158100  0.49026400  1
  C  C31  1  0.51545800  0.39186300  0.36347700  1
  C  C32  1  0.51145900  0.41212000  0.28872900  1
  C  C33  1  0.50819400  0.54916700  0.26187500  1
  C  C34  1  0.51519500  0.66792600  0.30995900  1
  C  C35  1  0.52193300  0.64899300  0.38477500  1
  C  C36  1  0.51811700  0.50876200  0.41139300  1
  C  C37  1  0.01869500  0.85207300  0.08814400  1
  C  C38  1  0.09506700  0.66390300  0.10219400  1
  C  C39  1  0.14832600  0.59508000  0.06002700  1
  O  O1  1  0.53881000  0.22391900  0.81161800  1
  O  O2  1  0.43939600  0.14863700  0.95115500  1
  O  O3  1  0.43149300  0.10782500  0.70338700  1
  O  O4  1  0.37204600  0.93776800  0.87079500  1
  O  O5  1  0.58542400  0.02811200  0.94930300  1
  O  O6  1  0.66967900  0.96626900  0.87571300  1
  O  O7  1  0.49844800  0.88806700  0.76281900  1
  O  O8  1  0.49711000  0.72944700  0.85555500  1
  O  O9  1  0.51636300  0.16007900  0.26168500  1
  O  O10  1  0.51142300  0.31544400  0.16771100  1
  O  O11  1  0.42934800  0.01970800  0.07516800  1
  O  O12  1  0.34225000  0.07060300  0.14915200  1
  O  O13  1  0.58233800  0.93851100  0.32099800  1
  O  O14  1  0.64252400  0.10687300  0.15415200  1
  O  O15  1  0.47384400  0.82340400  0.21313700  1
  O  O16  1  0.57145000  0.89819600  0.07277600  1
  O  O17  1  0.99557100  0.82036000  0.14633500  1
  O  O18  1  0.06692200  0.77279200  0.06195800  1
