# Generated by REPEAT Assigner based on pymatgen
data_DB0-m9_o2_o23_f0_sra.sym.32
_audit_creation_date              2022-05-24
_audit_creation_method            REPEAT_Assigner
_cell_length_a                    6.339016
_cell_length_b                    16.880753
_cell_length_c                    19.866596
_cell_angle_alpha                 67.374219
_cell_angle_beta                  90.862831
_cell_angle_gamma                 90.997251
_cell_volume                      1961.881306
_symmetry_space_group_name_H-M    P1
_symmetry_Int_Tables_number       1
loop_
    _symmetry_equiv_pos_site_id
    _symmetry_equiv_pos_as_xyz
    1  x,y,z
loop_
    _atom_site_type_symbol
    _atom_site_label
    _atom_site_fract_x
    _atom_site_fract_y
    _atom_site_fract_z
    _atom_type_partial_charge
    O  O1   0.490522  0.469846  0.918875  -0.621350
    O  O2   0.870189  0.446324  0.108549  -0.590743
    O  O3   0.080490  0.589088  0.017410  -0.561261
    C  C1   0.691947  0.403208  0.122870  0.782497
    O  O4   0.771152  0.399901  0.989967  -0.482685
    O  O5   0.986912  0.542366  0.898717  -0.570105
    C  C2   0.663444  0.424249  0.927901  0.910025
    O  O6   0.573092  0.400736  0.069287  -0.433491
    O  O7   0.681784  0.564200  0.983744  -0.559976
    V  V1   0.953576  0.487957  0.005141  1.211358
    O  O8   0.279090  0.603623  0.933300  -0.571044
    C  C3   0.151384  0.595495  0.882170  0.824400
    O  O9   0.370102  0.533523  0.084596  -0.654487
    C  C4   0.192721  0.573736  0.076378  0.928617
    V  V2   0.454158  0.508757  0.999464  1.447680
    O  O10  0.177230  0.432680  0.018405  -0.520737
    C  C5   0.927486  0.707708  0.240873  0.148156
    C  C6   0.310142  0.681616  0.261972  0.235432
    C  C7   0.341946  0.745787  0.297554  -0.048805
    H  H1   0.991769  0.683304  0.354235  0.159297
    H  H2   0.460000  0.675260  0.236520  0.013732
    H  H3   0.477333  0.788134  0.272324  -0.110683
    C  C8   0.148439  0.889468  0.369864  -0.209538
    C  C9   0.139220  0.714038  0.204041  0.170942
    C  C10  0.959618  0.738783  0.302690  -0.244020
    C  C11  0.146542  0.799463  0.284642  0.673708
    C  C12  0.135015  0.858700  0.204494  -0.050023
    C  C13  0.186101  0.807448  0.159052  -0.219650
    C  C14  0.147588  0.848974  0.331282  -0.249405
    C  C15  0.143295  0.664479  0.157612  -0.262380
    C  C16  0.160555  0.623493  0.119919  -0.167194
    H  H4   0.355694  0.815381  0.144690  0.136883
    H  H5   0.974089  0.884857  0.190491  0.082949
    H  H6   0.811068  0.748772  0.201139  0.096332
    H  H7   0.063799  0.507296  0.673440  0.057280
    C  C17  0.105568  0.757887  0.879455  -0.380357
    C  C18  0.078078  0.836947  0.882420  0.039775
    C  C19  0.063107  0.908326  0.819062  0.037773
    C  C20  0.077791  0.901023  0.752570  -0.029769
    C  C21  0.112761  0.821534  0.749107  0.012528
    C  C22  0.124517  0.749593  0.813197  0.362046
    C  C23  0.123277  0.812599  0.682668  -0.188822
    C  C24  0.112538  0.730716  0.681426  0.079003
    C  C25  0.123656  0.658088  0.745794  0.216228
    C  C26  0.139742  0.668483  0.811974  -0.452034
    C  C27  0.071957  0.721236  0.616299  -0.004480
    C  C28  0.066998  0.641617  0.613005  -0.291861
    C  C29  0.081352  0.569949  0.675797  0.282058
    C  C30  0.104559  0.577183  0.742148  -0.270955
    H  H8   0.103147  0.702568  0.929804  0.300792
    H  H9   0.063435  0.842655  0.934505  0.063813
    H  H10  0.032535  0.635229  0.561863  0.159034
    H  H11  0.105114  0.424072  0.266248  0.098015
    C  C31  0.974050  0.274416  0.150843  -0.157564
    C  C32  0.109796  0.209126  0.157707  -0.106465
    C  C33  0.084119  0.130733  0.214000  0.027911
    C  C34  0.926572  0.118091  0.264272  -0.256164
    C  C35  0.797116  0.185317  0.260509  0.301503
    C  C36  0.818675  0.262581  0.201780  0.172123
    C  C37  0.643536  0.176111  0.312768  -0.489731
    C  C38  0.496225  0.240516  0.299719  0.223705
    C  C39  0.518656  0.316858  0.239937  0.156084
    C  C40  0.681645  0.328282  0.191655  -0.322767
    C  C41  0.323488  0.229126  0.344695  -0.156650
    C  C42  0.183003  0.294708  0.332423  -0.173494
    C  C43  0.213417  0.372115  0.275348  0.161797
    C  C44  0.380290  0.382685  0.229094  -0.349932
    H  H12  0.989396  0.335334  0.105333  0.129581
    H  H13  0.232101  0.218609  0.117909  0.127152
    H  H14  0.185421  0.078235  0.218238  0.073902
    H  H15  0.901374  0.053369  0.302489  0.067630
    H  H16  0.288000  0.168251  0.387582  0.123421
    H  H17  0.048567  0.285218  0.367642  0.111570
    H  H18  0.405497  0.443302  0.185015  0.185486
    O  O11  0.828431  0.058936  0.396944  -0.525400
    O  O12  0.462650  0.021710  0.589508  -0.495177
    O  O13  0.244534  0.898135  0.559731  -0.444006
    C  C45  0.637998  0.064391  0.584027  0.767250
    O  O14  0.547183  0.109810  0.439608  -0.458713
    O  O15  0.323664  0.986518  0.409809  -0.757214
    C  C46  0.653886  0.104190  0.384266  0.898588
    O  O16  0.750388  0.085334  0.525054  -0.438237
    O  O17  0.639860  0.936645  0.509788  -0.404368
    V  V3   0.368031  0.010759  0.498307  1.324643
    O  O18  0.041349  0.909942  0.476002  -0.615178
    C  C47  0.154465  0.938128  0.415528  1.122852
    O  O19  0.953938  0.937355  0.604705  -0.367089
    C  C48  0.119068  0.889905  0.614638  0.535380
    V  V4   0.867794  0.990729  0.501278  1.099984
    O  O20  0.144870  0.065948  0.487325  -0.478671
    C  C49  0.887159  0.251579  0.705148  -0.525170
    C  C50  0.495993  0.261520  0.699898  -0.541868
    C  C51  0.529460  0.322437  0.738736  0.359254
    H  H19  0.947288  0.361714  0.732762  0.003946
    H  H20  0.891856  0.300908  0.648916  0.122852
    H  H21  0.348359  0.223921  0.719047  0.060126
    H  H22  0.484370  0.298972  0.640305  0.162295
    C  C52  0.683247  0.374800  0.883363  -0.186296
    C  C53  0.681889  0.200937  0.716479  0.704332
    C  C54  0.904924  0.293059  0.760773  0.206277
    C  C55  0.694489  0.285556  0.797742  0.435999
    C  C56  0.644832  0.191494  0.842368  -0.358546
    C  C57  0.674355  0.139950  0.795622  0.210755
    C  C58  0.693942  0.334170  0.845087  -0.159434
    C  C59  0.673079  0.152668  0.668760  -0.276765
    C  C60  0.661271  0.112828  0.629661  -0.172572
    H  H23  0.824708  0.104718  0.810788  -0.071816
    H  H24  0.021347  0.207522  0.712983  0.161239
    H  H25  0.026945  0.260117  0.801932  -0.017859
    H  H26  0.479458  0.183924  0.861095  0.128298
    N  N1   0.776117  0.783668  0.311470  0.482140
    O  O21  0.740872  0.861125  0.264900  -0.339805
    O  O22  0.678216  0.755299  0.373435  -0.317265
    N  N2   0.285602  0.928940  0.188927  0.466244
    O  O23  0.222559  0.007516  0.156186  -0.310904
    O  O24  0.486075  0.913140  0.198615  -0.252747
    N  N3   0.034504  0.990181  0.822225  0.372950
    O  O25  0.015698  0.996471  0.885047  -0.234590
    O  O26  0.049494  0.059175  0.763203  -0.172467
    N  N4   0.036206  0.974658  0.688579  0.421375
    O  O27  0.884396  0.025277  0.688919  -0.308231
    O  O28  0.177581  0.002207  0.638137  -0.245259
    N  N5   0.994950  0.791017  0.555339  0.606765
    O  O29  0.870583  0.844539  0.567196  -0.350817
    O  O30  0.985593  0.783701  0.492554  -0.258645
    N  N6   0.851911  0.619479  0.269676  0.295181
    O  O31  0.680231  0.599126  0.307886  -0.348311
    O  O32  0.947559  0.561968  0.253168  -0.224343
    N  N7   0.094531  0.500026  0.805336  0.615409
    O  O33  0.006830  0.432576  0.799804  -0.507712
    O  O34  0.219303  0.489983  0.860041  -0.215747
    N  N8   0.600206  0.405477  0.686888  0.412107
    O  O35  0.493464  0.473643  0.678859  -0.371859
    O  O36  0.755999  0.411005  0.643487  -0.306235
    N  N9   0.335123  0.334085  0.771081  0.219791
    O  O37  0.304241  0.289847  0.840052  -0.229334
    O  O38  0.240409  0.407081  0.740343  -0.054370
    N  N10  0.500651  0.079327  0.807027  0.506803
    O  O39  0.538008  0.997638  0.829925  -0.366733
    O  O40  0.307396  0.105901  0.800576  -0.251462
    N  N11  0.784285  0.159636  0.905433  0.629777
    O  O41  0.986339  0.156228  0.896835  -0.358080
    O  O42  0.705946  0.130761  0.970696  -0.360883
    N  N12  0.248448  0.598758  0.316242  0.619520
    O  O43  0.219172  0.590001  0.383374  -0.360833
    O  O44  0.242190  0.531651  0.299285  -0.420195
    N  N13  0.377787  0.700639  0.375207  0.575778
    O  O45  0.518880  0.640889  0.398263  -0.272273
    O  O46  0.253180  0.713136  0.421469  -0.344095
    N  N14  0.058488  0.836522  0.092978  0.694820
    O  O47  0.853878  0.835303  0.096923  -0.426656
    O  O48  0.149118  0.865690  0.029665  -0.352094
