# generated using pymatgen
data_ZnH10C26NO6
_symmetry_space_group_name_H-M   'P 1'
_cell_length_a   8.52083400
_cell_length_b   13.04913400
_cell_length_c   17.45950900
_cell_angle_alpha   90.61142700
_cell_angle_beta   93.31895900
_cell_angle_gamma   86.46799000
_symmetry_Int_Tables_number   1
_chemical_formula_structural   ZnH10C26NO6
_chemical_formula_sum   'Zn2 H20 C52 N2 O12'
_cell_volume   1934.32757724
_cell_formula_units_Z   2
loop_
 _symmetry_equiv_pos_site_id
 _symmetry_equiv_pos_as_xyz
  1  'x, y, z'
loop_
 _atom_site_type_symbol
 _atom_site_label
 _atom_site_symmetry_multiplicity
 _atom_site_fract_x
 _atom_site_fract_y
 _atom_site_fract_z
 _atom_site_occupancy
  Zn  Zn1  1  0.53675400  0.51003300  0.91275300  1
  Zn  Zn2  1  0.55706200  0.49814200  0.08365400  1
  H  H1  1  0.62310400  0.81555400  0.99794600  1
  H  H2  1  0.59015600  0.00058600  0.99229300  1
  H  H3  1  0.03353500  0.43244000  0.97282700  1
  H  H4  1  0.33771300  0.16583300  0.00327200  1
  H  H5  1  0.23408100  0.00785700  0.00535100  1
  H  H6  1  0.69440300  0.16374400  0.99196600  1
  H  H7  1  0.26371800  0.85265200  0.98906400  1
  H  H8  1  0.05524700  0.57670900  0.02683800  1
  H  H9  1  0.56940600  0.67153900  0.80670900  1
  H  H10  1  0.60587500  0.75639600  0.69115500  1
  H  H11  1  0.46699300  0.26398000  0.68603700  1
  H  H12  1  0.44929300  0.17069800  0.56735600  1
  H  H13  1  0.45994400  0.16561500  0.42762300  1
  H  H14  1  0.62317600  0.74396800  0.30661500  1
  H  H15  1  0.49666900  0.24978000  0.30941100  1
  H  H16  1  0.52714500  0.33635500  0.19072700  1
  H  H17  1  0.49162200  0.35654100  0.80403400  1
  H  H18  1  0.60068300  0.65190300  0.19142000  1
  H  H19  1  0.77042500  0.99467000  0.59514100  1
  H  H20  1  0.64123600  0.01435600  0.40590100  1
  C  C1  1  0.00838600  0.86791400  0.99899000  1
  C  C2  1  0.87608500  0.81061000  0.00075200  1
  C  C3  1  0.72692000  0.85892300  0.99714900  1
  C  C4  1  0.70766100  0.96408800  0.99424100  1
  C  C5  1  0.83671000  0.02262300  0.99535600  1
  C  C6  1  0.98763000  0.97551100  0.99754500  1
  C  C7  1  0.81287800  0.12874100  0.99429300  1
  C  C8  1  0.93943400  0.18960400  0.99398400  1
  C  C9  1  0.09003400  0.14303800  0.99715800  1
  C  C10  1  0.11390200  0.03783000  0.00030200  1
  C  C11  1  0.91974300  0.29604400  0.98901200  1
  C  C12  1  0.04968100  0.35130800  0.98178500  1
  C  C13  1  0.19878700  0.30565100  0.98917600  1
  C  C14  1  0.21968300  0.20143300  0.99790600  1
  C  C15  1  0.15708800  0.81552500  0.99749400  1
  C  C16  1  0.17245400  0.71046400  0.00697700  1
  C  C17  1  0.04166700  0.65761600  0.01649500  1
  C  C18  1  0.89402000  0.70488100  0.00781600  1
  C  C19  1  0.33202300  0.37013900  0.99234400  1
  C  C20  1  0.32268200  0.64994000  0.00341300  1
  C  C21  1  0.76115700  0.63905500  0.00423600  1
  C  C22  1  0.76950000  0.35682700  0.99279800  1
  C  C23  1  0.55073900  0.60157600  0.77469200  1
  C  C24  1  0.50602700  0.42643900  0.77334700  1
  C  C25  1  0.58355300  0.68888400  0.65724500  1
  C  C26  1  0.55495600  0.60081400  0.69562100  1
  C  C27  1  0.53334800  0.51133100  0.65538200  1
  C  C28  1  0.50798600  0.42362400  0.69453700  1
  C  C29  1  0.48727800  0.33290300  0.65520800  1
  C  C30  1  0.61933600  0.77576400  0.53825800  1
  C  C31  1  0.58845800  0.68805800  0.57784000  1
  C  C32  1  0.56919700  0.59699900  0.53788800  1
  C  C33  1  0.63397900  0.77132600  0.45977300  1
  C  C34  1  0.60996000  0.68056300  0.41967800  1
  C  C35  1  0.54073600  0.50892700  0.57678200  1
  C  C36  1  0.52088400  0.41796200  0.53734500  1
  C  C37  1  0.49310600  0.33016600  0.57650000  1
  C  C38  1  0.47163600  0.23957200  0.53697000  1
  C  C39  1  0.57915100  0.59336800  0.45915800  1
  C  C40  1  0.55770800  0.50219900  0.41978500  1
  C  C41  1  0.52878200  0.41469700  0.45879000  1
  C  C42  1  0.50737900  0.32396200  0.41918600  1
  C  C43  1  0.47809200  0.23659700  0.45834800  1
  C  C44  1  0.61024100  0.67661400  0.34024200  1
  C  C45  1  0.58811800  0.58562300  0.30153100  1
  C  C46  1  0.56391000  0.49846700  0.34114000  1
  C  C47  1  0.54204700  0.40832400  0.30131100  1
  C  C48  1  0.51432500  0.32067000  0.34043200  1
  C  C49  1  0.58759300  0.58223200  0.22261300  1
  C  C50  1  0.54559300  0.40672800  0.22224900  1
  C  C51  1  0.64320500  0.87354000  0.57837800  1
  C  C52  1  0.67392500  0.86429000  0.42037600  1
  N  N1  1  0.52594800  0.51488100  0.81223200  1
  N  N2  1  0.56826600  0.49336800  0.18418200  1
  O  O1  1  0.38851200  0.39893400  0.06007600  1
  O  O2  1  0.37768700  0.40508500  0.92773700  1
  O  O3  1  0.36571000  0.61786200  0.93563300  1
  O  O4  1  0.38711200  0.61160900  0.06787900  1
  O  O5  1  0.70528900  0.60933700  0.93653800  1
  O  O6  1  0.71569500  0.60339000  0.06859200  1
  O  O7  1  0.72780200  0.39011200  0.06058200  1
  O  O8  1  0.70603000  0.39613600  0.92852500  1
  O  O9  1  0.54585700  0.90926100  0.62141100  1
  O  O10  1  0.77331800  0.92850800  0.56433600  1
  O  O11  1  0.77974500  0.86024800  0.37611400  1
  O  O12  1  0.59669400  0.95847400  0.43633100  1
