# Generated by REPEAT Assigner based on pymatgen
data_DB0-m2_o9_o27_f0_pcu.sym.3
_audit_creation_date              2022-05-24
_audit_creation_method            REPEAT_Assigner
_cell_length_a                    10.877421
_cell_length_b                    19.289113
_cell_length_c                    17.785278
_cell_angle_alpha                 89.972872
_cell_angle_beta                  89.997852
_cell_angle_gamma                 89.992168
_cell_volume                      3731.631904
_symmetry_space_group_name_H-M    P1
_symmetry_Int_Tables_number       1
loop_
    _symmetry_equiv_pos_site_id
    _symmetry_equiv_pos_as_xyz
    1  x,y,z
loop_
    _atom_site_type_symbol
    _atom_site_label
    _atom_site_fract_x
    _atom_site_fract_y
    _atom_site_fract_z
    _atom_type_partial_charge
    O   O1   0.494184  0.397362  0.560947  -0.538756
    O   O2   0.507067  0.602487  0.438995  -0.538985
    O   O3   0.503580  0.401108  0.432127  -0.568560
    O   O4   0.497661  0.598740  0.567821  -0.569421
    C   C1   0.500157  0.366428  0.495341  0.714191
    C   C2   0.501093  0.633419  0.504601  0.716526
    O   O5   0.321492  0.501588  0.564214  -0.566518
    O   O6   0.679753  0.498257  0.435732  -0.565550
    O   O7   0.322458  0.500507  0.435128  -0.550828
    O   O8   0.678789  0.499344  0.564816  -0.549738
    C   C3   0.263984  0.502611  0.499396  0.647061
    C   C4   0.737262  0.497238  0.500548  0.644966
    Cu  Cu1  0.500095  0.497757  0.575039  0.784515
    Cu  Cu2  0.501148  0.502090  0.424905  0.781710
    H   H1   0.254395  0.670796  0.211494  0.078992
    H   H2   0.746835  0.329083  0.788451  0.078794
    C   C5   0.235587  0.663767  0.330759  -0.168380
    C   C6   0.765662  0.336097  0.669185  -0.168864
    H   H3   0.289872  0.709673  0.341347  0.120294
    H   H4   0.711381  0.290189  0.658596  0.120101
    C   C7   0.185945  0.627181  0.390073  -0.117139
    C   C8   0.815314  0.372677  0.609871  -0.115301
    H   H5   0.200617  0.645119  0.446946  0.098635
    H   H6   0.800647  0.354734  0.552999  0.098228
    C   C9   0.116862  0.568274  0.376780  0.116643
    C   C10  0.884390  0.431587  0.623164  0.115959
    C   C11  0.095198  0.547424  0.303669  -0.131130
    C   C12  0.906050  0.452441  0.696274  -0.130773
    H   H7   0.040176  0.501891  0.292582  0.098877
    H   H8   0.961069  0.497975  0.707362  0.099047
    C   C13  0.145073  0.584013  0.244437  -0.136011
    C   C14  0.856172  0.415856  0.755505  -0.136974
    H   H9   0.128757  0.567196  0.187333  0.101274
    H   H10  0.872493  0.432674  0.812609  0.101564
    C   C15  0.215510  0.642070  0.257963  -0.040800
    C   C16  0.785728  0.357801  0.741980  -0.040304
    C   C17  0.933853  0.525206  0.440487  -0.176755
    C   C18  0.067396  0.474650  0.559457  -0.173526
    H   H11  0.881989  0.547956  0.394905  0.106177
    H   H12  0.119258  0.451892  0.605036  0.105404
    C   C19  0.872667  0.495883  0.500657  -0.047727
    C   C20  0.128580  0.503971  0.499286  -0.050839
    C   C21  0.940768  0.469498  0.560487  0.047344
    C   C22  0.060481  0.530363  0.439458  0.049956
    C   C23  0.451181  0.254461  0.553568  -0.104708
    C   C24  0.550352  0.745397  0.446463  -0.106201
    H   H13  0.409846  0.282348  0.599791  0.097092
    H   H14  0.591868  0.717512  0.400294  0.097631
    C   C25  0.450289  0.183037  0.555340  0.104107
    C   C26  0.551277  0.816824  0.444718  0.105801
    H   H15  0.409074  0.157348  0.603081  0.029146
    H   H16  0.592724  0.842520  0.397050  0.029030
    C   C27  0.501121  0.145518  0.497021  -0.483358
    C   C28  0.500203  0.854329  0.502974  -0.485306
    C   C29  0.553257  0.180435  0.437162  -0.046366
    C   C30  0.447799  0.819402  0.562733  -0.046499
    H   H17  0.594252  0.151646  0.391545  0.040605
    H   H18  0.406589  0.848182  0.608284  0.040554
    C   C31  0.554378  0.252127  0.434692  0.354150
    C   C32  0.446642  0.747710  0.565175  0.355464
    C   C33  0.501666  0.289942  0.493412  -0.210750
    C   C34  0.499601  0.709907  0.506531  -0.212467
    N   N1   0.550891  0.033130  0.441667  -0.314892
    N   N2   0.450441  0.966717  0.558368  -0.315827
    N   N3   0.550769  0.964606  0.443013  -0.368735
    N   N4   0.450566  0.035243  0.557022  -0.367543
    C   C35  0.500524  0.930509  0.501402  0.921967
    C   C36  0.500808  0.069339  0.498627  0.919535
    C   C37  0.580834  0.545938  0.274385  -0.150104
    C   C38  0.420428  0.453899  0.725567  -0.149428
    H   H19  0.643657  0.579240  0.304556  0.168148
    H   H20  0.357621  0.420581  0.695402  0.167930
    C   C39  0.581767  0.545748  0.196723  0.145023
    C   C40  0.419488  0.454102  0.803230  0.146365
    H   H21  0.645509  0.579214  0.167490  0.018164
    H   H22  0.355745  0.420639  0.832466  0.017590
    C   C41  0.502171  0.502950  0.157750  -0.463211
    C   C42  0.499079  0.496907  0.842199  -0.464984
    C   C43  0.423272  0.461002  0.198022  0.025207
    C   C44  0.577967  0.538854  0.801920  0.026669
    H   H23  0.359848  0.426435  0.170125  0.032596
    H   H24  0.641387  0.573423  0.829817  0.032342
    C   C45  0.424842  0.462565  0.275406  0.150668
    C   C46  0.576387  0.537290  0.724537  0.150970
    H   H25  0.363165  0.429185  0.306357  0.057133
    H   H26  0.638053  0.570676  0.693588  0.056446
    N   N5   0.501973  0.505131  0.312468  -0.003363
    N   N6   0.499271  0.494713  0.687478  -0.004845
    N   N7   0.423546  0.459238  0.038382  -0.313807
    N   N8   0.577714  0.540622  0.961566  -0.313538
    N   N9   0.422681  0.457701  0.964073  -0.344719
    N   N10  0.578580  0.542159  0.035876  -0.345297
    C   C47  0.499798  0.498391  0.924737  0.900548
    C   C48  0.501460  0.501468  0.075211  0.900467
    C   C49  0.617963  0.285988  0.369730  -0.491877
    H   H27  0.550154  0.313200  0.333723  0.112956
    H   H28  0.688924  0.322587  0.390468  0.135775
    H   H29  0.664703  0.246659  0.334456  0.133762
    C   C50  0.382720  0.713831  0.629997  -0.491165
    H   H30  0.311885  0.677233  0.609094  0.135518
    H   H31  0.450353  0.686614  0.666123  0.112768
    H   H32  0.335769  0.753140  0.665197  0.133481
