# Generated by REPEAT Assigner based on pymatgen
data_DB0-m3_o43_o23_f0_fsc.sym.84
_audit_creation_date              2022-05-24
_audit_creation_method            REPEAT_Assigner
_cell_length_a                    14.234105
_cell_length_b                    8.545988
_cell_length_c                    15.107730
_cell_angle_alpha                 90.000000
_cell_angle_beta                  90.958497
_cell_angle_gamma                 90.000000
_cell_volume                      1837.515048
_symmetry_space_group_name_H-M    P1
_symmetry_Int_Tables_number       1
loop_
    _symmetry_equiv_pos_site_id
    _symmetry_equiv_pos_as_xyz
    1  x,y,z
loop_
    _atom_site_type_symbol
    _atom_site_label
    _atom_site_fract_x
    _atom_site_fract_y
    _atom_site_fract_z
    _atom_type_partial_charge
    H   H1   0.037828  0.994861  0.561616  0.133986
    H   H2   0.962026  0.994142  0.438296  0.132408
    C   C1   0.012023  0.134162  0.674434  -0.031818
    C   C2   0.987137  0.134101  0.325598  -0.027505
    C   C3   0.999557  0.135056  0.764767  -0.252587
    C   C4   0.999436  0.135251  0.235293  -0.260273
    H   H3   0.995409  0.245887  0.798783  0.118069
    H   H4   0.007293  0.245692  0.201411  0.117946
    C   C5   0.998662  0.994506  0.810944  0.164756
    C   C6   0.001582  0.995007  0.189025  0.170438
    C   C7   0.000702  0.854175  0.764758  -0.256153
    C   C8   0.000661  0.854374  0.235117  -0.254004
    H   H5   0.992879  0.743801  0.798717  0.112797
    H   H6   0.004891  0.743604  0.201050  0.122546
    C   C9   0.012856  0.855149  0.674436  0.060841
    C   C10  0.988051  0.855088  0.325426  0.058061
    C   C11  0.024365  0.994741  0.631293  -0.181829
    C   C12  0.975586  0.994414  0.368637  -0.179830
    C   C13  0.046657  0.879635  0.954570  -0.125997
    C   C14  0.049070  0.880664  0.045855  -0.166447
    H   H7   0.086212  0.791390  0.920105  0.109680
    H   H8   0.089870  0.792644  0.080446  0.110459
    C   C15  0.002665  0.996039  0.091885  0.058991
    C   C16  0.997694  0.993621  0.908086  0.059787
    C   C17  0.953726  0.110054  0.045400  -0.111535
    C   C18  0.951317  0.109030  0.954113  -0.170614
    H   H9   0.914157  0.198283  0.079864  0.096882
    H   H10  0.910515  0.197040  0.919518  0.119939
    O   O1   0.086368  0.663542  0.585308  -0.650392
    O   O2   0.913978  0.663939  0.414516  -0.642594
    O   O3   0.925297  0.658502  0.598209  -0.706198
    O   O4   0.075039  0.657725  0.401617  -0.703392
    C   C19  0.008490  0.713011  0.620883  0.751662
    C   C20  0.991987  0.712769  0.378883  0.737684
    O   O5   0.913370  0.325682  0.414657  -0.753162
    O   O6   0.086335  0.325289  0.585423  -0.749996
    O   O7   0.074853  0.330735  0.401774  -0.716400
    O   O8   0.924869  0.331514  0.598304  -0.712576
    C   C21  0.991483  0.276132  0.379253  0.884385
    C   C22  0.008095  0.276383  0.620889  0.879295
    Zn  Zn1  0.895529  0.495040  0.505646  1.087289
    Zn  Zn2  0.104500  0.494335  0.494306  1.091299
    C   C23  0.554890  0.450535  0.583573  -0.155699
    C   C24  0.445240  0.450511  0.416303  -0.160126
    C   C25  0.548337  0.412174  0.423513  -0.006369
    C   C26  0.451861  0.411719  0.576325  -0.011596
    H   H11  0.442596  0.287131  0.557618  -0.015275
    H   H12  0.557819  0.287575  0.442102  -0.017149
    H   H13  0.594522  0.342507  0.600377  0.066593
    H   H14  0.405791  0.342349  0.399394  0.067582
    H   H15  0.580915  0.431825  0.358756  -0.008826
    H   H16  0.419226  0.431019  0.641092  -0.007737
    H   H17  0.432272  0.537660  0.363176  0.011420
    H   H18  0.567714  0.537575  0.636785  0.010480
    N   N1   0.227760  0.494826  0.491410  -0.004897
    N   N2   0.772274  0.496156  0.508544  -0.002309
    C   C27  0.588549  0.515121  0.495754  0.597594
    C   C28  0.411472  0.514677  0.504180  0.595250
    C   C29  0.447674  0.684303  0.516629  0.000129
    C   C30  0.552095  0.684580  0.483442  -0.001795
    C   C31  0.308888  0.503610  0.497258  -0.247321
    C   C32  0.691139  0.504607  0.502685  -0.252596
    H   H19  0.601492  0.751474  0.525453  0.019842
    H   H20  0.398178  0.751124  0.474682  0.018950
    C   C33  0.556811  0.758958  0.390536  -0.077658
    C   C34  0.620268  0.719658  0.323922  0.202910
    C   C35  0.716735  0.661703  0.343811  -0.262253
    C   C36  0.605785  0.775138  0.238663  -0.233121
    C   C37  0.537094  0.883425  0.220267  -0.081737
    C   C38  0.488109  0.946906  0.288695  -0.150937
    C   C39  0.500177  0.888867  0.373083  -0.122466
    H   H21  0.721453  0.532604  0.342305  0.083785
    H   H22  0.742434  0.719846  0.404960  0.108488
    H   H23  0.764082  0.703428  0.291304  0.076211
    H   H24  0.652492  0.741355  0.186291  0.126044
    H   H25  0.528046  0.928888  0.153898  0.109123
    H   H26  0.440304  0.043106  0.276522  0.105767
    H   H27  0.464091  0.948968  0.425323  0.105321
    C   C40  0.442905  0.758402  0.609606  -0.079758
    C   C41  0.379547  0.718593  0.676192  0.219017
    C   C42  0.283147  0.660534  0.656189  -0.293710
    C   C43  0.393956  0.773831  0.761508  -0.244523
    C   C44  0.462493  0.882336  0.780011  -0.077822
    C   C45  0.511362  0.946268  0.711638  -0.153327
    C   C46  0.499347  0.888492  0.627184  -0.121936
    H   H28  0.278509  0.531424  0.657665  0.089372
    H   H29  0.257576  0.718680  0.595000  0.115571
    H   H30  0.235703  0.702213  0.708632  0.085571
    H   H31  0.347285  0.739698  0.813838  0.129399
    H   H32  0.471488  0.927609  0.846427  0.108581
    H   H33  0.559026  0.042627  0.723906  0.106436
    H   H34  0.535324  0.948932  0.574999  0.105605
