# Generated by REPEAT Assigner based on pymatgen
data_DB0-m2_o11_o22_f0_pcu.sym.48_sqe
_audit_creation_date              2022-05-24
_audit_creation_method            REPEAT_Assigner
_cell_length_a                    10.684416
_cell_length_b                    11.039864
_cell_length_c                    9.582710
_cell_angle_alpha                 90.020515
_cell_angle_beta                  90.011454
_cell_angle_gamma                 90.006247
_cell_volume                      1130.323669
_symmetry_space_group_name_H-M    P1
_symmetry_Int_Tables_number       1
loop_
    _symmetry_equiv_pos_site_id
    _symmetry_equiv_pos_as_xyz
    1  x,y,z
loop_
    _atom_site_type_symbol
    _atom_site_label
    _atom_site_fract_x
    _atom_site_fract_y
    _atom_site_fract_z
    _atom_type_partial_charge
    O   O1   0.502033  0.309129  0.609798  -0.703801
    O   O2   0.495718  0.313359  0.369809  -0.624539
    C   C1   0.499607  0.254651  0.489138  0.856032
    O   O3   0.314260  0.479225  0.611206  -0.612213
    O   O4   0.316537  0.492881  0.371380  -0.646686
    C   C2   0.256709  0.486632  0.490986  0.629281
    Cu  Cu1  0.495668  0.484383  0.634156  1.019738
    Cu  Cu2  0.498859  0.490034  0.355021  0.956262
    O   O5   0.498948  0.660880  0.619570  -0.650213
    O   O6   0.492950  0.665469  0.379623  -0.501847
    O   O7   0.677830  0.481945  0.617285  -0.533921
    O   O8   0.680377  0.495526  0.378034  -0.626621
    C   C3   0.495765  0.719862  0.500744  0.674652
    C   C4   0.737936  0.490247  0.498431  0.439139
    C   C5   0.070988  0.493973  0.643135  -0.202024
    H   H1   0.110291  0.575709  0.694248  0.068830
    H   H2   0.101490  0.413930  0.703612  0.061036
    C   C6   0.929463  0.501305  0.647566  0.042212
    H   H3   0.896083  0.422459  0.708860  0.036455
    H   H4   0.092581  0.683215  0.482217  0.014317
    H   H5   0.884099  0.680502  0.427455  -0.029748
    C   C7   0.068831  0.601780  0.419831  -0.116066
    C   C8   0.064554  0.379197  0.415698  0.173108
    C   C9   0.116765  0.488962  0.492505  0.144868
    H   H6   0.080862  0.392687  0.302459  -0.009468
    C   C10  0.878127  0.490944  0.498862  0.392917
    C   C11  0.927872  0.591931  0.404852  -0.008007
    C   C12  0.924281  0.371217  0.439425  -0.319560
    H   H7   0.901627  0.296550  0.512403  0.028978
    H   H8   0.877827  0.352270  0.338251  0.085147
    H   H9   0.111079  0.610906  0.314674  0.077399
    H   H10  0.906150  0.569424  0.294648  0.024425
    C   C13  0.494418  0.918131  0.386048  -0.087836
    C   C14  0.494701  0.852671  0.504337  -0.238509
    H   H11  0.494046  0.871684  0.286480  0.126389
    H   H12  0.493520  0.893880  0.606420  0.159244
    C   C15  0.493534  0.052326  0.380559  0.045367
    C   C16  0.501430  0.122120  0.493969  -0.378672
    H   H13  0.486831  0.094678  0.278832  0.101578
    H   H14  0.509526  0.083650  0.596967  0.171884
    C   C17  0.579956  0.432716  0.918051  0.097544
    N   N1   0.491710  0.477694  0.842802  -0.315156
    H   H15  0.664336  0.399175  0.868825  0.104183
    H   H16  0.406025  0.484692  0.890952  0.246614
    C   C18  0.566391  0.419969  0.071830  0.128506
    N   N2   0.500893  0.493988  0.146217  -0.195691
    H   H17  0.612989  0.344634  0.122357  0.083884
    C   C19  0.485218  0.612743  0.092609  0.647995
    O   O9   0.387832  0.667263  0.113937  -0.499542
    O   O10  0.583220  0.670794  0.024012  -0.530615
    H   H18  0.557118  0.755571  0.996366  0.388339
    C   C20  0.890557  0.613618  0.725180  0.548762
    O   O11  0.922392  0.625974  0.846578  -0.530848
    O   O12  0.813460  0.700533  0.664744  -0.489030
    H   H19  0.795701  0.767553  0.734045  0.371849
    C   C21  0.129066  0.264139  0.456197  0.583568
    O   O13  0.191840  0.210534  0.369770  -0.523409
    O   O14  0.116290  0.215859  0.589545  -0.556845
    H   H20  0.165434  0.137786  0.597209  0.400367
