# generated using pymatgen
data_ZnH11C18NO5
_symmetry_space_group_name_H-M   'P 1'
_cell_length_a   12.38322500
_cell_length_b   13.33950100
_cell_length_c   6.55663400
_cell_angle_alpha   90.00000000
_cell_angle_beta   80.11339900
_cell_angle_gamma   90.00000000
_symmetry_Int_Tables_number   1
_chemical_formula_structural   ZnH11C18NO5
_chemical_formula_sum   'Zn2 H22 C36 N2 O10'
_cell_volume   1066.98037937
_cell_formula_units_Z   2
loop_
 _symmetry_equiv_pos_site_id
 _symmetry_equiv_pos_as_xyz
  1  'x, y, z'
loop_
 _atom_site_type_symbol
 _atom_site_label
 _atom_site_symmetry_multiplicity
 _atom_site_fract_x
 _atom_site_fract_y
 _atom_site_fract_z
 _atom_site_occupancy
  Zn  Zn1  1  0.50291100  0.11082700  0.49043800  1
  Zn  Zn2  1  0.50701400  0.88634900  0.51811500  1
  H  H1  1  0.15592600  0.94196300  0.47814600  1
  H  H2  1  0.22746100  0.05024200  0.60722700  1
  H  H3  1  0.05347200  0.06149800  0.47682400  1
  H  H4  1  0.86007100  0.04431000  0.52884500  1
  H  H5  1  0.98357100  0.94744400  0.35587400  1
  H  H6  1  0.85068700  0.97281500  0.26434400  1
  H  H7  1  0.33699100  0.74708900  0.61958200  1
  H  H8  1  0.33060400  0.25187300  0.57299600  1
  H  H9  1  0.23599300  0.59229000  0.66006500  1
  H  H10  1  0.23331300  0.40796800  0.63851800  1
  H  H11  1  0.77408100  0.40501500  0.34898600  1
  H  H12  1  0.77686500  0.58904100  0.37164300  1
  H  H13  1  0.69596600  0.79257300  0.11785700  1
  H  H14  1  0.70300700  0.66026700  0.17494300  1
  H  H15  1  0.89158100  0.68322400  0.24910200  1
  H  H16  1  0.88141400  0.72337900  0.98924100  1
  H  H17  1  0.88464600  0.81551600  0.19093000  1
  H  H18  1  0.72644400  0.20069100  0.66787300  1
  H  H19  1  0.72784300  0.33337500  0.60949400  1
  H  H20  1  0.89492200  0.30974600  0.34425500  1
  H  H21  1  0.91627900  0.26770700  0.59690600  1
  H  H22  1  0.89364000  0.17710100  0.40295400  1
  C  C1  1  0.25154900  0.98336300  0.18910900  1
  C  C2  1  0.15486300  0.96162000  0.31875100  1
  C  C3  1  0.05660800  0.96573700  0.24826200  1
  C  C4  1  0.25041200  0.00513700  0.98380500  1
  C  C5  1  0.15141200  0.01199200  0.91423100  1
  C  C6  1  0.05376500  0.99345300  0.04603900  1
  C  C7  1  0.95526300  0.00013600  0.97211500  1
  C  C8  1  0.85584900  0.98554900  0.10102900  1
  C  C9  1  0.75873500  0.99233300  0.02640200  1
  C  C10  1  0.15098500  0.03587700  0.71003000  1
  C  C11  1  0.05343000  0.04185400  0.63664800  1
  C  C12  1  0.95573700  0.02379300  0.76711600  1
  C  C13  1  0.85853000  0.02886900  0.69116500  1
  C  C14  1  0.75959600  0.01239400  0.81972400  1
  C  C15  1  0.35107700  0.98912300  0.27914800  1
  C  C16  1  0.35090700  0.00434700  0.83011700  1
  C  C17  1  0.65977100  0.00772800  0.72872500  1
  C  C18  1  0.65813700  0.99296300  0.17807200  1
  C  C19  1  0.60338300  0.70452400  0.47508500  1
  C  C20  1  0.59774300  0.29169800  0.43162200  1
  C  C21  1  0.41253600  0.70550600  0.57871500  1
  C  C22  1  0.40672600  0.29264400  0.53274900  1
  C  C23  1  0.40985300  0.60227200  0.56941300  1
  C  C24  1  0.40674700  0.39594400  0.54354300  1
  C  C25  1  0.50583400  0.55002600  0.51153100  1
  C  C26  1  0.50423800  0.44714900  0.49803500  1
  C  C27  1  0.60332700  0.60121300  0.46571500  1
  C  C28  1  0.60024100  0.39492900  0.44020600  1
  C  C29  1  0.31164600  0.55134200  0.61482400  1
  C  C30  1  0.31011100  0.44801000  0.60229600  1
  C  C31  1  0.69842200  0.44585800  0.39469000  1
  C  C32  1  0.69996800  0.54913600  0.40725800  1
  C  C33  1  0.73180700  0.73596700  0.21048400  1
  C  C34  1  0.85562900  0.73975400  0.15633800  1
  C  C35  1  0.74944900  0.25770300  0.54513800  1
  C  C36  1  0.87172600  0.25275700  0.46708800  1
  N  N1  1  0.50854200  0.75487500  0.53124900  1
  N  N2  1  0.50165300  0.24232000  0.47788200  1
  O  O1  1  0.38853600  0.90589800  0.34670600  1
  O  O2  1  0.38680000  0.07834800  0.32008400  1
  O  O3  1  0.38569500  0.08913600  0.74058300  1
  O  O4  1  0.39057600  0.91642400  0.76509400  1
  O  O5  1  0.62142600  0.09110300  0.66268200  1
  O  O6  1  0.62310300  0.91882600  0.68911100  1
  O  O7  1  0.62429900  0.90813400  0.26866000  1
  O  O8  1  0.61943900  0.08084800  0.24421700  1
  O  O9  1  0.69945300  0.75592100  0.42092900  1
  O  O10  1  0.69342300  0.23928100  0.38171800  1
