data_DB0-m2_o12_o25_f0_pcu.sym.15_repeat
_audit_creation_date              2024-02-23
_audit_creation_method            'Materials Studio'
_symmetry_space_group_name_H-M    'P1'
_symmetry_Int_Tables_number       1
_symmetry_cell_setting            triclinic
loop_
_symmetry_equiv_pos_as_xyz
  x,y,z
_cell_length_a                    15.9385
_cell_length_b                    11.1260
_cell_length_c                    9.7539
_cell_angle_alpha                 111.6249
_cell_angle_beta                  99.5433
_cell_angle_gamma                 90.0053
loop_
_atom_site_label
_atom_site_type_symbol
_atom_site_fract_x
_atom_site_fract_y
_atom_site_fract_z
_atom_site_U_iso_or_equiv
_atom_site_adp_type
_atom_site_occupancy
O1     O     0.51076   0.33075   0.57941   0.00000  Uiso   1.00
O2     O     0.49081   0.66313   0.41809   0.00000  Uiso   1.00
O3     O     0.48176   0.29221   0.32753   0.00000  Uiso   1.00
O4     O     0.51978   0.70181   0.67094   0.00000  Uiso   1.00
C1     C     0.49478   0.25183   0.43919   0.00000  Uiso   1.00
C2     C     0.50681   0.74198   0.55877   0.00000  Uiso   1.00
O5     O     0.39012   0.51926   0.62209   0.00000  Uiso   1.00
O6     O     0.61144   0.48264   0.37792   0.00000  Uiso   1.00
O7     O     0.36678   0.48116   0.36976   0.00000  Uiso   1.00
O8     O     0.63475   0.52081   0.62994   0.00000  Uiso   1.00
C3     C     0.33916   0.49669   0.49412   0.00000  Uiso   1.00
C4     C     0.66224   0.49839   0.50406   0.00000  Uiso   1.00
Cu1    Cu    0.51420   0.51927   0.64573   0.00000  Uiso   1.00
Cu2    Cu    0.48716   0.47462   0.35218   0.00000  Uiso   1.00
C5     C     0.97964   0.40778   0.54714   0.00000  Uiso   1.00
C6     C     0.02197   0.59293   0.45255   0.00000  Uiso   1.00
C7     C     0.01904   0.39095   0.41124   0.00000  Uiso   1.00
C8     C     0.98254   0.60976   0.58847   0.00000  Uiso   1.00
H1     H     0.96121   0.32817   0.58117   0.00000  Uiso   1.00
H2     H     0.04032   0.67258   0.41852   0.00000  Uiso   1.00
H3     H     0.92213   0.45279   0.24623   0.00000  Uiso   1.00
H4     H     0.07948   0.54788   0.75346   0.00000  Uiso   1.00
C9     C     0.24895   0.49876   0.49323   0.00000  Uiso   1.00
C10    C     0.75255   0.49920   0.50566   0.00000  Uiso   1.00
C11    C     0.04359   0.52382   0.63808   0.00000  Uiso   1.00
C12    C     0.95801   0.47687   0.36161   0.00000  Uiso   1.00
C13    C     0.08206   0.50354   0.49942   0.00000  Uiso   1.00
C14    C     0.91954   0.49715   0.50028   0.00000  Uiso   1.00
C15    C     0.17348   0.50087   0.49504   0.00000  Uiso   1.00
C16    C     0.82807   0.49878   0.50433   0.00000  Uiso   1.00
H5     H     0.48588   0.86140   0.36533   0.00000  Uiso   1.00
H6     H     0.51583   0.13251   0.63266   0.00000  Uiso   1.00
C17    C     0.49103   0.11215   0.40593   0.00000  Uiso   1.00
C18    C     0.51064   0.88168   0.59205   0.00000  Uiso   1.00
C19    C     0.50299   0.06691   0.51639   0.00000  Uiso   1.00
C20    C     0.49873   0.92696   0.48162   0.00000  Uiso   1.00
H7     H     0.52357   0.94848   0.70786   0.00000  Uiso   1.00
H8     H     0.47810   0.04533   0.29011   0.00000  Uiso   1.00
H9     H     0.44726   0.40876   0.84135   0.00000  Uiso   1.00
H10    H     0.56453   0.56928   0.15346   0.00000  Uiso   1.00
N1     N     0.46727   0.44123   0.13285   0.00000  Uiso   1.00
N2     N     0.53451   0.55191   0.86488   0.00000  Uiso   1.00
C21    C     0.51068   0.50578   0.07970   0.00000  Uiso   1.00
C22    C     0.49253   0.48632   0.91879   0.00000  Uiso   1.00
O9     O     0.04160   0.27262   0.31518   0.00000  Uiso   1.00
H11    H     0.98715   0.21895   0.27249   0.00000  Uiso   1.00
O10    O     0.95998   0.72809   0.68455   0.00000  Uiso   1.00
H12    H     0.01446   0.78167   0.72749   0.00000  Uiso   1.00
O11    O     0.58354   0.65458   0.96462   0.00000  Uiso   1.00
H13    H     0.64217   0.62503   0.96709   0.00000  Uiso   1.00
O12    O     0.39242   0.38570   0.04730   0.00000  Uiso   1.00
H14    H     0.35326   0.45682   0.06735   0.00000  Uiso   1.00
