# Generated by REPEAT Assigner based on pymatgen
data_DB0-m9_o14_o22_f0_sra.sym.17
_audit_creation_date              2022-05-24
_audit_creation_method            REPEAT_Assigner
_cell_length_a                    6.375275
_cell_length_b                    13.457693
_cell_length_c                    15.532431
_cell_angle_alpha                 90.254631
_cell_angle_beta                  89.985962
_cell_angle_gamma                 90.006170
_cell_volume                      1332.614999
_symmetry_space_group_name_H-M    P1
_symmetry_Int_Tables_number       1
loop_
    _symmetry_equiv_pos_site_id
    _symmetry_equiv_pos_as_xyz
    1  x,y,z
loop_
    _atom_site_type_symbol
    _atom_site_label
    _atom_site_fract_x
    _atom_site_fract_y
    _atom_site_fract_z
    _atom_type_partial_charge
    O  O1   0.454211  0.457743  0.379830  -0.699644
    O  O2   0.828282  0.438534  0.612710  -0.650026
    O  O3   0.033352  0.602381  0.552777  -0.512938
    C  C1   0.657379  0.385253  0.612734  0.906112
    O  O4   0.741322  0.378247  0.441763  -0.609368
    O  O5   0.953496  0.543160  0.382968  -0.626107
    C  C2   0.607669  0.392245  0.376500  0.840512
    O  O6   0.533794  0.382803  0.545152  -0.585886
    O  O7   0.640566  0.570307  0.499119  -0.676642
    V  V1   0.914796  0.482812  0.497025  1.525234
    O  O8   0.239776  0.615158  0.451366  -0.544223
    C  C3   0.125352  0.598605  0.380855  0.876699
    O  O9   0.327044  0.540364  0.616679  -0.659962
    C  C4   0.158760  0.595248  0.619622  0.533781
    V  V2   0.415065  0.506692  0.498235  1.644791
    O  O10  0.140527  0.419508  0.493096  -0.610817
    C  C5   0.953390  0.666016  0.741249  0.079886
    H  H1   0.818213  0.681772  0.698507  -0.018753
    C  C6   0.957290  0.742780  0.813365  -0.244824
    H  H2   0.957123  0.705479  0.876806  0.020542
    H  H3   0.815736  0.790334  0.808575  0.005940
    H  H4   0.023479  0.784788  0.603484  -0.004451
    H  H5   0.007323  0.900268  0.709217  0.023725
    C  C7   0.159625  0.775830  0.647205  0.061546
    C  C8   0.343839  0.662335  0.744987  -0.354007
    C  C9   0.152516  0.673844  0.688086  0.199452
    H  H6   0.486796  0.669790  0.704854  0.121179
    H  H7   0.344223  0.587754  0.774856  0.147350
    C  C10  0.151763  0.807119  0.804908  0.445913
    C  C11  0.151960  0.855392  0.716880  -0.167053
    C  C12  0.345416  0.742775  0.813589  -0.025196
    H  H8   0.348807  0.708580  0.878364  0.002164
    H  H9   0.487129  0.789594  0.805451  0.070887
    H  H10  0.306994  0.783483  0.609862  -0.003368
    H  H11  0.291042  0.904381  0.710892  0.023652
    H  H12  0.814084  0.765752  0.159217  0.174172
    C  C13  0.488533  0.850130  0.209958  -0.247468
    H  H13  0.487392  0.902934  0.158063  0.179021
    C  C14  0.667036  0.837936  0.258729  -0.097516
    H  H14  0.805222  0.881735  0.245263  0.109569
    C  C15  0.670586  0.768599  0.323604  -0.099405
    H  H15  0.811433  0.758077  0.361208  0.175545
    C  C16  0.495124  0.712073  0.340313  -0.325896
    H  H16  0.503179  0.656660  0.390037  0.179526
    C  C17  0.313492  0.726075  0.293261  0.325242
    C  C18  0.311446  0.794993  0.227181  0.056834
    C  C19  0.130720  0.810641  0.179885  -0.018675
    C  C20  0.954356  0.755109  0.197145  -0.176929
    H  H17  0.818133  0.641482  0.274246  0.144843
    C  C21  0.957439  0.684703  0.261248  -0.022383
    C  C22  0.134662  0.671093  0.310747  -0.429456
    H  H18  0.963593  0.259958  0.653315  0.071666
    C  C23  0.289561  0.342426  0.706423  -0.368666
    H  H19  0.292001  0.398207  0.656870  0.134080
    C  C24  0.110825  0.328329  0.754668  0.497150
    H  H20  0.973418  0.373343  0.743007  0.044851
    C  C25  0.106027  0.255485  0.816569  -0.353531
    H  H21  0.965007  0.243500  0.853764  0.173983
    C  C26  0.280564  0.197496  0.830966  -0.213137
    H  H22  0.270884  0.139178  0.878078  0.164274
    C  C27  0.462859  0.213572  0.784749  0.085702
    C  C28  0.465710  0.285799  0.721450  0.152944
    C  C29  0.646721  0.303925  0.675227  -0.177966
    C  C30  0.822777  0.247176  0.690415  -0.124291
    H  H23  0.959201  0.130531  0.764248  0.153388
    C  C31  0.819356  0.173652  0.752060  -0.081295
    C  C32  0.641721  0.158005  0.800978  -0.156654
    H  H24  0.919298  0.274531  0.331837  0.128856
    C  C33  0.237284  0.349387  0.267548  -0.194360
    H  H25  0.209580  0.398551  0.320729  0.114424
    C  C34  0.070322  0.333848  0.212806  -0.121290
    H  H26  0.925182  0.373725  0.222984  0.105451
    C  C35  0.087337  0.268037  0.145434  -0.040612
    H  H27  0.956485  0.256396  0.102301  0.101815
    C  C36  0.270548  0.216022  0.133828  -0.235394
    H  H28  0.282605  0.164776  0.080424  0.063788
    C  C37  0.439027  0.230985  0.188285  0.182230
    C  C38  0.427100  0.300560  0.254433  0.165211
    C  C39  0.602822  0.317232  0.306642  -0.253577
    C  C40  0.783019  0.262411  0.291742  -0.033440
    H  H29  0.933014  0.149531  0.216475  0.154109
    C  C41  0.792114  0.192867  0.226045  -0.202126
    C  C42  0.619103  0.176196  0.174869  -0.046968
    O  O11  0.821200  0.030346  0.876354  -0.573153
    O  O12  0.446708  0.040903  0.109651  -0.560533
    O  O13  0.241022  0.879639  0.045445  -0.466903
    C  C43  0.615801  0.095299  0.111131  0.518817
    O  O14  0.535877  0.105987  0.941667  -0.453920
    O  O15  0.321860  0.943448  0.876762  -0.628992
    C  C44  0.650344  0.086463  0.872013  0.609238
    O  O16  0.741471  0.099263  0.044066  -0.406522
    O  O17  0.634710  0.913070  0.991972  -0.669090
    V  V3   0.360172  0.000248  0.992703  1.600603
    O  O18  0.035062  0.869366  0.943117  -0.407264
    C  C45  0.154317  0.884962  0.874029  0.391664
    O  O19  0.947385  0.939646  0.110491  -0.502078
    C  C46  0.119714  0.887485  0.113382  0.503450
    V  V4   0.860229  0.976745  0.992990  1.374603
    O  O20  0.134888  0.063987  0.990499  -0.561289
    C  C47  0.928271  0.563818  0.776864  0.561278
    O  O21  0.796815  0.508424  0.745926  -0.540414
    C  C48  0.057064  0.529149  0.851041  -0.375368
    H  H30  0.158854  0.466804  0.829966  0.024323
    H  H31  0.951285  0.503103  0.902945  0.099731
    H  H32  0.155095  0.590363  0.876613  0.108079
