# Generated by REPEAT Assigner based on pymatgen
data_DB0-m3_o8_o27_f0_pcu.sym.58
_audit_creation_date              2022-05-24
_audit_creation_method            REPEAT_Assigner
_cell_length_a                    15.904030
_cell_length_b                    17.101961
_cell_length_c                    19.359630
_cell_angle_alpha                 89.999229
_cell_angle_beta                  92.701804
_cell_angle_gamma                 89.120109
_cell_volume                      5259.152536
_symmetry_space_group_name_H-M    P1
_symmetry_Int_Tables_number       1
loop_
    _symmetry_equiv_pos_site_id
    _symmetry_equiv_pos_as_xyz
    1  x,y,z
loop_
    _atom_site_type_symbol
    _atom_site_label
    _atom_site_fract_x
    _atom_site_fract_y
    _atom_site_fract_z
    _atom_type_partial_charge
    O   O1   0.420249  0.613711  0.498135  -0.715069
    O   O2   0.579663  0.386559  0.501971  -0.715377
    O   O3   0.565024  0.619297  0.506303  -0.651722
    O   O4   0.434889  0.380973  0.493802  -0.651176
    C   C1   0.490355  0.653103  0.502791  0.836150
    C   C2   0.509558  0.347168  0.497315  0.835162
    O   O5   0.426845  0.494750  0.598850  -0.574784
    O   O6   0.573067  0.505520  0.401256  -0.574396
    O   O7   0.571520  0.499767  0.606917  -0.660482
    O   O8   0.428392  0.500504  0.393189  -0.660778
    C   C3   0.498416  0.495434  0.635354  0.637780
    C   C4   0.501497  0.504836  0.364751  0.636961
    Zn  Zn1  0.404511  0.496435  0.495002  1.040362
    Zn  Zn2  0.595401  0.503835  0.505104  1.040227
    C   C5   0.430095  0.462481  0.746103  -0.021894
    C   C6   0.569818  0.537788  0.254002  -0.022483
    C   C7   0.430826  0.465815  0.817408  0.168496
    C   C8   0.569087  0.534454  0.182697  0.169554
    H   H1   0.378313  0.441888  0.843325  -0.013767
    H   H2   0.621600  0.558380  0.156780  -0.014047
    C   C9   0.498484  0.496565  0.855056  -0.553197
    C   C10  0.501427  0.503705  0.145049  -0.556247
    C   C11  0.565900  0.524450  0.820579  0.178520
    C   C12  0.434011  0.475822  0.179526  0.180158
    H   H3   0.619812  0.548793  0.848447  0.015372
    H   H4   0.380098  0.451480  0.151659  0.015451
    C   C13  0.565216  0.522342  0.749440  -0.218059
    C   C14  0.434695  0.477929  0.250666  -0.219720
    H   H5   0.618096  0.546183  0.723909  0.135462
    H   H6   0.381815  0.454090  0.276197  0.135822
    C   C15  0.497408  0.492361  0.711342  0.012821
    C   C16  0.502504  0.507909  0.288764  0.014740
    N   N1   0.565700  0.527485  0.967443  -0.356403
    N   N2   0.434211  0.472786  0.032662  -0.357560
    N   N3   0.566435  0.529086  0.035731  -0.316872
    N   N4   0.433476  0.471186  0.964375  -0.316289
    C   C17  0.500708  0.501747  0.069200  0.913070
    C   C18  0.499203  0.498524  0.930905  0.910400
    C   C19  0.484868  0.738761  0.502902  -0.286074
    C   C20  0.515044  0.261509  0.497206  -0.284560
    C   C21  0.557126  0.782729  0.507425  0.004748
    C   C22  0.442787  0.217542  0.492681  0.004475
    C   C23  0.552157  0.863339  0.506189  -0.179209
    C   C24  0.447756  0.136931  0.493920  -0.179942
    C   C25  0.474106  0.900861  0.500498  0.469124
    C   C26  0.525807  0.099410  0.499614  0.469581
    C   C27  0.402230  0.856779  0.496488  -0.380779
    C   C28  0.597683  0.143492  0.503627  -0.380771
    C   C29  0.407283  0.776304  0.497618  0.110651
    C   C30  0.592630  0.223967  0.502494  0.109611
    N   N5   0.465545  0.983311  0.498539  -0.231679
    N   N6   0.534368  0.016960  0.501575  -0.231412
    H   H7   0.381379  0.245482  0.488284  0.096499
    H   H8   0.618534  0.754788  0.511819  0.096475
    H   H9   0.389259  0.105515  0.490384  0.061417
    H   H10  0.610655  0.894755  0.509723  0.061098
    H   H11  0.341284  0.885664  0.492118  0.140209
    H   H12  0.658629  0.114607  0.508000  0.140073
    H   H13  0.349707  0.743522  0.494016  0.083816
    H   H14  0.650206  0.256749  0.506098  0.084384
    N   N7   0.721022  0.508823  0.510690  -0.121094
    N   N8   0.278891  0.491448  0.489415  -0.122423
    C   C31  0.765492  0.464060  0.467894  0.063361
    C   C32  0.234420  0.536212  0.532210  0.064915
    C   C33  0.852181  0.466861  0.469721  -0.145579
    C   C34  0.147732  0.533410  0.530384  -0.147360
    C   C35  0.893613  0.516392  0.516166  0.451777
    C   C36  0.106299  0.483878  0.483940  0.453367
    C   C37  0.846660  0.561793  0.559264  -0.323795
    C   C38  0.153252  0.438475  0.440844  -0.325696
    C   C39  0.760112  0.557481  0.555897  0.067057
    C   C40  0.239801  0.442787  0.444211  0.068942
    N   N9   0.982339  0.522084  0.520707  -0.215362
    N   N10  0.017574  0.478185  0.479400  -0.215137
    H   H15  0.266853  0.574530  0.568608  0.106895
    H   H16  0.733059  0.425744  0.431495  0.107098
    H   H17  0.115079  0.570395  0.565979  0.079165
    H   H18  0.884833  0.429878  0.434124  0.078761
    H   H19  0.877773  0.600974  0.595682  0.152366
    H   H20  0.122140  0.399292  0.404427  0.152799
    H   H21  0.723560  0.593437  0.589666  0.136541
    H   H22  0.276353  0.406830  0.410443  0.136076
    C   C41  0.358954  0.423815  0.710235  0.046620
    C   C42  0.278244  0.452976  0.716464  -0.074602
    C   C43  0.211153  0.417180  0.682456  -0.122864
    C   C44  0.224409  0.351653  0.642743  0.100166
    Cl  Cl1  0.139247  0.306696  0.599063  -0.113895
    C   C45  0.304682  0.321376  0.637630  -0.148526
    C   C46  0.371849  0.357101  0.671584  -0.111007
    H   H23  0.267579  0.504812  0.746974  0.092241
    H   H24  0.148164  0.440805  0.686586  0.092276
    H   H25  0.314973  0.269613  0.606969  0.117907
    H   H26  0.434678  0.333072  0.667440  0.128389
    C   C47  0.640960  0.576452  0.289870  0.045760
    C   C48  0.628069  0.643167  0.328519  -0.110664
    C   C49  0.695237  0.678891  0.362472  -0.147991
    C   C50  0.775509  0.648610  0.357359  0.100293
    Cl  Cl2  0.860673  0.693565  0.401039  -0.113725
    C   C51  0.788762  0.583082  0.317647  -0.123273
    C   C52  0.721669  0.547287  0.283641  -0.073982
    H   H27  0.565241  0.667199  0.332663  0.128345
    H   H28  0.684949  0.730656  0.393132  0.117519
    H   H29  0.851750  0.559455  0.313518  0.092104
    H   H30  0.732332  0.495450  0.253132  0.092309
