# generated using pymatgen
data_ZnH9C24N3O8
_symmetry_space_group_name_H-M   'P 1'
_cell_length_a   15.74726900
_cell_length_b   10.77528900
_cell_length_c   13.31231700
_cell_angle_alpha   90.00000000
_cell_angle_beta   95.87556100
_cell_angle_gamma   90.00000000
_symmetry_Int_Tables_number   1
_chemical_formula_structural   ZnH9C24N3O8
_chemical_formula_sum   'Zn2 H18 C48 N6 O16'
_cell_volume   2246.98552754
_cell_formula_units_Z   2
loop_
 _symmetry_equiv_pos_site_id
 _symmetry_equiv_pos_as_xyz
  1  'x, y, z'
loop_
 _atom_site_type_symbol
 _atom_site_label
 _atom_site_symmetry_multiplicity
 _atom_site_fract_x
 _atom_site_fract_y
 _atom_site_fract_z
 _atom_site_occupancy
  Zn  Zn1  1  0.49383700  0.47858200  0.88776300  1
  Zn  Zn2  1  0.50619200  0.51547600  0.11132100  1
  H  H1  1  0.98942100  0.80599800  0.90560800  1
  H  H2  1  0.01062700  0.18814700  0.09461500  1
  H  H3  1  0.36577600  0.90117900  0.00928100  1
  H  H4  1  0.63437400  0.09323200  0.98816200  1
  H  H5  1  0.63837500  0.90412700  0.03305300  1
  H  H6  1  0.36091600  0.09029300  0.96373700  1
  H  H7  1  0.22205900  0.58134200  0.92738900  1
  H  H8  1  0.77770300  0.41194300  0.07464200  1
  H  H9  1  0.76183500  0.58557300  0.93727800  1
  H  H10  1  0.23965000  0.40698300  0.06681800  1
  H  H11  1  0.09279200  0.68983700  0.93374400  1
  H  H12  1  0.90704500  0.30368400  0.06906400  1
  H  H13  1  0.89239100  0.69158400  0.93938700  1
  H  H14  1  0.10916300  0.30142800  0.06548100  1
  H  H15  1  0.37879400  0.52658500  0.22825100  1
  H  H16  1  0.62126800  0.46095900  0.77031700  1
  H  H17  1  0.28355300  0.48193300  0.54886200  1
  H  H18  1  0.71616700  0.52328400  0.45084300  1
  C  C1  1  0.07500900  0.93752300  0.97726400  1
  C  C2  1  0.92513200  0.05639600  0.02325900  1
  C  C3  1  0.92054300  0.93849600  0.98283000  1
  C  C4  1  0.07969500  0.05537400  0.01784500  1
  C  C5  1  0.99482900  0.88467000  0.95444900  1
  C  C6  1  0.00533800  0.10926700  0.04611200  1
  C  C7  1  0.22878400  0.93210000  0.98212300  1
  C  C8  1  0.77122800  0.06192500  0.01700900  1
  C  C9  1  0.76911400  0.93435100  0.99893800  1
  C  C10  1  0.23092600  0.05964200  0.00030500  1
  C  C11  1  0.30391900  0.86239200  0.98544700  1
  C  C12  1  0.69611500  0.13177000  0.01290100  1
  C  C13  1  0.69495400  0.86517000  0.00639200  1
  C  C14  1  0.30485200  0.12898700  0.99185900  1
  C  C15  1  0.30139100  0.73725900  0.96489800  1
  C  C16  1  0.69853800  0.25665800  0.03433200  1
  C  C17  1  0.69258400  0.74078800  0.98347400  1
  C  C18  1  0.30765300  0.25300600  0.01603400  1
  C  C19  1  0.22441400  0.68022200  0.94098500  1
  C  C20  1  0.77539100  0.31330500  0.05994300  1
  C  C21  1  0.76338000  0.68375500  0.95395900  1
  C  C22  1  0.23765400  0.30927300  0.04837600  1
  C  C23  1  0.14979000  0.74526800  0.94351000  1
  C  C24  1  0.85008800  0.24832600  0.05781900  1
  C  C25  1  0.83841400  0.74757700  0.95353400  1
  C  C26  1  0.16257400  0.24561500  0.04911700  1
  C  C27  1  0.15039200  0.87213300  0.96506800  1
  C  C28  1  0.84962700  0.12170700  0.03524400  1
  C  C29  1  0.84291700  0.87397900  0.97609600  1
  C  C30  1  0.15746200  0.11972200  0.02467400  1
  C  C31  1  0.38328300  0.32880600  0.00822900  1
  C  C32  1  0.61682800  0.66513900  0.99090400  1
  C  C33  1  0.62163200  0.33344100  0.02182300  1
  C  C34  1  0.37835900  0.66058400  0.97730000  1
  C  C35  1  0.58471100  0.52819600  0.30728900  1
  C  C36  1  0.41521100  0.46877600  0.69194000  1
  C  C37  1  0.43548800  0.52891700  0.28051600  1
  C  C38  1  0.56445100  0.46785100  0.71856100  1
  C  C39  1  0.42883000  0.51940900  0.38318300  1
  C  C40  1  0.57096000  0.48706000  0.61674100  1
  C  C41  1  0.50221900  0.51051300  0.44862400  1
  C  C42  1  0.49755200  0.49377400  0.55112900  1
  C  C43  1  0.58046500  0.51735300  0.41086300  1
  C  C44  1  0.41935100  0.48290800  0.58851700  1
  C  C45  1  0.34978700  0.51128000  0.42073400  1
  C  C46  1  0.64988600  0.49957400  0.57953900  1
  C  C47  1  0.34574400  0.48956000  0.52224700  1
  C  C48  1  0.65404000  0.51270600  0.47718100  1
  N  N1  1  0.51207500  0.53181100  0.24344400  1
  N  N2  1  0.48791000  0.46253100  0.75560000  1
  N  N3  1  0.66577500  0.53104600  0.26846400  1
  N  N4  1  0.33421100  0.46243800  0.73074200  1
  N  N5  1  0.27173000  0.52644200  0.35705500  1
  N  N6  1  0.72771800  0.50175000  0.64480500  1
  O  O1  1  0.41457000  0.38670200  0.09030400  1
  O  O2  1  0.58556200  0.60722400  0.90880100  1
  O  O3  1  0.58879500  0.35990700  0.92968000  1
  O  O4  1  0.41116700  0.63400900  0.06937600  1
  O  O5  1  0.40822400  0.35042900  0.91853600  1
  O  O6  1  0.59179400  0.64359500  0.08051100  1
  O  O7  1  0.59569400  0.38530500  0.10247200  1
  O  O8  1  0.40435300  0.60876700  0.89669600  1
  O  O9  1  0.70248500  0.63771800  0.25799100  1
  O  O10  1  0.71216500  0.43091200  0.27271300  1
  O  O11  1  0.28651300  0.56118300  0.72856200  1
  O  O12  1  0.29918000  0.35436900  0.74037500  1
  O  O13  1  0.26041700  0.62517800  0.30102800  1
  O  O14  1  0.20540200  0.46140500  0.37508600  1
  O  O15  1  0.73795900  0.58453500  0.71612200  1
  O  O16  1  0.79487000  0.44775200  0.61568600  1
