# Generated by REPEAT Assigner based on pymatgen
data_DB0-m3_o113_o23_f0_fsc.sym.29_sqe
_audit_creation_date              2022-05-24
_audit_creation_method            REPEAT_Assigner
_cell_length_a                    12.369219
_cell_length_b                    14.249698
_cell_length_c                    6.549303
_cell_angle_alpha                 90.000000
_cell_angle_beta                  80.113527
_cell_angle_gamma                 90.000000
_cell_volume                      1137.222154
_symmetry_space_group_name_H-M    P1
_symmetry_Int_Tables_number       1
loop_
    _symmetry_equiv_pos_site_id
    _symmetry_equiv_pos_as_xyz
    1  x,y,z
loop_
    _atom_site_type_symbol
    _atom_site_label
    _atom_site_fract_x
    _atom_site_fract_y
    _atom_site_fract_z
    _atom_type_partial_charge
    C   C1   0.247810  0.982933  0.184118  -0.044817
    C   C2   0.151058  0.963115  0.314670  -0.125967
    C   C3   0.052531  0.968356  0.245320  -0.230176
    C   C4   0.246573  0.004262  0.978958  -0.212506
    C   C5   0.147203  0.010930  0.910031  0.064553
    C   C6   0.049882  0.994085  0.042723  0.170231
    C   C7   0.951869  0.000778  0.968005  -0.189936
    C   C8   0.852215  0.987334  0.096221  -0.076536
    C   C9   0.755376  0.994248  0.020789  -0.064488
    C   C10  0.145450  0.032783  0.705654  0.038553
    N   N1   0.049510  0.038024  0.635272  -0.495139
    C   C11  0.953401  0.022687  0.762336  0.549356
    C   C12  0.856185  0.028315  0.685641  -0.396897
    C   C13  0.756655  0.013895  0.814084  -0.061205
    H   H1   0.152258  0.944288  0.473944  0.139047
    H   H2   0.221682  0.046003  0.601523  0.162665
    H   H3   0.858175  0.042649  0.522991  0.166523
    H   H4   0.979307  0.951938  0.353448  0.138854
    H   H5   0.846710  0.974931  0.259608  0.103329
    O   O1   0.385664  0.910898  0.341059  -0.775825
    O   O2   0.382311  0.072373  0.315070  -0.743258
    C   C14  0.347322  0.988633  0.274128  0.928970
    O   O3   0.381504  0.083487  0.735102  -0.714265
    O   O4   0.387610  0.921963  0.760066  -0.696327
    C   C15  0.347332  0.004048  0.825210  0.825367
    O   O5   0.617470  0.087127  0.657023  -0.710644
    O   O6   0.620695  0.925928  0.682890  -0.733777
    C   C16  0.656706  0.009313  0.722742  0.909020
    O   O7   0.621358  0.914695  0.262845  -0.650386
    O   O8   0.615215  0.076457  0.237885  -0.654887
    C   C17  0.654640  0.994317  0.172199  0.725974
    Zn  Zn1  0.498599  0.104171  0.484407  1.081576
    Zn  Zn2  0.504390  0.894059  0.512991  1.103982
    C   C18  0.568175  0.449970  0.288310  0.344701
    C   C19  0.559235  0.555980  0.291960  0.146697
    C   C20  0.547563  0.440107  0.669756  0.010268
    C   C21  0.563362  0.545481  0.666477  -0.291327
    H   H6   0.490796  0.419625  0.812790  0.024891
    H   H7   0.529950  0.574834  0.821290  0.127893
    H   H8   0.627922  0.405087  0.666336  0.087837
    H   H9   0.652034  0.562152  0.625982  0.073204
    N   N2   0.506880  0.771027  0.523527  -0.038325
    N   N3   0.495624  0.227007  0.466821  -0.040404
    C   C22  0.498919  0.410680  0.482449  0.243064
    C   C23  0.503590  0.587398  0.505202  0.497219
    C   C24  0.385739  0.553594  0.543681  -0.189199
    C   C25  0.383536  0.449108  0.502442  -0.110557
    C   C26  0.505814  0.689893  0.517155  -0.089051
    C   C27  0.496648  0.308166  0.471432  -0.066699
    H   H10  0.352187  0.436294  0.356103  0.030839
    H   H11  0.338545  0.590868  0.439043  0.068373
    H   H12  0.329402  0.413971  0.632617  0.082757
    H   H13  0.348618  0.567833  0.707187  0.061752
    H   H14  0.538526  0.422347  0.149538  -0.001283
    H   H15  0.509958  0.579374  0.174989  -0.026214
    O   O9   0.662125  0.594427  0.247842  -0.399181
    C   C28  0.688959  0.650950  0.082237  0.756931
    O   O10  0.621686  0.668006  0.971392  -0.484855
    C   C29  0.800839  0.692642  0.034456  -0.544038
    H   H16  0.849882  0.669185  0.151757  0.130831
    H   H17  0.794451  0.770274  0.037646  0.176392
    H   H18  0.841521  0.669514  0.878395  0.162013
    O   O11  0.675435  0.424239  0.281677  -0.469706
    C   C30  0.727220  0.372884  0.121803  0.806245
    O   O12  0.678675  0.349343  0.983070  -0.556790
    C   C31  0.843775  0.344800  0.114405  -0.523203
    H   H19  0.873544  0.372518  0.252963  0.128934
    H   H20  0.894588  0.373802  0.972417  0.156394
    H   H21  0.849993  0.267155  0.112308  0.182633
