# generated using pymatgen
data_Fe2H15C41O16F3
_symmetry_space_group_name_H-M   'P 1'
_cell_length_a   13.29572300
_cell_length_b   11.92732300
_cell_length_c   13.17553900
_cell_angle_alpha   91.08239600
_cell_angle_beta   100.64546800
_cell_angle_gamma   110.67116500
_symmetry_Int_Tables_number   1
_chemical_formula_structural   Fe2H15C41O16F3
_chemical_formula_sum   'Fe2 H15 C41 O16 F3'
_cell_volume   1913.19761939
_cell_formula_units_Z   1
loop_
 _symmetry_equiv_pos_site_id
 _symmetry_equiv_pos_as_xyz
  1  'x, y, z'
loop_
 _atom_site_type_symbol
 _atom_site_label
 _atom_site_symmetry_multiplicity
 _atom_site_fract_x
 _atom_site_fract_y
 _atom_site_fract_z
 _atom_site_occupancy
  Fe  Fe1  1  0.48063300  0.98190000  0.20411200  1
  Fe  Fe2  1  0.48004200  0.97578700  0.78623100  1
  H  H1  1  0.10877400  0.01089600  0.74040100  1
  H  H2  1  0.76975400  0.01442400  0.80230600  1
  H  H3  1  0.21475100  0.02217100  0.19365600  1
  H  H4  1  0.06491800  0.02244400  0.26826000  1
  H  H5  1  0.88531500  0.01669500  0.25253400  1
  H  H6  1  0.44321900  0.40236500  0.71382100  1
  H  H7  1  0.51581800  0.60936200  0.75479800  1
  H  H8  1  0.36754400  0.36349400  0.30869400  1
  H  H9  1  0.44902500  0.54695700  0.24039700  1
  H  H10  1  0.55504800  0.12735500  0.51353200  1
  H  H11  1  0.45763700  0.84664900  0.48917500  1
  H  H12  1  0.58892300  0.44359100  0.76503400  1
  H  H13  1  0.64003300  0.62894000  0.70912900  1
  H  H14  1  0.47737300  0.35649200  0.24916300  1
  H  H15  1  0.58723700  0.56291300  0.30455700  1
  C  C1  1  0.20967800  0.01242700  0.88349100  1
  C  C2  1  0.11390000  0.01374600  0.82283500  1
  C  C3  1  0.02640300  0.01481700  0.86592700  1
  C  C4  1  0.92981200  0.01687900  0.80432600  1
  C  C5  1  0.84313100  0.01245600  0.85042100  1
  C  C6  1  0.22005600  0.01482700  0.99023600  1
  C  C7  1  0.13260300  0.01525400  0.03452300  1
  C  C8  1  0.03576500  0.01434400  0.97239700  1
  C  C9  1  0.94877800  0.01367000  0.01734700  1
  C  C10  1  0.85083100  0.00913600  0.95658800  1
  C  C11  1  0.76099300  0.99932100  0.00192000  1
  C  C12  1  0.14169900  0.01949900  0.14123600  1
  C  C13  1  0.05586300  0.01995300  0.18492300  1
  C  C14  1  0.95912500  0.01572600  0.12334200  1
  C  C15  1  0.87344200  0.01374000  0.16906400  1
  C  C16  1  0.77298900  0.00359600  0.10975800  1
  C  C17  1  0.68391500  0.99975400  0.16457500  1
  C  C18  1  0.48049300  0.77577000  0.30903400  1
  C  C19  1  0.32496000  0.02488800  0.05625200  1
  C  C20  1  0.48587300  0.16560100  0.33156700  1
  C  C21  1  0.50829100  0.80339000  0.67263600  1
  C  C22  1  0.65219400  0.97052800  0.93528700  1
  C  C23  1  0.53505400  0.19735400  0.69354600  1
  C  C24  1  0.29789600  0.00914500  0.83127100  1
  C  C25  1  0.54851900  0.21508200  0.51433200  1
  C  C26  1  0.54619900  0.27255200  0.60517400  1
  C  C27  1  0.53706100  0.38596500  0.60277500  1
  C  C28  1  0.52671200  0.44745300  0.69825100  1
  C  C29  1  0.54979500  0.58040600  0.69274000  1
  C  C30  1  0.52505300  0.25632600  0.42024600  1
  C  C31  1  0.50829700  0.36430500  0.41616200  1
  C  C32  1  0.52039000  0.43245500  0.50725500  1
  C  C33  1  0.50064500  0.54608300  0.50034700  1
  C  C34  1  0.50276400  0.61016100  0.59006800  1
  C  C35  1  0.48216400  0.71601500  0.58344700  1
  C  C36  1  0.45794500  0.39663100  0.31601100  1
  C  C37  1  0.49976600  0.53091600  0.31109700  1
  C  C38  1  0.48868600  0.59409100  0.40497400  1
  C  C39  1  0.47522900  0.70495700  0.40025900  1
  C  C40  1  0.46521900  0.75946900  0.48901900  1
  C  C41  1  0.91726700  0.02461700  0.68873200  1
  O  O1  1  0.58396500  0.98168300  0.11361500  1
  O  O2  1  0.53318600  0.76273800  0.23743000  1
  O  O3  1  0.70501600  0.01496400  0.26625300  1
  O  O4  1  0.44794300  0.86760000  0.31121200  1
  O  O5  1  0.33149600  0.93685300  0.11213900  1
  O  O6  1  0.41191700  0.12285000  0.06095400  1
  O  O7  1  0.55464500  0.14708000  0.27930400  1
  O  O8  1  0.38977600  0.08027000  0.32547200  1
  O  O9  1  0.43204600  0.80610500  0.72258800  1
  O  O10  1  0.59457800  0.90173300  0.67818100  1
  O  O11  1  0.62806500  0.05181300  0.88039200  1
  O  O12  1  0.58061100  0.86003800  0.92572000  1
  O  O13  1  0.30201100  0.05005700  0.73986000  1
  O  O14  1  0.49618600  0.08025300  0.67071300  1
  O  O15  1  0.36883000  0.96013700  0.87178400  1
  O  O16  1  0.55948300  0.24169000  0.79057500  1
  F  F1  1  0.99915400  0.12618200  0.66834300  1
  F  F2  1  0.81751700  0.03268600  0.64522700  1
  F  F3  1  0.92298600  0.92286700  0.64188200  1
