# Generated by REPEAT Assigner based on pymatgen
data_DB0-m3_o96_o25_f0_fsc.sym.5_sqe
_audit_creation_date              2022-05-24
_audit_creation_method            REPEAT_Assigner
_cell_length_a                    12.977161
_cell_length_b                    13.586912
_cell_length_c                    16.010487
_cell_angle_alpha                 94.512659
_cell_angle_beta                  90.045661
_cell_angle_gamma                 90.619354
_cell_volume                      2814.042378
_symmetry_space_group_name_H-M    P1
_symmetry_Int_Tables_number       1
loop_
    _symmetry_equiv_pos_site_id
    _symmetry_equiv_pos_as_xyz
    1  x,y,z
loop_
    _atom_site_type_symbol
    _atom_site_label
    _atom_site_fract_x
    _atom_site_fract_y
    _atom_site_fract_z
    _atom_type_partial_charge
    C   C1   0.826725  0.068571  0.221671  -0.041020
    C   C2   0.173276  0.931429  0.778329  -0.040902
    C   C3   0.773289  0.124795  0.169950  -0.023347
    C   C4   0.226712  0.875205  0.830050  -0.023488
    C   C5   0.823293  0.115346  0.092967  0.363045
    C   C6   0.176708  0.884654  0.907033  0.363320
    N   N1   0.909192  0.060784  0.099182  -0.508334
    N   N2   0.090808  0.939216  0.900818  -0.508377
    C   C7   0.912207  0.034039  0.178703  0.405529
    C   C8   0.087794  0.965961  0.821298  0.405241
    C   C9   0.785365  0.142781  0.020510  -0.432181
    C   C10  0.214636  0.857219  0.979491  -0.432521
    C   C11  0.822806  0.107388  0.936815  0.195982
    C   C12  0.177195  0.892612  0.063185  0.196409
    C   C13  0.761985  0.097471  0.865622  0.029953
    C   C14  0.238016  0.902529  0.134378  0.029778
    C   C15  0.821057  0.057697  0.801772  0.090044
    C   C16  0.178944  0.942303  0.198228  0.090036
    C   C17  0.918461  0.045705  0.835039  0.131665
    C   C18  0.081539  0.954295  0.164962  0.131805
    N   N3   0.918917  0.076855  0.917368  -0.214537
    N   N4   0.081084  0.923145  0.082632  -0.214852
    C   C19  0.010118  0.013189  0.787605  -0.421551
    C   C20  0.989883  0.986811  0.212395  -0.421720
    H   H1   0.712651  0.179229  0.020803  0.164114
    H   H2   0.287350  0.820771  0.979197  0.164231
    H   H3   0.010790  0.022788  0.721143  0.181113
    H   H4   0.989211  0.977212  0.278857  0.181150
    H   H5   0.982870  0.082664  0.956812  0.284125
    H   H6   0.017130  0.917336  0.043188  0.284056
    C   C21  0.339463  0.879510  0.146270  -0.166511
    C   C22  0.660538  0.120490  0.853730  -0.166575
    C   C23  0.380561  0.897898  0.225644  -0.162205
    C   C24  0.619440  0.102102  0.774356  -0.162159
    C   C25  0.322604  0.941978  0.291201  0.012016
    C   C26  0.677397  0.058022  0.708799  0.011891
    C   C27  0.219671  0.965118  0.277739  -0.215264
    C   C28  0.780330  0.034882  0.722261  -0.215232
    C   C29  0.788739  0.044655  0.297827  -0.203635
    C   C30  0.211262  0.955345  0.702173  -0.203649
    C   C31  0.695876  0.085038  0.323181  0.047341
    C   C32  0.304124  0.914962  0.676819  0.047415
    C   C33  0.648653  0.153606  0.276219  -0.141425
    C   C34  0.351348  0.846394  0.723782  -0.141495
    C   C35  0.685480  0.173698  0.198686  0.023709
    C   C36  0.314521  0.826302  0.801314  0.023803
    H   H7   0.386825  0.847574  0.095991  0.131492
    H   H8   0.613176  0.152426  0.904009  0.131464
    H   H9   0.173235  0.998873  0.327935  0.127601
    H   H10  0.826766  0.001127  0.672065  0.127596
    H   H11  0.826250  0.991938  0.334438  0.117297
    H   H12  0.173751  0.008061  0.665562  0.117274
    H   H13  0.577476  0.188009  0.296957  0.103508
    H   H14  0.422525  0.811991  0.703043  0.103619
    H   H15  0.460500  0.880616  0.235729  0.143318
    H   H16  0.539501  0.119384  0.764271  0.143301
    O   O1   0.371385  0.051760  0.411140  -0.678810
    O   O2   0.628615  0.948240  0.588860  -0.678816
    O   O3   0.437187  0.894646  0.396256  -0.671314
    O   O4   0.562814  0.105354  0.603744  -0.671306
    C   C37  0.375218  0.962785  0.372399  0.739367
    C   C38  0.624783  0.037215  0.627602  0.739534
    O   O5   0.640644  0.958047  0.409686  -0.638435
    O   O6   0.359356  0.041953  0.590315  -0.638342
    O   O7   0.575201  0.115084  0.430198  -0.569240
    O   O8   0.424800  0.884916  0.569803  -0.569485
    C   C39  0.639614  0.051859  0.394580  0.660359
    C   C40  0.360386  0.948141  0.605420  0.660367
    Zn  Zn1  0.542090  0.898125  0.489320  1.066250
    Zn  Zn2  0.457911  0.101875  0.510680  1.066074
    C   C41  0.448754  0.499754  0.572155  -0.068793
    C   C42  0.551246  0.500246  0.427845  -0.068781
    C   C43  0.562320  0.528096  0.563701  -0.096992
    C   C44  0.437681  0.471904  0.436299  -0.097001
    H   H17  0.616732  0.551152  0.615181  0.090287
    H   H18  0.383269  0.448848  0.384819  0.090284
    H   H19  0.403654  0.499433  0.630938  0.076376
    H   H20  0.596347  0.500567  0.369062  0.076373
    N   N5   0.581241  0.774429  0.478450  -0.122036
    N   N6   0.418760  0.225571  0.521550  -0.122137
    C   C45  0.423921  0.560085  0.499162  -0.116092
    C   C46  0.576080  0.439915  0.500838  -0.116035
    C   C47  0.535918  0.587674  0.490817  0.566609
    C   C48  0.464083  0.412326  0.509183  0.566453
    C   C49  0.566496  0.690709  0.482444  -0.090609
    C   C50  0.433505  0.309291  0.517556  -0.090531
    Cl  Cl1  0.678753  0.354513  0.502645  -0.079227
    Cl  Cl2  0.321248  0.645487  0.497355  -0.079333
    Cl  Cl3  0.620111  0.263529  0.146668  -0.089121
    Cl  Cl4  0.379889  0.736471  0.853332  -0.089160
