# generated using pymatgen
data_ZnH18C29NO5
_symmetry_space_group_name_H-M   'P 1'
_cell_length_a   14.31389200
_cell_length_b   8.59075100
_cell_length_c   19.29162500
_cell_angle_alpha   90.00000000
_cell_angle_beta   111.40252100
_cell_angle_gamma   90.00000000
_symmetry_Int_Tables_number   1
_chemical_formula_structural   ZnH18C29NO5
_chemical_formula_sum   'Zn2 H36 C58 N2 O10'
_cell_volume   2208.64495120
_cell_formula_units_Z   2
loop_
 _symmetry_equiv_pos_site_id
 _symmetry_equiv_pos_as_xyz
  1  'x, y, z'
loop_
 _atom_site_type_symbol
 _atom_site_label
 _atom_site_symmetry_multiplicity
 _atom_site_fract_x
 _atom_site_fract_y
 _atom_site_fract_z
 _atom_site_occupancy
  Zn  Zn1  1  0.88808700  0.50825600  0.47233700  1
  Zn  Zn2  1  0.11191300  0.50825600  0.52766300  1
  H  H1  1  0.04047700  0.00878400  0.55903300  1
  H  H2  1  0.95952200  0.00878400  0.44096700  1
  H  H3  1  0.97157800  0.25678300  0.72366600  1
  H  H4  1  0.01958900  0.75772900  0.27429700  1
  H  H5  1  0.02842200  0.25678300  0.27633300  1
  H  H6  1  0.98041100  0.75772900  0.72570300  1
  H  H7  1  0.07121200  0.77828100  0.06289100  1
  H  H8  1  0.06157800  0.22864600  0.96899800  1
  H  H9  1  0.92878800  0.77828100  0.93710900  1
  H  H10  1  0.93842200  0.22864600  0.03100200  1
  H  H11  1  0.08938300  0.78367800  0.19304400  1
  H  H12  1  0.05704800  0.22756700  0.84262900  1
  H  H13  1  0.91061600  0.78367800  0.80695600  1
  H  H14  1  0.94295100  0.22756700  0.15737100  1
  H  H15  1  0.40718600  0.51027900  0.30269400  1
  H  H16  1  0.59281400  0.51027900  0.69730600  1
  H  H17  1  0.24233800  0.50551800  0.45401500  1
  H  H18  1  0.75766100  0.50551800  0.54598500  1
  H  H19  1  0.55425700  0.51198700  0.28110600  1
  H  H20  1  0.44574300  0.51198700  0.71889400  1
  H  H21  1  0.31685600  0.50917800  0.38267100  1
  H  H22  1  0.68314300  0.50917800  0.61732900  1
  H  H23  1  0.34480900  0.62803000  0.77269500  1
  H  H24  1  0.34689100  0.41688200  0.77784600  1
  H  H25  1  0.09104800  0.50477600  0.70708200  1
  H  H26  1  0.98557000  0.51108000  0.78209500  1
  H  H27  1  0.06116200  0.53781300  0.91782900  1
  H  H28  1  0.24449000  0.55581100  0.97951900  1
  H  H29  1  0.35170600  0.54741600  0.90519200  1
  H  H30  1  0.65519000  0.62802900  0.22730500  1
  H  H31  1  0.65310900  0.41688200  0.22215400  1
  H  H32  1  0.90895100  0.50477600  0.29291800  1
  H  H33  1  0.01442900  0.51108000  0.21790500  1
  H  H34  1  0.93883700  0.53781300  0.08217100  1
  H  H35  1  0.75551000  0.55581200  0.02048100  1
  H  H36  1  0.64829400  0.54741600  0.09480800  1
  C  C1  1  0.00492700  0.14713000  0.63704300  1
  C  C2  1  0.99485400  0.86952200  0.36314100  1
  C  C3  1  0.99507200  0.14713000  0.36295700  1
  C  C4  1  0.00514600  0.86952200  0.63685900  1
  C  C5  1  0.98458000  0.14703100  0.70161000  1
  C  C6  1  0.01346500  0.86842100  0.29800800  1
  C  C7  1  0.01541900  0.14703100  0.29839000  1
  C  C8  1  0.98653400  0.86842100  0.70199200  1
  C  C9  1  0.98233900  0.00743800  0.73746500  1
  C  C10  1  0.01766000  0.00743800  0.26253500  1
  C  C11  1  0.02121000  0.00849800  0.60787200  1
  C  C12  1  0.97879000  0.00849800  0.39212800  1
  C  C13  1  0.04427400  0.87784900  0.08436200  1
  C  C14  1  0.02800300  0.13116800  0.93312600  1
  C  C15  1  0.95572600  0.87784900  0.91563800  1
  C  C16  1  0.97199700  0.13116800  0.06687400  1
  C  C17  1  0.05367500  0.88109700  0.15820800  1
  C  C18  1  0.02327300  0.13157100  0.86060700  1
  C  C19  1  0.94632400  0.88109700  0.84179200  1
  C  C20  1  0.97672700  0.13157100  0.13939300  1
  C  C21  1  0.01870000  0.00767100  0.18629400  1
  C  C22  1  0.98130000  0.00767100  0.81370600  1
  C  C23  1  0.00404000  0.00341800  0.03879400  1
  C  C24  1  0.99596000  0.00341800  0.96120600  1
  C  C25  1  0.00363700  0.72679700  0.59515100  1
  C  C26  1  0.99646600  0.28988600  0.40471900  1
  C  C27  1  0.99636200  0.72679700  0.40484900  1
  C  C28  1  0.00353300  0.28988600  0.59528100  1
  C  C29  1  0.60009200  0.51066000  0.33956700  1
  C  C30  1  0.39990800  0.51066000  0.66043200  1
  C  C31  1  0.70374200  0.51060900  0.36487700  1
  C  C32  1  0.29625800  0.51060900  0.63512300  1
  C  C33  1  0.70990800  0.50711500  0.48839500  1
  C  C34  1  0.29009200  0.50711500  0.51160500  1
  C  C35  1  0.60518100  0.50797600  0.46486900  1
  C  C36  1  0.39481800  0.50797600  0.53513100  1
  C  C37  1  0.55158200  0.50916500  0.38929200  1
  C  C38  1  0.44841700  0.50916500  0.61070800  1
  C  C39  1  0.55264400  0.50790700  0.51402300  1
  C  C40  1  0.44735600  0.50790700  0.48597700  1
  C  C41  1  0.39696300  0.50852000  0.40928200  1
  C  C42  1  0.60303700  0.50852000  0.59071800  1
  C  C43  1  0.44874300  0.50933000  0.36206500  1
  C  C44  1  0.55125600  0.50933000  0.63793500  1
  C  C45  1  0.29829300  0.52096500  0.75915500  1
  C  C46  1  0.22920400  0.52603100  0.80132700  1
  C  C47  1  0.12607100  0.51626100  0.76670800  1
  C  C48  1  0.06613900  0.52018100  0.80883600  1
  C  C49  1  0.10845000  0.53474200  0.88512500  1
  C  C50  1  0.21105900  0.54470900  0.91965300  1
  C  C51  1  0.27112700  0.54000800  0.87782900  1
  C  C52  1  0.70170700  0.52096500  0.24084500  1
  C  C53  1  0.77079600  0.52603100  0.19867300  1
  C  C54  1  0.87392800  0.51626100  0.23329100  1
  C  C55  1  0.93386100  0.52018100  0.19116400  1
  C  C56  1  0.89155000  0.53474200  0.11487500  1
  C  C57  1  0.78894000  0.54470900  0.08034700  1
  C  C58  1  0.72887300  0.54000800  0.12217100  1
  N  N1  1  0.75643800  0.50824900  0.43884700  1
  N  N2  1  0.24356200  0.50824900  0.56115300  1
  O  O1  1  0.08877400  0.67711200  0.59221000  1
  O  O2  1  0.91127300  0.33945100  0.40775900  1
  O  O3  1  0.91122600  0.67711200  0.40779000  1
  O  O4  1  0.08872700  0.33945100  0.59224100  1
  O  O5  1  0.91586100  0.67091700  0.55276500  1
  O  O6  1  0.08416400  0.34562600  0.44722700  1
  O  O7  1  0.08413900  0.67091700  0.44723500  1
  O  O8  1  0.91583500  0.34562600  0.55277300  1
  O  O9  1  0.24738400  0.51340300  0.68341200  1
  O  O10  1  0.75261500  0.51340300  0.31658800  1
