# Generated by REPEAT Assigner based on pymatgen
data_DB0-m3_o14_o28_f0_nbo.sym.75
_audit_creation_date              2022-05-24
_audit_creation_method            REPEAT_Assigner
_cell_length_a                    21.825181
_cell_length_b                    21.826358
_cell_length_c                    46.879098
_cell_angle_alpha                 90.000000
_cell_angle_beta                  90.000000
_cell_angle_gamma                 90.000000
_cell_volume                      22331.524061
_symmetry_space_group_name_H-M    P1
_symmetry_Int_Tables_number       1
loop_
    _symmetry_equiv_pos_site_id
    _symmetry_equiv_pos_as_xyz
    1  x,y,z
loop_
    _atom_site_type_symbol
    _atom_site_label
    _atom_site_fract_x
    _atom_site_fract_y
    _atom_site_fract_z
    _atom_type_partial_charge
    O   O1    0.591202  0.492634  0.959077  -0.692347
    O   O2    0.510232  0.591066  0.959304  -0.692153
    O   O3    0.409415  0.510343  0.960617  -0.707239
    O   O4    0.492561  0.409267  0.960384  -0.708159
    O   O5    0.090590  0.989662  0.460616  -0.707248
    O   O6    0.007445  0.090738  0.460384  -0.708107
    O   O7    0.908803  0.007372  0.459078  -0.692326
    O   O8    0.989773  0.908939  0.459304  -0.692176
    O   O9    0.590889  0.490356  0.008217  -0.705612
    O   O10   0.507121  0.590676  0.008437  -0.705617
    O   O11   0.409148  0.506698  0.009743  -0.690591
    O   O12   0.490822  0.408928  0.009528  -0.691059
    O   O13   0.090857  0.993306  0.509742  -0.690599
    O   O14   0.009182  0.091076  0.509528  -0.691098
    O   O15   0.909116  0.009647  0.508218  -0.705482
    O   O16   0.992883  0.909328  0.508437  -0.705650
    C   C1    0.619581  0.487775  0.983645  0.721344
    C   C2    0.512291  0.619412  0.983966  0.720990
    C   C3    0.380746  0.512208  0.985217  0.719821
    C   C4    0.488041  0.380552  0.984898  0.719409
    C   C5    0.119259  0.987796  0.485216  0.719755
    C   C6    0.011964  0.119453  0.484898  0.719517
    C   C7    0.880424  0.012230  0.483647  0.720836
    C   C8    0.987714  0.880592  0.483966  0.721110
    H   H1    0.596871  0.980708  0.125202  0.138749
    H   H2    0.017935  0.596034  0.125288  0.137146
    H   H3    0.405061  0.018733  0.124889  0.138776
    H   H4    0.980019  0.404215  0.124808  0.139219
    H   H5    0.094942  0.481279  0.624889  0.138659
    H   H6    0.519994  0.095783  0.624808  0.139110
    H   H7    0.903129  0.519292  0.625202  0.138756
    H   H8    0.482062  0.903968  0.625288  0.137151
    C   C9    0.555128  0.990060  0.084391  0.018777
    C   C10   0.008794  0.554419  0.084440  0.016385
    C   C11   0.447424  0.009389  0.084216  0.010974
    C   C12   0.989514  0.446713  0.084171  0.005382
    C   C13   0.052579  0.490620  0.584216  0.010996
    C   C14   0.510494  0.053287  0.584172  0.005543
    C   C15   0.944875  0.509944  0.584390  0.018767
    C   C16   0.491207  0.945582  0.584440  0.016375
    H   H9    0.597752  0.981768  0.073316  0.102789
    H   H10   0.017147  0.597077  0.073405  0.102585
    H   H11   0.404970  0.017710  0.073005  0.105631
    H   H12   0.981290  0.404289  0.072921  0.107584
    H   H13   0.095034  0.482302  0.573005  0.105642
    H   H14   0.518721  0.095710  0.572921  0.107527
    H   H15   0.902250  0.518233  0.573316  0.102793
    H   H16   0.482851  0.902925  0.573405  0.102571
    Zn  Zn1   0.499886  0.500115  0.952150  1.306211
    Zn  Zn2   0.000119  0.999890  0.452150  1.306221
    Zn  Zn3   0.500426  0.499871  0.016685  1.289722
    Zn  Zn4   0.999579  0.000132  0.516685  1.289730
    C   C17   0.500942  0.999707  0.128534  0.163641
    C   C18   0.998979  0.500092  0.128535  0.159057
    C   C19   0.999059  0.500299  0.628534  0.163502
    C   C20   0.501026  0.999908  0.628535  0.158790
    C   C21   0.016976  0.447462  0.850967  -0.136996
    C   C22   0.552038  0.016848  0.851164  -0.141389
    C   C23   0.984462  0.551797  0.851152  -0.139196
    C   C24   0.447702  0.984319  0.850953  -0.134037
    C   C25   0.515538  0.948204  0.351152  -0.139348
    C   C26   0.052300  0.515689  0.350953  -0.134260
    C   C27   0.483034  0.052542  0.350967  -0.137025
    C   C28   0.947967  0.483149  0.351164  -0.141709
    C   C29   0.554762  0.989546  0.113781  -0.175713
    C   C30   0.009154  0.553963  0.113829  -0.172311
    C   C31   0.447341  0.009870  0.113608  -0.177543
    C   C32   0.988889  0.446537  0.113563  -0.176462
    C   C33   0.052662  0.490140  0.613608  -0.177332
    C   C34   0.511121  0.053462  0.613564  -0.176196
    C   C35   0.945240  0.510457  0.613781  -0.175705
    C   C36   0.490846  0.946038  0.613829  -0.172248
    H   H17   0.456488  0.691952  0.947644  0.147538
    H   H18   0.308788  0.456665  0.948571  0.147229
    H   H19   0.546922  0.308698  0.949344  0.146608
    H   H20   0.692042  0.547118  0.948528  0.147854
    H   H21   0.953085  0.191305  0.449344  0.146583
    H   H22   0.807964  0.952889  0.448527  0.147936
    H   H23   0.043517  0.808052  0.447644  0.147531
    H   H24   0.191218  0.043340  0.448570  0.147212
    C   C37   0.586673  0.691584  0.023894  -0.176092
    C   C38   0.307934  0.586091  0.025093  -0.179360
    C   C39   0.410601  0.307514  0.023261  -0.182893
    C   C40   0.691886  0.409492  0.021905  -0.183715
    C   C41   0.089399  0.192491  0.523263  -0.182955
    C   C42   0.808116  0.090505  0.521908  -0.182889
    C   C43   0.913328  0.808420  0.523892  -0.175825
    C   C44   0.192070  0.913911  0.525092  -0.179001
    H   H25   0.597297  0.643439  0.022754  0.171869
    H   H26   0.356106  0.596691  0.024152  0.172839
    H   H27   0.399920  0.355644  0.022119  0.175030
    H   H28   0.643741  0.398961  0.020568  0.175241
    H   H29   0.100080  0.144361  0.522121  0.175046
    H   H30   0.856261  0.101039  0.520571  0.175198
    H   H31   0.902704  0.856565  0.522752  0.171814
    H   H32   0.143897  0.903312  0.524151  0.172777
    C   C45   0.614265  0.724683  0.045311  -0.289987
    C   C46   0.274490  0.613485  0.046448  -0.286485
    C   C47   0.381459  0.273977  0.044080  -0.280324
    C   C48   0.725056  0.379862  0.042701  -0.277824
    C   C49   0.118539  0.226028  0.544083  -0.280329
    C   C50   0.774946  0.120130  0.542706  -0.278850
    C   C51   0.885734  0.775321  0.545309  -0.290414
    C   C52   0.225513  0.886515  0.546447  -0.287124
    H   H33   0.642716  0.701412  0.060767  0.164888
    H   H34   0.297515  0.641773  0.062048  0.164578
    H   H35   0.351791  0.296923  0.059140  0.162842
    H   H36   0.701824  0.349948  0.057560  0.162012
    H   H37   0.148206  0.203084  0.559144  0.162845
    H   H38   0.798177  0.150041  0.557566  0.162250
    H   H39   0.857280  0.798591  0.560764  0.165026
    H   H40   0.202487  0.858226  0.562046  0.164744
    C   C53   0.604188  0.786707  0.047550  0.626020
    C   C54   0.212421  0.603422  0.048441  0.623650
    C   C55   0.391506  0.211933  0.046252  0.619684
    C   C56   0.787095  0.389721  0.045110  0.614251
    C   C57   0.108493  0.288072  0.546254  0.619598
    C   C58   0.712906  0.110268  0.545115  0.614487
    C   C59   0.895810  0.713297  0.547549  0.626415
    C   C60   0.287582  0.896577  0.548439  0.624239
    C   C61   0.568194  0.815837  0.027669  -0.612986
    C   C62   0.183605  0.567621  0.028384  -0.609382
    C   C63   0.429058  0.183237  0.026866  -0.608251
    C   C64   0.816148  0.427630  0.025992  -0.604496
    C   C65   0.070943  0.316769  0.526867  -0.608219
    C   C66   0.683854  0.072363  0.525994  -0.604603
    C   C67   0.931807  0.684167  0.527668  -0.613252
    C   C68   0.316399  0.932381  0.528383  -0.609524
    H   H41   0.560546  0.864252  0.030515  0.264586
    H   H42   0.135136  0.559975  0.031035  0.262536
    H   H43   0.436563  0.134775  0.029636  0.262187
    H   H44   0.864574  0.435010  0.028964  0.260948
    H   H45   0.063438  0.365231  0.529636  0.262213
    H   H46   0.635428  0.064982  0.528966  0.260992
    H   H47   0.939456  0.635752  0.530513  0.264642
    H   H48   0.364868  0.940026  0.531036  0.262523
    C   C69   0.542148  0.783399  0.005235  0.298917
    C   C70   0.216409  0.541760  0.006018  0.298696
    C   C71   0.456796  0.216144  0.005030  0.288585
    C   C72   0.783631  0.455840  0.004159  0.292609
    C   C73   0.043207  0.283861  0.505031  0.288490
    C   C74   0.716373  0.044158  0.504161  0.292909
    C   C75   0.957855  0.716605  0.505234  0.299144
    C   C76   0.283595  0.958243  0.506018  0.298550
    C   C77   0.547913  0.720028  0.004438  0.010037
    C   C78   0.279796  0.547543  0.005453  0.006975
    C   C79   0.450965  0.279513  0.004379  0.016772
    C   C80   0.720258  0.450137  0.003277  0.017509
    C   C81   0.049038  0.220492  0.504380  0.016960
    C   C82   0.779745  0.049863  0.503279  0.016339
    C   C83   0.952089  0.779977  0.504437  0.009894
    C   C84   0.220208  0.952461  0.505452  0.006844
    C   C85   0.515744  0.686611  0.983906  0.000602
    C   C86   0.313544  0.515600  0.984963  0.004014
    C   C87   0.484713  0.313344  0.984549  -0.009236
    C   C88   0.686782  0.484308  0.983477  -0.008970
    C   C89   0.015291  0.186660  0.484550  -0.009456
    C   C90   0.813222  0.015696  0.483478  -0.007916
    C   C91   0.984260  0.813394  0.483906  0.000549
    C   C92   0.186461  0.984404  0.484963  0.004075
    C   C93   0.481962  0.717223  0.963528  -0.177397
    C   C94   0.283261  0.481981  0.964420  -0.175605
    C   C95   0.520197  0.283129  0.964668  -0.161296
    C   C96   0.717347  0.520080  0.963829  -0.169432
    C   C97   0.979808  0.216875  0.464669  -0.161214
    C   C98   0.782659  0.979925  0.463829  -0.169867
    C   C99   0.018042  0.782781  0.463528  -0.177411
    C   C100  0.216744  0.018023  0.464420  -0.175526
    H   H49   0.452129  0.803261  0.947413  0.149708
    H   H50   0.197490  0.452219  0.947970  0.150110
    H   H51   0.551458  0.197405  0.948764  0.150917
    H   H52   0.803350  0.551509  0.948334  0.148999
    H   H53   0.948546  0.302598  0.448764  0.150934
    H   H54   0.696656  0.948497  0.448333  0.149027
    H   H55   0.047875  0.696743  0.447413  0.149698
    H   H56   0.302516  0.047785  0.447970  0.150147
    C   C101  0.478503  0.780032  0.963658  -0.156150
    C   C102  0.220453  0.478473  0.964338  -0.158545
    C   C103  0.523739  0.220325  0.964615  -0.171650
    C   C104  0.780157  0.523529  0.963997  -0.161704
    C   C105  0.976265  0.279679  0.464615  -0.171703
    C   C106  0.719849  0.976475  0.463997  -0.161684
    C   C107  0.021501  0.719972  0.463658  -0.156085
    C   C108  0.279552  0.021531  0.464338  -0.158709
    C   C109  0.508596  0.813391  0.984211  -0.078803
    C   C110  0.186759  0.508371  0.984832  -0.078142
    C   C111  0.492049  0.186579  0.984493  -0.067566
    C   C112  0.813563  0.491440  0.983864  -0.077579
    C   C113  0.007954  0.313426  0.484494  -0.067498
    C   C114  0.686442  0.008561  0.483864  -0.077295
    C   C115  0.991407  0.686613  0.484211  -0.078929
    C   C116  0.313246  0.991632  0.484832  -0.077832
    C   C117  0.501391  0.999735  0.069470  -0.026996
    C   C118  0.999261  0.500722  0.069473  -0.021479
    C   C119  0.998612  0.500272  0.569470  -0.027047
    C   C120  0.500743  0.999280  0.569473  -0.021595
    O   O17   0.448974  0.995634  0.024853  -0.714263
    O   O18   0.003962  0.448431  0.024837  -0.714395
    O   O19   0.554485  0.004190  0.025042  -0.697927
    O   O20   0.995308  0.553927  0.025066  -0.698442
    O   O21   0.945519  0.495815  0.525042  -0.698017
    O   O22   0.504697  0.946075  0.525066  -0.698393
    O   O23   0.051029  0.504371  0.524853  -0.714407
    O   O24   0.496043  0.051571  0.524837  -0.714466
    H   H57   0.030358  0.406618  0.839508  0.120437
    H   H58   0.593050  0.030339  0.839863  0.122319
    H   H59   0.970938  0.592783  0.839841  0.121148
    H   H60   0.406884  0.970888  0.839484  0.118686
    H   H61   0.529058  0.907216  0.339841  0.121207
    H   H62   0.093116  0.529124  0.339484  0.118759
    H   H63   0.469655  0.093387  0.339508  0.120456
    H   H64   0.906957  0.469653  0.339862  0.122366
    C   C121  0.501641  0.999828  0.038257  0.579539
    C   C122  0.999521  0.501051  0.038261  0.578009
    C   C123  0.998362  0.500177  0.538257  0.579711
    C   C124  0.500484  0.998950  0.538261  0.578044
    O   O25   0.450649  0.905626  0.981683  -0.665352
    O   O26   0.094618  0.450343  0.981958  -0.666615
    O   O27   0.550224  0.094389  0.983090  -0.666119
    O   O28   0.905730  0.549679  0.982828  -0.667742
    O   O29   0.949779  0.405615  0.483090  -0.666137
    O   O30   0.594274  0.950322  0.482827  -0.667727
    O   O31   0.049354  0.594378  0.481682  -0.665389
    O   O32   0.405386  0.049659  0.481958  -0.666592
    O   O33   0.556217  0.911746  0.982952  -0.682489
    O   O34   0.088374  0.555896  0.983279  -0.683839
    O   O35   0.444636  0.088290  0.981810  -0.685869
    O   O36   0.911954  0.444109  0.981488  -0.688219
    O   O37   0.055367  0.411715  0.481810  -0.685882
    O   O38   0.588050  0.055892  0.481488  -0.688141
    O   O39   0.943786  0.588259  0.482952  -0.682508
    O   O40   0.411630  0.944106  0.483279  -0.683826
    C   C125  0.505005  0.880220  0.982808  0.713665
    C   C126  0.119954  0.504719  0.983204  0.716229
    C   C127  0.495813  0.119790  0.982928  0.719545
    C   C128  0.880382  0.495246  0.982549  0.724795
    C   C129  0.004190  0.380214  0.482929  0.719533
    C   C130  0.619622  0.004755  0.482549  0.724483
    C   C131  0.994998  0.619785  0.482808  0.713736
    C   C132  0.380051  0.995283  0.483205  0.716070
    Zn  Zn5   0.431139  0.996339  0.982441  1.330378
    Zn  Zn6   0.003915  0.430723  0.982412  1.331220
    Zn  Zn7   0.569790  0.003687  0.982427  1.330641
    Zn  Zn8   0.996420  0.569357  0.982463  1.332875
    Zn  Zn9   0.930212  0.496317  0.482427  1.330674
    Zn  Zn10  0.503584  0.930645  0.482464  1.332866
    Zn  Zn11  0.068864  0.503665  0.482440  1.330447
    Zn  Zn12  0.496090  0.069279  0.482412  1.331259
    C   C133  0.016660  0.447060  0.880364  -0.113197
    C   C134  0.551994  0.016297  0.880562  -0.109742
    C   C135  0.985014  0.551786  0.880552  -0.109070
    C   C136  0.447266  0.984640  0.880350  -0.112137
    C   C137  0.514985  0.948215  0.380552  -0.108871
    C   C138  0.052735  0.515368  0.380350  -0.111994
    C   C139  0.483348  0.052943  0.380364  -0.113016
    C   C140  0.948010  0.483701  0.380562  -0.109401
    O   O41   0.446534  0.995735  0.939810  -0.688028
    O   O42   0.005131  0.446243  0.939795  -0.686857
    O   O43   0.551840  0.004492  0.940003  -0.702507
    O   O44   0.996261  0.551531  0.940026  -0.704711
    O   O45   0.948162  0.495511  0.440003  -0.702545
    O   O46   0.503742  0.948471  0.440026  -0.704783
    O   O47   0.053469  0.504268  0.439810  -0.688049
    O   O48   0.494872  0.053759  0.439795  -0.687002
    C   C141  0.499273  0.000223  0.926564  0.637172
    C   C142  0.000777  0.499010  0.926567  0.637749
    C   C143  0.000729  0.499781  0.426563  0.637249
    C   C144  0.499225  0.000991  0.426567  0.638182
    H   H65   0.029700  0.405614  0.891407  0.128891
    H   H66   0.593262  0.029275  0.891766  0.127879
    H   H67   0.972005  0.593055  0.891745  0.127563
    H   H68   0.405821  0.971558  0.891385  0.128610
    H   H69   0.527990  0.906944  0.391745  0.127562
    H   H70   0.094179  0.528455  0.391385  0.128585
    H   H71   0.470311  0.094390  0.391407  0.128882
    H   H72   0.906743  0.470718  0.391765  0.127808
    C   C145  0.000864  0.499308  0.895317  0.060191
    C   C146  0.499513  0.000399  0.895315  0.060014
    C   C147  0.499139  0.000694  0.395317  0.059841
    C   C148  0.000490  0.499605  0.395315  0.059806
    C   C149  0.037546  0.538677  0.791691  0.632599
    C   C150  0.461602  0.037951  0.791659  0.634885
    C   C151  0.962902  0.461188  0.791764  0.631048
    C   C152  0.539132  0.963348  0.791796  0.632111
    C   C153  0.537107  0.038811  0.291764  0.630383
    C   C154  0.960867  0.536648  0.291796  0.631988
    C   C155  0.462454  0.961330  0.291692  0.631835
    C   C156  0.038408  0.462057  0.291658  0.634568
    N   N1    0.000349  0.499873  0.805772  -0.283901
    N   N2    0.500263  0.000660  0.805772  -0.286064
    N   N3    0.499656  0.000129  0.305773  -0.282734
    N   N4    0.999741  0.499342  0.305771  -0.285896
    C   C157  0.961469  0.460742  0.762071  -0.332233
    C   C158  0.539884  0.962115  0.762103  -0.331710
    C   C159  0.038502  0.539320  0.761994  -0.331177
    C   C160  0.461258  0.039101  0.761962  -0.331240
    C   C161  0.461497  0.960689  0.261994  -0.330421
    C   C162  0.038752  0.460907  0.261962  -0.330569
    C   C163  0.538539  0.039258  0.262072  -0.331658
    C   C164  0.960115  0.537880  0.262102  -0.331532
    C   C165  0.999877  0.500069  0.747257  0.209394
    C   C166  0.500663  0.000578  0.747257  0.208967
    C   C167  0.500125  0.999936  0.247257  0.208520
    C   C168  0.999341  0.499423  0.247256  0.208400
    C   C169  0.922850  0.421691  0.746764  0.447063
    C   C170  0.579110  0.923620  0.746826  0.443346
    C   C171  0.076868  0.578473  0.746606  0.441857
    C   C172  0.422228  0.077537  0.746544  0.446808
    C   C173  0.423126  0.921540  0.246607  0.441820
    C   C174  0.077789  0.422477  0.246544  0.446280
    C   C175  0.577162  0.078305  0.246764  0.446906
    C   C176  0.920883  0.576370  0.246825  0.443322
    C   C177  0.425330  0.920874  0.217287  -0.202757
    C   C178  0.078223  0.424554  0.217221  -0.207755
    C   C179  0.575372  0.078837  0.217438  -0.204965
    C   C180  0.920124  0.574455  0.217502  -0.201953
    C   C181  0.924638  0.421160  0.717438  -0.204995
    C   C182  0.579870  0.925535  0.717503  -0.201982
    C   C183  0.074663  0.579140  0.717286  -0.202635
    C   C184  0.421794  0.075459  0.717221  -0.208095
    C   C185  0.463363  0.960279  0.202752  -0.023796
    C   C186  0.038691  0.462513  0.202719  -0.017033
    C   C187  0.537521  0.039387  0.202828  -0.023462
    C   C188  0.959518  0.536602  0.202860  -0.022651
    C   C189  0.962484  0.460615  0.702828  -0.023470
    C   C190  0.540482  0.963393  0.702860  -0.022279
    C   C191  0.036633  0.539731  0.702752  -0.023757
    C   C192  0.461319  0.037494  0.702719  -0.016572
    C   C193  0.500338  0.999866  0.217708  -0.043956
    C   C194  0.999177  0.499505  0.217708  -0.048674
    C   C195  0.999664  0.500140  0.717708  -0.044182
    C   C196  0.500828  0.000496  0.717708  -0.049308
    C   C197  0.464434  0.960271  0.173253  0.468763
    C   C198  0.038531  0.463524  0.173220  0.463735
    C   C199  0.536846  0.039287  0.173328  0.470391
    C   C200  0.959453  0.535868  0.173360  0.468689
    C   C201  0.963159  0.460716  0.673328  0.470287
    C   C202  0.540547  0.964127  0.673361  0.468367
    C   C203  0.035562  0.539739  0.673253  0.468612
    C   C204  0.461480  0.036482  0.673221  0.463567
    N   N5    0.500733  0.999756  0.158990  -0.178108
    N   N6    0.998951  0.499780  0.158990  -0.173049
    N   N7    0.999267  0.500251  0.658990  -0.177896
    N   N8    0.501054  0.000220  0.658991  -0.172774
    O   O49   0.074170  0.575765  0.806928  -0.472404
    O   O50   0.424338  0.074452  0.806865  -0.473343
    O   O51   0.926515  0.424004  0.807072  -0.471024
    O   O52   0.576173  0.926872  0.807134  -0.471403
    O   O53   0.573497  0.075992  0.307073  -0.470802
    O   O54   0.923823  0.573121  0.307133  -0.471405
    O   O55   0.425827  0.924246  0.306928  -0.472149
    O   O56   0.075679  0.425562  0.306865  -0.473283
    H   H73   0.395444  0.889808  0.205965  0.130326
    H   H74   0.109226  0.394647  0.205875  0.130225
    H   H75   0.605432  0.109838  0.206178  0.130966
    H   H76   0.889003  0.604434  0.206267  0.130109
    H   H77   0.894582  0.390156  0.706178  0.130973
    H   H78   0.610986  0.895551  0.706268  0.130098
    H   H79   0.104545  0.610209  0.705965  0.130264
    H   H80   0.390796  0.105372  0.705875  0.130251
    O   O57   0.430082  0.919852  0.158697  -0.495784
    O   O58   0.078912  0.429193  0.158630  -0.494107
    O   O59   0.571395  0.079654  0.158841  -0.497536
    O   O60   0.918991  0.570370  0.158906  -0.496474
    O   O61   0.928615  0.420345  0.658840  -0.497522
    O   O62   0.581006  0.929621  0.658907  -0.496420
    O   O63   0.069911  0.580161  0.658696  -0.495760
    O   O64   0.421104  0.070820  0.658630  -0.494141
    C   C205  0.000624  0.499721  0.836223  0.188069
    C   C206  0.499994  0.000630  0.836223  0.188079
    C   C207  0.499381  0.000282  0.336224  0.187421
    C   C208  0.000010  0.499372  0.336222  0.188286
    N   N9    0.881313  0.381690  0.760331  -0.648808
    C   C209  0.825277  0.406483  0.764035  0.865399
    O   O65   0.818923  0.461981  0.764276  -0.602475
    C   C210  0.770961  0.366035  0.767841  -0.525428
    H   H81   0.879826  0.337629  0.752555  0.316070
    H   H82   0.777850  0.336473  0.786812  0.147799
    H   H83   0.764917  0.337007  0.748627  0.112168
    H   H84   0.729496  0.394624  0.770947  0.158873
    N   N10   0.619044  0.882062  0.760422  -0.645716
    C   C211  0.594303  0.825965  0.763989  0.864317
    O   O66   0.538811  0.819521  0.764104  -0.601625
    C   C212  0.634804  0.771690  0.767800  -0.526263
    H   H85   0.663185  0.880698  0.752738  0.315231
    H   H86   0.664170  0.778494  0.786844  0.147789
    H   H87   0.664032  0.765826  0.748639  0.112768
    H   H88   0.606251  0.730160  0.770782  0.158855
    N   N11   0.118571  0.618438  0.760086  -0.645352
    C   C213  0.174692  0.593686  0.763562  0.863189
    O   O67   0.181111  0.538194  0.763708  -0.601651
    C   C214  0.229022  0.634173  0.767233  -0.521684
    H   H89   0.119886  0.662547  0.752363  0.315602
    H   H90   0.222404  0.663611  0.786266  0.146619
    H   H91   0.234725  0.663325  0.748037  0.111361
    H   H92   0.270568  0.605613  0.770157  0.157870
    N   N12   0.382136  0.119161  0.759995  -0.648160
    C   C215  0.406861  0.175254  0.763599  0.866335
    O   O68   0.462354  0.181668  0.763867  -0.602988
    C   C216  0.366340  0.229562  0.767262  -0.523229
    H   H93   0.338098  0.120526  0.752184  0.316149
    H   H94   0.336719  0.222826  0.786225  0.147037
    H   H95   0.337370  0.235389  0.748014  0.111444
    H   H96   0.394877  0.271084  0.770301  0.158100
    N   N13   0.381420  0.881580  0.260086  -0.645640
    C   C217  0.325302  0.906339  0.263563  0.863298
    O   O69   0.318890  0.961832  0.263709  -0.601663
    C   C218  0.270967  0.865858  0.267234  -0.521728
    H   H97   0.380100  0.837471  0.252363  0.315696
    H   H98   0.277581  0.836419  0.286267  0.146615
    H   H99   0.265260  0.836708  0.248038  0.111372
    H   H100  0.229424  0.894423  0.270157  0.157890
    N   N14   0.117888  0.380861  0.259995  -0.648188
    C   C219  0.093175  0.324762  0.263599  0.866256
    O   O70   0.037683  0.318337  0.263865  -0.602968
    C   C220  0.133706  0.270463  0.267262  -0.522942
    H   H101  0.161927  0.379504  0.252184  0.316225
    H   H102  0.163324  0.277205  0.286225  0.146984
    H   H103  0.162680  0.264643  0.248014  0.111350
    H   H104  0.105178  0.228935  0.270300  0.158018
    N   N15   0.618706  0.118300  0.260331  -0.649070
    C   C221  0.674738  0.093498  0.264035  0.865827
    O   O71   0.681085  0.037999  0.264276  -0.602505
    C   C222  0.729060  0.133939  0.267842  -0.526560
    H   H105  0.620199  0.162360  0.252556  0.316172
    H   H106  0.722174  0.163501  0.286813  0.148089
    H   H107  0.735108  0.162967  0.248629  0.112480
    H   H108  0.770521  0.105344  0.270948  0.159144
    N   N16   0.880942  0.617921  0.260421  -0.645644
    C   C223  0.905673  0.674022  0.263989  0.864199
    O   O72   0.961165  0.680474  0.264104  -0.601582
    C   C224  0.865164  0.728290  0.267799  -0.526210
    H   H109  0.836801  0.619278  0.252737  0.315225
    H   H110  0.835797  0.721481  0.286842  0.147786
    H   H111  0.835937  0.734150  0.248638  0.112781
    H   H112  0.893710  0.769824  0.270782  0.158825
    N   N17   0.627905  0.820204  0.070825  -0.716213
    C   C225  0.689062  0.829542  0.070137  0.850225
    O   O73   0.721582  0.798834  0.054556  -0.595501
    C   C226  0.717302  0.878464  0.088059  -0.568718
    H   H113  0.602717  0.857436  0.077418  0.270882
    H   H114  0.682199  0.901206  0.101483  0.120024
    H   H115  0.739203  0.913004  0.074026  0.158601
    H   H116  0.752566  0.857762  0.102096  0.163146
    N   N18   0.178551  0.626943  0.071640  -0.718435
    C   C227  0.169273  0.688111  0.071046  0.851147
    O   O74   0.200248  0.720749  0.055635  -0.595829
    C   C228  0.120096  0.716222  0.088861  -0.569396
    H   H117  0.141198  0.601719  0.078053  0.272598
    H   H118  0.097140  0.681020  0.102147  0.121229
    H   H119  0.085774  0.738257  0.074757  0.158651
    H   H120  0.140606  0.751353  0.103029  0.162802
    N   N19   0.366184  0.177966  0.069007  -0.721287
    C   C229  0.305104  0.168648  0.067379  0.857386
    O   O75   0.273633  0.199725  0.051492  -0.596656
    C   C230  0.275693  0.119297  0.084627  -0.581133
    H   H121  0.390919  0.140605  0.075813  0.274343
    H   H122  0.309925  0.096078  0.098364  0.126416
    H   H123  0.254574  0.085212  0.070102  0.159979
    H   H124  0.239633  0.139691  0.098320  0.166292
    N   N20   0.820695  0.363827  0.067846  -0.719388
    C   C231  0.829796  0.302746  0.065989  0.859349
    O   O76   0.798798  0.271700  0.049890  -0.597174
    C   C232  0.878822  0.272816  0.083246  -0.583416
    H   H125  0.858069  0.388284  0.074855  0.273807
    H   H126  0.902036  0.306699  0.097171  0.126656
    H   H127  0.912983  0.251804  0.068725  0.160531
    H   H128  0.858114  0.236605  0.096748  0.166948
    N   N21   0.133814  0.322040  0.569010  -0.721103
    C   C233  0.194893  0.331359  0.567381  0.857373
    O   O77   0.226365  0.300283  0.551496  -0.596658
    C   C234  0.224302  0.380711  0.584630  -0.581124
    H   H129  0.109076  0.359400  0.575815  0.274194
    H   H130  0.190069  0.403930  0.598366  0.126452
    H   H131  0.245421  0.414797  0.570106  0.159959
    H   H132  0.260361  0.360319  0.598323  0.166278
    N   N22   0.679307  0.136156  0.567852  -0.718659
    C   C235  0.670203  0.197237  0.565998  0.858714
    O   O78   0.701198  0.228286  0.549899  -0.596848
    C   C236  0.621177  0.227162  0.583256  -0.583579
    H   H133  0.641934  0.111696  0.574860  0.273488
    H   H134  0.597966  0.193276  0.597181  0.126757
    H   H135  0.587014  0.248174  0.568736  0.160631
    H   H136  0.641885  0.263372  0.596759  0.166986
    N   N23   0.872092  0.679800  0.570822  -0.716478
    C   C237  0.810934  0.670464  0.570133  0.850500
    O   O79   0.778416  0.701172  0.554553  -0.595603
    C   C238  0.782692  0.621543  0.588056  -0.568882
    H   H137  0.897279  0.642568  0.577415  0.270925
    H   H138  0.817792  0.598802  0.601481  0.120060
    H   H139  0.760792  0.587002  0.574023  0.158614
    H   H140  0.747427  0.642246  0.602092  0.163197
    N   N24   0.321451  0.873055  0.571639  -0.718500
    C   C239  0.330730  0.811887  0.571044  0.850953
    O   O80   0.299754  0.779249  0.555633  -0.595787
    C   C240  0.379908  0.783776  0.588858  -0.569242
    H   H141  0.358804  0.898279  0.578052  0.272618
    H   H142  0.402865  0.818978  0.602145  0.121188
    H   H143  0.414230  0.761741  0.574754  0.158628
    H   H144  0.359399  0.748644  0.603027  0.162781
