# Generated by REPEAT Assigner based on pymatgen
data_DB0-m29_o83_o1510_f0_pts.sym.46
_audit_creation_date              2022-05-24
_audit_creation_method            REPEAT_Assigner
_cell_length_a                    15.809844
_cell_length_b                    20.471565
_cell_length_c                    13.161171
_cell_angle_alpha                 91.349378
_cell_angle_beta                  88.188627
_cell_angle_gamma                 68.234417
_cell_volume                      3951.135128
_symmetry_space_group_name_H-M    P1
_symmetry_Int_Tables_number       1
loop_
    _symmetry_equiv_pos_site_id
    _symmetry_equiv_pos_as_xyz
    1  x,y,z
loop_
    _atom_site_type_symbol
    _atom_site_label
    _atom_site_fract_x
    _atom_site_fract_y
    _atom_site_fract_z
    _atom_type_partial_charge
    C   C1   0.277215  0.003444  0.047628  -0.029386
    C   C2   0.257874  0.009534  0.945017  -0.048748
    C   C3   0.174964  0.008383  0.914922  -0.145214
    C   C4   0.216250  0.992545  0.115368  -0.223157
    C   C5   0.134461  0.991335  0.084832  0.191568
    C   C6   0.110902  0.000562  0.984670  0.058561
    C   C7   0.025005  0.000764  0.957657  0.065826
    C   C8   0.997024  0.010613  0.858113  -0.173424
    C   C9   0.914402  0.009458  0.832609  -0.193263
    C   C10  0.076611  0.980914  0.156668  -0.194860
    C   C11  0.993813  0.980154  0.131142  -0.171182
    C   C12  0.965259  0.991292  0.031961  0.064531
    C   C13  0.878992  0.992232  0.005228  0.063396
    C   C14  0.855895  0.000368  0.904873  0.179970
    C   C15  0.773937  0.999368  0.874597  -0.194217
    C   C16  0.813968  0.986540  0.075572  -0.162227
    C   C17  0.730826  0.985686  0.045795  -0.005955
    C   C18  0.712122  0.990124  0.942920  -0.068709
    H   H1   0.163926  0.012050  0.835075  0.111484
    H   H2   0.231291  0.987439  0.194969  0.195885
    H   H3   0.036768  0.019486  0.796221  0.164412
    H   H4   0.895396  0.016517  0.754281  0.131047
    H   H5   0.096160  0.972718  0.234706  0.131135
    H   H6   0.954732  0.969770  0.192420  0.160883
    H   H7   0.759325  0.003511  0.794839  0.184751
    H   H8   0.824177  0.985028  0.155674  0.122189
    O   O1   0.577161  0.001609  0.103854  -0.569029
    C   C19  0.662934  0.984884  0.125490  0.616706
    O   O2   0.619060  0.848329  0.220597  -0.445833
    O   O3   0.686606  0.972587  0.219910  -0.522017
    O   O4   0.536543  0.936711  0.333804  -0.581625
    C   C20  0.591746  0.871213  0.314483  0.606131
    Fe  Fe1  0.495178  0.001431  0.220499  1.484012
    O   O5   0.397545  0.971718  0.165382  -0.665134
    O   O6   0.381099  0.063961  0.065035  -0.487585
    C   C21  0.357935  0.010929  0.089950  0.793606
    O   O7   0.462965  0.099178  0.280188  -0.651502
    O   O8   0.321899  0.094625  0.289225  -0.561845
    C   C22  0.377231  0.126387  0.313109  0.723513
    O   O9   0.520539  0.898503  0.707607  -0.674868
    O   O10  0.666099  0.893550  0.710746  -0.564696
    C   C23  0.607131  0.867199  0.679543  0.747221
    O   O11  0.592862  0.021804  0.824011  -0.662331
    O   O12  0.605110  0.932061  0.927977  -0.483386
    C   C24  0.630668  0.983545  0.901014  0.816885
    O   O13  0.301103  0.025272  0.771571  -0.505215
    O   O14  0.451512  0.061567  0.658001  -0.596797
    C   C25  0.399389  0.127987  0.676433  0.607443
    O   O15  0.410986  0.995386  0.887059  -0.571398
    C   C26  0.325133  0.012113  0.865728  0.638797
    O   O16  0.372242  0.152659  0.769670  -0.501628
    Fe  Fe2  0.492351  0.995241  0.769524  1.491219
    H   H9   0.447054  0.086435  0.484152  0.128584
    C   C27  0.355553  0.169800  0.406532  0.013435
    C   C28  0.285995  0.234544  0.413175  -0.181138
    H   H10  0.251643  0.255487  0.344737  0.115430
    C   C29  0.259206  0.270659  0.506439  0.104319
    C   C30  0.297920  0.237700  0.594478  -0.185956
    H   H11  0.275661  0.263575  0.668369  0.126543
    C   C31  0.364858  0.170572  0.587458  0.041052
    C   C32  0.395742  0.138869  0.492681  -0.120424
    C   C33  0.968681  0.593472  0.447193  -0.113864
    H   H12  0.033753  0.591932  0.417097  0.122257
    C   C34  0.893580  0.654790  0.439295  -0.284821
    H   H13  0.901280  0.699299  0.403286  0.145423
    C   C35  0.810151  0.660536  0.481626  0.396934
    C   C36  0.802197  0.604409  0.531249  -0.194588
    H   H14  0.737136  0.608620  0.565223  0.105601
    C   C37  0.876482  0.542435  0.536987  -0.109196
    H   H15  0.866738  0.498751  0.573018  0.112810
    C   C38  0.960954  0.536474  0.496039  0.005193
    C   C39  0.696698  0.761363  0.395455  0.257098
    C   C40  0.626785  0.827434  0.402734  -0.036114
    C   C41  0.592421  0.857060  0.498089  -0.198301
    H   H16  0.540033  0.909015  0.506842  0.167253
    C   C42  0.630083  0.824858  0.584896  0.039809
    C   C43  0.700430  0.760512  0.578008  -0.181871
    H   H17  0.732745  0.736818  0.646247  0.112052
    C   C44  0.732655  0.727785  0.484027  -0.134966
    C   C45  0.107669  0.448663  0.425799  -0.145226
    H   H18  0.103163  0.479403  0.359230  0.111828
    C   C46  0.180133  0.385520  0.429786  -0.141985
    H   H19  0.231259  0.371103  0.368252  0.115941
    C   C47  0.186596  0.341419  0.509736  0.093660
    C   C48  0.121258  0.363657  0.588587  -0.137122
    H   H20  0.123351  0.330501  0.651823  0.135331
    C   C49  0.049460  0.427670  0.585591  -0.185440
    H   H21  0.000218  0.443486  0.648972  0.125024
    C   C50  0.040791  0.470222  0.503045  0.142368
    O   O17  0.731055  0.731000  0.303714  -0.237062
    C   C51  0.705444  0.679540  0.261487  0.045680
    C   C52  0.751466  0.655384  0.158977  0.266995
    C   C53  0.811968  0.682978  0.116971  -0.192399
    C   C54  0.852772  0.659102  0.022026  -0.071519
    C   C55  0.833657  0.607863  0.968678  -0.126575
    C   C56  0.773603  0.580329  0.010248  -0.076535
    C   C57  0.732674  0.604043  0.105100  -0.253444
    H   H22  0.630562  0.700846  0.253495  0.048089
    H   H23  0.723703  0.633919  0.311370  -0.008416
    H   H24  0.828577  0.723166  0.156618  0.116173
    H   H25  0.899929  0.680672  0.989360  0.098618
    H   H26  0.865765  0.589288  0.894300  0.096378
    H   H27  0.758556  0.540121  0.968479  0.104022
    H   H28  0.685577  0.582261  0.137354  0.127122
