# Generated by REPEAT Assigner based on pymatgen
data_DB0-m29_o93_o46_f0_pts.sym.59
_audit_creation_date              2022-05-24
_audit_creation_method            REPEAT_Assigner
_cell_length_a                    15.067977
_cell_length_b                    10.160620
_cell_length_c                    13.206403
_cell_angle_alpha                 97.874498
_cell_angle_beta                  101.890260
_cell_angle_gamma                 108.654026
_cell_volume                      1829.138166
_symmetry_space_group_name_H-M    P1
_symmetry_Int_Tables_number       1
loop_
    _symmetry_equiv_pos_site_id
    _symmetry_equiv_pos_as_xyz
    1  x,y,z
loop_
    _atom_site_type_symbol
    _atom_site_label
    _atom_site_fract_x
    _atom_site_fract_y
    _atom_site_fract_z
    _atom_type_partial_charge
    C   C1   0.824806  0.023488  0.212669  0.235990
    C   C2   0.912862  0.032750  0.191884  -0.348999
    H   H1   0.977684  0.051458  0.253209  0.096519
    C   C3   0.921764  0.014162  0.090356  0.415714
    C   C4   0.843435  0.995726  0.006625  -0.170722
    H   H2   0.851032  0.988294  0.926789  0.086135
    C   C5   0.754388  0.988784  0.024030  -0.024098
    C   C6   0.743193  0.994785  0.127457  -0.265742
    N   N1   0.012904  0.016594  0.076343  -0.121064
    N   N2   0.012977  0.988108  0.981806  -0.171656
    C   C7   0.116265  0.973247  0.868502  -0.293839
    H   H3   0.056770  0.960731  0.801703  0.141667
    C   C8   0.204213  0.977254  0.852500  0.016378
    H   H4   0.213303  0.970131  0.773101  0.140437
    C   C9   0.281620  0.996937  0.937084  -0.137481
    C   C10  0.269561  0.004931  0.038838  0.001021
    C   C11  0.180921  0.003201  0.054753  -0.157762
    H   H5   0.172380  0.009075  0.134255  0.086362
    C   C12  0.104311  0.989173  0.969326  0.401498
    O   O1   0.563711  0.184398  0.773299  -0.662185
    C   C13  0.493548  0.224846  0.727793  0.745942
    O   O2   0.452272  0.127392  0.967292  -0.519159
    O   O3   0.403582  0.147410  0.721602  -0.580144
    O   O4   0.379098  0.929420  0.834384  -0.658702
    C   C14  0.375392  0.015266  0.915512  0.817266
    Fe  Fe1  0.507934  0.995106  0.805115  1.476496
    O   O5   0.594596  0.993336  0.942131  -0.567084
    O   O6   0.694540  0.982122  0.838031  -0.469735
    C   C15  0.677178  0.983751  0.931493  0.660631
    O   O7   0.496797  0.867081  0.669550  -0.595879
    O   O8   0.536140  0.718087  0.769084  -0.486364
    C   C16  0.505568  0.743880  0.676025  0.610814
    O   O9   0.509779  0.099050  0.386239  -0.550443
    O   O10  0.594017  0.282037  0.321183  -0.460923
    C   C17  0.551631  0.236179  0.393501  0.593868
    O   O11  0.417274  0.963545  0.114634  -0.534026
    O   O12  0.339871  0.041433  0.226239  -0.481664
    C   C18  0.346522  0.007215  0.129384  0.559851
    O   O13  0.595740  0.756255  0.287086  -0.521658
    O   O14  0.633840  0.040716  0.226882  -0.639144
    C   C19  0.645976  0.961779  0.147143  0.916462
    O   O15  0.451409  0.781525  0.289123  -0.613438
    C   C20  0.513350  0.716815  0.312887  0.638450
    O   O16  0.574035  0.845518  0.091625  -0.454634
    Fe  Fe2  0.504200  0.969584  0.253973  1.398308
    C   C21  0.550179  0.331714  0.486954  -0.074188
    C   C22  0.553451  0.278036  0.577222  -0.101055
    H   H6   0.573419  0.185229  0.580148  0.142831
    C   C23  0.512551  0.319292  0.653548  -0.001616
    C   C24  0.476383  0.428446  0.644762  -0.044760
    C   C25  0.500813  0.511661  0.571012  0.034179
    C   C26  0.527871  0.454629  0.484882  0.194032
    H   H7   0.548449  0.479674  0.329542  0.186759
    C   C27  0.529331  0.519294  0.398316  -0.265667
    C   C28  0.504797  0.638457  0.397674  0.104908
    H   H8   0.480224  0.803594  0.487586  0.126450
    C   C29  0.488303  0.701709  0.486656  -0.126043
    C   C30  0.493232  0.645916  0.576339  -0.001429
    C   C31  0.816440  0.040926  0.325617  -0.154587
    C   C32  0.907820  0.058815  0.409826  0.213976
    C   C33  0.887757  0.069281  0.517986  -0.393446
    H   H9   0.865072  0.161581  0.535922  0.084900
    H   H10  0.829586  0.970189  0.519444  0.095287
    H   H11  0.954889  0.084007  0.579045  0.094651
    H   H12  0.929701  0.965221  0.394018  -0.000641
    H   H13  0.967276  0.158418  0.411766  0.005072
    H   H14  0.798017  0.136823  0.345509  0.084273
    H   H15  0.758588  0.945798  0.332283  0.076243
    C   C34  0.393841  0.429456  0.693088  0.121133
    C   C35  0.299049  0.316049  0.624070  0.147579
    C   C36  0.242175  0.381590  0.551302  -0.251866
    H   H16  0.219499  0.457821  0.598559  0.061735
    H   H17  0.287179  0.436872  0.502395  0.036189
    H   H18  0.176232  0.295946  0.498112  0.046049
    H   H19  0.313531  0.232328  0.574347  0.009627
    H   H20  0.254364  0.267365  0.675640  -0.011289
    H   H21  0.408967  0.409757  0.774248  0.006398
    H   H22  0.380082  0.529698  0.700155  0.001053
