# generated using pymatgen
data_FeH15C34N3O10
_symmetry_space_group_name_H-M   'P 1'
_cell_length_a   17.43770300
_cell_length_b   21.41631700
_cell_length_c   17.04546600
_cell_angle_alpha   110.30872900
_cell_angle_beta   91.03001700
_cell_angle_gamma   109.73291700
_symmetry_Int_Tables_number   1
_chemical_formula_structural   FeH15C34N3O10
_chemical_formula_sum   'Fe2 H30 C68 N6 O20'
_cell_volume   5553.10475171
_cell_formula_units_Z   2
loop_
 _symmetry_equiv_pos_site_id
 _symmetry_equiv_pos_as_xyz
  1  'x, y, z'
loop_
 _atom_site_type_symbol
 _atom_site_label
 _atom_site_symmetry_multiplicity
 _atom_site_fract_x
 _atom_site_fract_y
 _atom_site_fract_z
 _atom_site_occupancy
  Fe  Fe1  1  0.53115800  0.00574400  0.33654900  1
  Fe  Fe2  1  0.47372100  0.00086400  0.66349100  1
  H  H1  1  0.01267700  0.93752300  0.22196800  1
  H  H2  1  0.72948600  0.96662100  0.00483000  1
  H  H3  1  0.98654200  0.06360800  0.77787900  1
  H  H4  1  0.27137700  0.03435100  0.99593800  1
  H  H5  1  0.93929800  0.94190700  0.01051000  1
  H  H6  1  0.06066800  0.05861800  0.98955800  1
  H  H7  1  0.06029300  0.00625200  0.68324900  1
  H  H8  1  0.29555800  0.00740700  0.85191700  1
  H  H9  1  0.34161100  0.02686800  0.10794800  1
  H  H10  1  0.12705700  0.92458200  0.26227200  1
  H  H11  1  0.93543700  0.98990600  0.31751900  1
  H  H12  1  0.71056300  0.00348700  0.14943200  1
  H  H13  1  0.65827400  0.97322200  0.89523200  1
  H  H14  1  0.72549900  0.06274200  0.70625900  1
  H  H15  1  0.86901800  0.07650900  0.73758800  1
  H  H16  1  0.82208300  0.01701100  0.38481400  1
  H  H17  1  0.51059600  0.22790200  0.44351300  1
  H  H18  1  0.52348500  0.26228600  0.74419100  1
  H  H19  1  0.53200500  0.36028800  0.70194900  1
  H  H20  1  0.47437100  0.77442400  0.55332300  1
  H  H21  1  0.52606400  0.75732500  0.26595500  1
  H  H22  1  0.51316600  0.65894300  0.30626300  1
  H  H23  1  0.42485200  0.56693400  0.33333333  1
  H  H24  1  0.54476300  0.71054300  0.58421700  1
  H  H25  1  0.62617700  0.43726400  0.63088700  1
  H  H26  1  0.40677300  0.29364900  0.45766400  1
  H  H27  1  0.54658500  0.61093500  0.61815100  1
  H  H28  1  0.43653000  0.46909400  0.36355100  1
  H  H29  1  0.61531200  0.53543900  0.59784800  1
  H  H30  1  0.39081300  0.39185800  0.42888100  1
  C  C1  1  0.21306100  0.99275500  0.12039100  1
  C  C2  1  0.15516900  0.96680700  0.16459800  1
  C  C3  1  0.08209400  0.96758400  0.13404300  1
  C  C4  1  0.17335600  0.00659600  0.06100000  1
  C  C5  1  0.01279400  0.95228700  0.16746400  1
  C  C6  1  0.93942600  0.96400300  0.14267400  1
  C  C7  1  0.88495400  0.98049400  0.19630500  1
  C  C8  1  0.82407100  0.98514200  0.15068200  1
  C  C9  1  0.84248600  0.97179200  0.06940700  1
  C  C10  1  0.79338400  0.97367100  0.00002100  1
  C  C11  1  0.82683100  0.99375600  0.93884900  1
  C  C12  1  0.78631400  0.00691900  0.87972500  1
  C  C13  1  0.84365100  0.03338500  0.83517700  1
  C  C14  1  0.91739500  0.03302400  0.86545400  1
  C  C15  1  0.98690900  0.04879200  0.83235100  1
  C  C16  1  0.06134900  0.03820200  0.85780400  1
  C  C17  1  0.11669900  0.02310200  0.80459300  1
  C  C18  1  0.17849600  0.01957700  0.85017800  1
  C  C19  1  0.15938800  0.03150100  0.93135600  1
  C  C20  1  0.20747100  0.02759800  0.00038200  1
  C  C21  1  0.11313400  0.00828800  0.71947600  1
  C  C22  1  0.17601700  0.99102000  0.68008700  1
  C  C23  1  0.24473400  0.99418300  0.72815100  1
  C  C24  1  0.24442500  0.00623900  0.81400100  1
  C  C25  1  0.29440600  0.00277900  0.13997800  1
  C  C26  1  0.31495500  0.98266700  0.20418500  1
  C  C27  1  0.25375600  0.95247700  0.24660500  1
  C  C28  1  0.17354800  0.94618300  0.22796000  1
  C  C29  1  0.88636900  0.99269700  0.28089100  1
  C  C30  1  0.82224600  0.00856200  0.31855800  1
  C  C31  1  0.75834300  0.01204800  0.27187800  1
  C  C32  1  0.75945100  0.00101300  0.18664400  1
  C  C33  1  0.70459800  0.99674400  0.86202300  1
  C  C34  1  0.68304000  0.01736600  0.79905600  1
  C  C35  1  0.74274600  0.04757300  0.75615500  1
  C  C36  1  0.82374700  0.05468300  0.77285700  1
  C  C37  1  0.68755800  0.02197400  0.31231600  1
  C  C38  1  0.52150900  0.88401700  0.35662200  1
  C  C39  1  0.40193700  0.00196100  0.23458200  1
  C  C40  1  0.50117400  0.11051100  0.46512900  1
  C  C41  1  0.45322200  0.57782100  0.39588200  1
  C  C42  1  0.48525600  0.64682900  0.45585400  1
  C  C43  1  0.51808200  0.65744800  0.53596300  1
  C  C44  1  0.52118700  0.60050700  0.55465600  1
  C  C45  1  0.49311600  0.53198800  0.49318800  1
  C  C46  1  0.45807900  0.52125000  0.41389400  1
  C  C47  1  0.56780500  0.48308500  0.56758600  1
  C  C48  1  0.50175700  0.47177600  0.51115400  1
  C  C49  1  0.44456600  0.40281500  0.47128300  1
  C  C50  1  0.57492800  0.42715600  0.58566400  1
  C  C51  1  0.51786400  0.35871700  0.54562700  1
  C  C52  1  0.45326900  0.34666100  0.48762100  1
  C  C53  1  0.51411800  0.23520000  0.50966800  1
  C  C54  1  0.50940100  0.17824700  0.53268000  1
  C  C55  1  0.51054500  0.18656800  0.61780700  1
  C  C56  1  0.52106400  0.25325100  0.67765200  1
  C  C57  1  0.52697700  0.30967400  0.65406000  1
  C  C58  1  0.52140100  0.30049800  0.56996300  1
  C  C59  1  0.48537000  0.77031100  0.48989300  1
  C  C60  1  0.49783500  0.82949800  0.46864400  1
  C  C61  1  0.51156700  0.82540800  0.38690000  1
  C  C62  1  0.51468100  0.76252900  0.32955300  1
  C  C63  1  0.50545700  0.70515400  0.35212400  1
  C  C64  1  0.49019600  0.70798600  0.43219400  1
  C  C65  1  0.59691300  0.00311700  0.77201900  1
  C  C66  1  0.50331400  0.89664500  0.53577600  1
  C  C67  1  0.32016900  0.99224800  0.69071400  1
  C  C68  1  0.50060700  0.12816200  0.64856000  1
  N  N1  1  0.09290300  0.99143500  0.06987000  1
  N  N2  1  0.91295100  0.95816000  0.06465900  1
  N  N3  1  0.90723300  0.00937100  0.92976300  1
  N  N4  1  0.08795100  0.04379900  0.93574500  1
  N  N5  1  0.27300500  0.93280700  0.31414000  1
  N  N6  1  0.16664200  0.96667200  0.58986000  1
  O  O1  1  0.62176000  0.01712000  0.26824100  1
  O  O2  1  0.53633700  0.87516300  0.27908200  1
  O  O3  1  0.68506200  0.02585300  0.39069700  1
  O  O4  1  0.51360400  0.94410100  0.40335600  1
  O  O5  1  0.42494500  0.95701300  0.25573100  1
  O  O6  1  0.45354800  0.06781700  0.25330300  1
  O  O7  1  0.56045300  0.10654700  0.41927300  1
  O  O8  1  0.43300300  0.05434100  0.44773800  1
  O  O9  1  0.58016400  0.04747900  0.74388700  1
  O  O10  1  0.54048700  0.94019800  0.75889600  1
  O  O11  1  0.44262100  0.90019100  0.57958400  1
  O  O12  1  0.57145300  0.95319200  0.55530800  1
  O  O13  1  0.49568900  0.14019700  0.72886400  1
  O  O14  1  0.38305100  0.98996600  0.73195000  1
  O  O15  1  0.49299100  0.06353200  0.59784300  1
  O  O16  1  0.32977600  0.00226000  0.61933500  1
  O  O17  1  0.24437300  0.95451400  0.38437400  1
  O  O18  1  0.29285900  0.87664400  0.29667000  1
  O  O19  1  0.12599900  0.99103700  0.55084200  1
  O  O20  1  0.17822900  0.90798100  0.54709900  1
