data_DB0-m3_o12_o28_f0_pcu.sym.3_repeat
_audit_creation_date              2024-02-23
_audit_creation_method            'Materials Studio'
_symmetry_space_group_name_H-M    'P1'
_symmetry_Int_Tables_number       1
_symmetry_cell_setting            triclinic
loop_
_symmetry_equiv_pos_as_xyz
  x,y,z
_cell_length_a                    9.9943
_cell_length_b                    11.2708
_cell_length_c                    23.4485
_cell_angle_alpha                 89.9977
_cell_angle_beta                  80.7637
_cell_angle_gamma                 92.4390
loop_
_atom_site_label
_atom_site_type_symbol
_atom_site_fract_x
_atom_site_fract_y
_atom_site_fract_z
_atom_site_U_iso_or_equiv
_atom_site_adp_type
_atom_site_occupancy
O1     O     0.42971   0.69179   0.50409   0.00000  Uiso   1.00
O2     O     0.57029   0.30821   0.49591   0.00000  Uiso   1.00
O3     O     0.65792   0.65664   0.48937   0.00000  Uiso   1.00
O4     O     0.34208   0.34335   0.51062   0.00000  Uiso   1.00
C1     C     0.55755   0.72942   0.49572   0.00000  Uiso   1.00
C2     C     0.44245   0.27058   0.50428   0.00000  Uiso   1.00
O5     O     0.38480   0.51821   0.59239   0.00000  Uiso   1.00
O6     O     0.61520   0.48179   0.40761   0.00000  Uiso   1.00
O7     O     0.61327   0.48321   0.57768   0.00000  Uiso   1.00
O8     O     0.38673   0.51679   0.42232   0.00000  Uiso   1.00
C3     C     0.49846   0.50097   0.61180   0.00000  Uiso   1.00
C4     C     0.50154   0.49902   0.38819   0.00000  Uiso   1.00
Zn1    Zn    0.34943   0.52328   0.50976   0.00000  Uiso   1.00
Zn2    Zn    0.65058   0.47672   0.49024   0.00000  Uiso   1.00
C5     C     0.44937   0.40230   0.12219   0.00000  Uiso   1.00
C6     C     0.55064   0.59770   0.87781   0.00000  Uiso   1.00
N1     N     0.50907   0.49414   0.14616   0.00000  Uiso   1.00
N2     N     0.49093   0.50586   0.85384   0.00000  Uiso   1.00
C7     C     0.56788   0.58684   0.11448   0.00000  Uiso   1.00
C8     C     0.43212   0.41315   0.88552   0.00000  Uiso   1.00
C9     C     0.57001   0.58964   0.05479   0.00000  Uiso   1.00
C10    C     0.42999   0.41036   0.94521   0.00000  Uiso   1.00
C11    C     0.50298   0.49819   0.02942   0.00000  Uiso   1.00
C12    C     0.49702   0.50180   0.97058   0.00000  Uiso   1.00
C13    C     0.44780   0.40043   0.06268   0.00000  Uiso   1.00
C14    C     0.55220   0.59956   0.93732   0.00000  Uiso   1.00
C15    C     0.63374   0.68352   0.02042   0.00000  Uiso   1.00
C16    C     0.36626   0.31648   0.97958   0.00000  Uiso   1.00
C17    C     0.61061   0.69521   0.96395   0.00000  Uiso   1.00
C18    C     0.38939   0.30479   0.03605   0.00000  Uiso   1.00
O9     O     0.38616   0.31647   0.15758   0.00000  Uiso   1.00
O10    O     0.61384   0.68352   0.84242   0.00000  Uiso   1.00
O11    O     0.61343   0.68001   0.14270   0.00000  Uiso   1.00
O12    O     0.38657   0.31999   0.85730   0.00000  Uiso   1.00
C19    C     0.37433   0.51361   0.77072   0.00000  Uiso   1.00
C20    C     0.62567   0.48639   0.22928   0.00000  Uiso   1.00
H1     H     0.27939   0.52233   0.79954   0.00000  Uiso   1.00
H2     H     0.72061   0.47766   0.20046   0.00000  Uiso   1.00
C21    C     0.37598   0.51273   0.71183   0.00000  Uiso   1.00
C22    C     0.62402   0.48726   0.28817   0.00000  Uiso   1.00
H3     H     0.28137   0.52028   0.69564   0.00000  Uiso   1.00
H4     H     0.71864   0.47972   0.30436   0.00000  Uiso   1.00
C23    C     0.49687   0.50187   0.67448   0.00000  Uiso   1.00
C24    C     0.50313   0.49812   0.32552   0.00000  Uiso   1.00
C25    C     0.61596   0.49202   0.69681   0.00000  Uiso   1.00
C26    C     0.38404   0.50797   0.30319   0.00000  Uiso   1.00
H5     H     0.71179   0.48335   0.66866   0.00000  Uiso   1.00
H6     H     0.28821   0.51665   0.33134   0.00000  Uiso   1.00
C27    C     0.61408   0.49374   0.75576   0.00000  Uiso   1.00
C28    C     0.38592   0.50626   0.24424   0.00000  Uiso   1.00
H7     H     0.70760   0.48560   0.77280   0.00000  Uiso   1.00
H8     H     0.29240   0.51440   0.22720   0.00000  Uiso   1.00
C29    C     0.49332   0.50473   0.79288   0.00000  Uiso   1.00
C30    C     0.50669   0.49526   0.20712   0.00000  Uiso   1.00
H9     H     0.61484   0.10200   0.49186   0.00000  Uiso   1.00
H10    H     0.38517   0.89800   0.50814   0.00000  Uiso   1.00
C31    C     0.58970   0.85867   0.49346   0.00000  Uiso   1.00
C32    C     0.41030   0.14133   0.50654   0.00000  Uiso   1.00
C33    C     0.48816   0.93455   0.50077   0.00000  Uiso   1.00
C34    C     0.51184   0.06545   0.49923   0.00000  Uiso   1.00
H11    H     0.11585   0.42247   0.46652   0.00000  Uiso   1.00
H12    H     0.88415   0.57753   0.53348   0.00000  Uiso   1.00
N3     N     0.84870   0.44567   0.47711   0.00000  Uiso   1.00
N4     N     0.15131   0.55433   0.52289   0.00000  Uiso   1.00
C35    C     0.92679   0.50945   0.50423   0.00000  Uiso   1.00
C36    C     0.07321   0.49055   0.49577   0.00000  Uiso   1.00
H13    H     0.10484   0.61734   0.55003   0.00000  Uiso   1.00
H14    H     0.89516   0.38266   0.44997   0.00000  Uiso   1.00
C37    C     0.74042   0.76436   0.04052   0.00000  Uiso   1.00
H15    H     0.80444   0.71298   0.06519   0.00000  Uiso   1.00
H16    H     0.81273   0.80215   0.00356   0.00000  Uiso   1.00
H17    H     0.69287   0.83787   0.06680   0.00000  Uiso   1.00
C38    C     0.25958   0.23563   0.95948   0.00000  Uiso   1.00
H18    H     0.19556   0.28702   0.93481   0.00000  Uiso   1.00
H19    H     0.30713   0.16213   0.93320   0.00000  Uiso   1.00
H20    H     0.18727   0.19785   0.99644   0.00000  Uiso   1.00
C39    C     0.63538   0.81566   0.93548   0.00000  Uiso   1.00
H21    H     0.63709   0.88732   0.96770   0.00000  Uiso   1.00
H22    H     0.73284   0.81972   0.90512   0.00000  Uiso   1.00
H23    H     0.54943   0.83637   0.91307   0.00000  Uiso   1.00
C40    C     0.36462   0.18434   0.06452   0.00000  Uiso   1.00
H24    H     0.36291   0.11267   0.03230   0.00000  Uiso   1.00
H25    H     0.45057   0.16363   0.08693   0.00000  Uiso   1.00
H26    H     0.26716   0.18028   0.09488   0.00000  Uiso   1.00
C41    C     0.26467   0.09664   0.51687   0.00000  Uiso   1.00
H27    H     0.19381   0.17013   0.52208   0.00000  Uiso   1.00
H28    H     0.24307   0.04267   0.47958   0.00000  Uiso   1.00
H29    H     0.24439   0.04221   0.55699   0.00000  Uiso   1.00
C42    C     0.73533   0.90335   0.48313   0.00000  Uiso   1.00
H30    H     0.80619   0.82987   0.47792   0.00000  Uiso   1.00
H31    H     0.75562   0.95779   0.44301   0.00000  Uiso   1.00
H32    H     0.75693   0.95733   0.52042   0.00000  Uiso   1.00
