data_DB0-m3_o12_o23_f0_pcu.sym.58_repeat
_audit_creation_date              2024-02-23
_audit_creation_method            'Materials Studio'
_symmetry_space_group_name_H-M    'P1'
_symmetry_Int_Tables_number       1
_symmetry_cell_setting            triclinic
loop_
_symmetry_equiv_pos_as_xyz
  x,y,z
_cell_length_a                    10.0065
_cell_length_b                    11.2479
_cell_length_c                    15.9646
_cell_angle_alpha                 89.9882
_cell_angle_beta                  80.7216
_cell_angle_gamma                 92.4470
loop_
_atom_site_label
_atom_site_type_symbol
_atom_site_fract_x
_atom_site_fract_y
_atom_site_fract_z
_atom_site_U_iso_or_equiv
_atom_site_adp_type
_atom_site_occupancy
O1     O     0.42819   0.68751   0.50880   0.00000  Uiso   1.00
O2     O     0.65787   0.65632   0.48446   0.00000  Uiso   1.00
C1     C     0.55527   0.72675   0.49531   0.00000  Uiso   1.00
O3     O     0.39017   0.51248   0.63763   0.00000  Uiso   1.00
O4     O     0.61995   0.48128   0.61341   0.00000  Uiso   1.00
C2     C     0.50547   0.49694   0.66436   0.00000  Uiso   1.00
Zn1    Zn    0.35154   0.51752   0.51700   0.00000  Uiso   1.00
Zn2    Zn    0.65429   0.47607   0.48489   0.00000  Uiso   1.00
O5     O     0.34797   0.33726   0.51743   0.00000  Uiso   1.00
O6     O     0.57763   0.30608   0.49309   0.00000  Uiso   1.00
O7     O     0.38591   0.51241   0.38848   0.00000  Uiso   1.00
O8     O     0.61568   0.48120   0.36424   0.00000  Uiso   1.00
C3     C     0.45055   0.26684   0.50657   0.00000  Uiso   1.00
C4     C     0.50036   0.49675   0.33753   0.00000  Uiso   1.00
C5     C     0.40223   0.59426   0.96449   0.00000  Uiso   1.00
C6     C     0.64545   0.53225   0.94022   0.00000  Uiso   1.00
C7     C     0.64241   0.53539   0.03546   0.00000  Uiso   1.00
H1     H     0.42789   0.67781   0.08746   0.00000  Uiso   1.00
H2     H     0.71236   0.46098   0.91319   0.00000  Uiso   1.00
H3     H     0.68779   0.61722   0.91012   0.00000  Uiso   1.00
H4     H     0.67320   0.62559   0.05513   0.00000  Uiso   1.00
H5     H     0.71476   0.47140   0.05298   0.00000  Uiso   1.00
C8     C     0.49979   0.49767   0.24771   0.00000  Uiso   1.00
C9     C     0.50344   0.50497   0.92164   0.00000  Uiso   1.00
C10    C     0.40180   0.59149   0.06018   0.00000  Uiso   1.00
C11    C     0.50055   0.50125   0.08053   0.00000  Uiso   1.00
C12    C     0.45809   0.37908   0.05167   0.00000  Uiso   1.00
C13    C     0.45828   0.38161   0.95685   0.00000  Uiso   1.00
C14    C     0.49995   0.49896   0.17222   0.00000  Uiso   1.00
C15    C     0.50556   0.50137   0.82969   0.00000  Uiso   1.00
C16    C     0.50630   0.49878   0.75414   0.00000  Uiso   1.00
H6     H     0.35509   0.35742   0.94371   0.00000  Uiso   1.00
H7     H     0.52864   0.31519   0.92599   0.00000  Uiso   1.00
H8     H     0.35495   0.35308   0.08493   0.00000  Uiso   1.00
H9     H     0.30130   0.55675   0.95564   0.00000  Uiso   1.00
H10    H     0.29841   0.56353   0.09200   0.00000  Uiso   1.00
H11    H     0.53000   0.31293   0.06667   0.00000  Uiso   1.00
H12    H     0.62506   0.09187   0.48796   0.00000  Uiso   1.00
H13    H     0.38076   0.90173   0.51393   0.00000  Uiso   1.00
C17    C     0.58513   0.85555   0.49214   0.00000  Uiso   1.00
C18    C     0.48621   0.93262   0.50270   0.00000  Uiso   1.00
H14    H     0.31581   0.10541   0.52090   0.00000  Uiso   1.00
C19    C     0.42070   0.13804   0.50974   0.00000  Uiso   1.00
C20    C     0.51961   0.06097   0.49918   0.00000  Uiso   1.00
H15    H     0.69002   0.88818   0.48098   0.00000  Uiso   1.00
H16    H     0.11984   0.42490   0.44721   0.00000  Uiso   1.00
H17    H     0.88598   0.56863   0.55469   0.00000  Uiso   1.00
N1     N     0.85295   0.44818   0.46341   0.00000  Uiso   1.00
C21    C     0.92972   0.50599   0.50755   0.00000  Uiso   1.00
H18    H     0.10541   0.60358   0.58206   0.00000  Uiso   1.00
N2     N     0.15286   0.54533   0.53851   0.00000  Uiso   1.00
C22    C     0.07610   0.48752   0.49437   0.00000  Uiso   1.00
H19    H     0.90039   0.38990   0.41988   0.00000  Uiso   1.00
C23    C     0.41283   0.72057   0.92371   0.00000  Uiso   1.00
C24    C     0.27148   0.76794   0.93140   0.00000  Uiso   1.00
C25    C     0.50246   0.81370   0.96022   0.00000  Uiso   1.00
H20    H     0.45193   0.71650   0.85500   0.00000  Uiso   1.00
H21    H     0.22136   0.76555   0.99866   0.00000  Uiso   1.00
H22    H     0.20984   0.71366   0.89248   0.00000  Uiso   1.00
H23    H     0.27856   0.86106   0.90771   0.00000  Uiso   1.00
H24    H     0.44616   0.85359   0.01824   0.00000  Uiso   1.00
H25    H     0.53052   0.88620   0.91274   0.00000  Uiso   1.00
H26    H     0.59683   0.77720   0.97451   0.00000  Uiso   1.00
