# generated using pymatgen
data_FeH13C25(NO4)2
_symmetry_space_group_name_H-M   'P 1'
_cell_length_a   17.52713800
_cell_length_b   14.29161100
_cell_length_c   12.98845800
_cell_angle_alpha   87.04379700
_cell_angle_beta   81.78109600
_cell_angle_gamma   111.97271700
_symmetry_Int_Tables_number   1
_chemical_formula_structural   FeH13C25(NO4)2
_chemical_formula_sum   'Fe2 H26 C50 N4 O16'
_cell_volume   2966.54884229
_cell_formula_units_Z   2
loop_
 _symmetry_equiv_pos_site_id
 _symmetry_equiv_pos_as_xyz
  1  'x, y, z'
loop_
 _atom_site_type_symbol
 _atom_site_label
 _atom_site_symmetry_multiplicity
 _atom_site_fract_x
 _atom_site_fract_y
 _atom_site_fract_z
 _atom_site_occupancy
  Fe  Fe1  1  0.51495800  0.01693800  0.22226300  1
  Fe  Fe2  1  0.50593600  0.00979600  0.76917600  1
  H  H1  1  0.27313000  0.02916600  0.23426600  1
  H  H2  1  0.22634100  0.93520600  0.81214200  1
  H  H3  1  0.00259200  0.01998100  0.26814500  1
  H  H4  1  0.09626600  0.92134500  0.78141000  1
  H  H5  1  0.90234600  0.04550300  0.23073900  1
  H  H6  1  0.01304100  0.97908300  0.73482600  1
  H  H7  1  0.77546000  0.03624300  0.19532200  1
  H  H8  1  0.88706500  0.97266800  0.70047700  1
  H  H9  1  0.49373100  0.37439800  0.30830700  1
  H  H10  1  0.51045000  0.38683700  0.63402500  1
  H  H11  1  0.48058600  0.62982100  0.69536900  1
  H  H12  1  0.47799600  0.63141800  0.36574500  1
  H  H13  1  0.55165100  0.15362900  0.47153900  1
  H  H14  1  0.44354200  0.86730100  0.52794100  1
  H  H15  1  0.68204200  0.79363600  0.78110900  1
  H  H16  1  0.77531200  0.84013300  0.68265800  1
  H  H17  1  0.67804100  0.83420800  0.64869900  1
  H  H18  1  0.81955000  0.09731900  0.68123900  1
  H  H19  1  0.72528300  0.05646100  0.62599800  1
  H  H20  1  0.80244600  0.00430900  0.58774300  1
  H  H21  1  0.18152400  0.19124600  0.29801600  1
  H  H22  1  0.17313600  0.13847100  0.43034600  1
  H  H23  1  0.07979900  0.12561000  0.37925500  1
  H  H24  1  0.09296900  0.87627000  0.36353300  1
  H  H25  1  0.02710700  0.94077900  0.41558200  1
  H  H26  1  0.11920100  0.95273700  0.46942900  1
  C  C1  1  0.25682400  0.02103100  0.15724100  1
  C  C2  1  0.12210800  0.02247200  0.22003800  1
  C  C3  1  0.31734900  0.02197900  0.07662400  1
  C  C4  1  0.29961000  0.01304300  0.97550800  1
  C  C5  1  0.17981200  0.01655700  0.13913100  1
  C  C6  1  0.15970200  0.00310400  0.04077900  1
  C  C7  1  0.21775000  0.99478800  0.96091500  1
  C  C8  1  0.19055900  0.96099100  0.86995800  1
  C  C9  1  0.04537300  0.01806200  0.20139300  1
  C  C10  1  0.02437400  0.00778300  0.10186100  1
  C  C11  1  0.08136800  0.99650000  0.02254400  1
  C  C12  1  0.06022000  0.97781800  0.92495800  1
  C  C13  1  0.11330700  0.95239700  0.85237100  1
  C  C14  1  0.89017200  0.02328400  0.15514000  1
  C  C15  1  0.94702300  0.00531800  0.08086900  1
  C  C16  1  0.92721500  0.98975100  0.98164800  1
  C  C17  1  0.98494900  0.97914100  0.90321700  1
  C  C18  1  0.96821300  0.97555300  0.80227500  1
  C  C19  1  0.81401700  0.01718100  0.13461000  1
  C  C20  1  0.79082800  0.99341800  0.03893800  1
  C  C21  1  0.84991800  0.98577900  0.96020400  1
  C  C22  1  0.83224500  0.97516600  0.85972100  1
  C  C23  1  0.71170800  0.98373700  0.01984800  1
  C  C24  1  0.69549300  0.97550500  0.91806000  1
  C  C25  1  0.89365500  0.97347500  0.78128400  1
  C  C26  1  0.75513900  0.97068000  0.83825600  1
  C  C27  1  0.64556200  0.98031100  0.10684900  1
  C  C28  1  0.46983400  0.81835000  0.33917900  1
  C  C29  1  0.39876700  0.03395800  0.10368300  1
  C  C30  1  0.51312000  0.19673700  0.29686000  1
  C  C31  1  0.46919800  0.81146600  0.71015400  1
  C  C32  1  0.61586100  0.97193000  0.89051900  1
  C  C33  1  0.53041900  0.20737200  0.66220200  1
  C  C34  1  0.36597700  0.02250800  0.88593500  1
  C  C35  1  0.52626200  0.26109600  0.38132800  1
  C  C36  1  0.50761500  0.34626900  0.37923200  1
  C  C37  1  0.50602100  0.39586300  0.46738400  1
  C  C38  1  0.51671500  0.35419000  0.56163500  1
  C  C39  1  0.53287100  0.26610500  0.56402700  1
  C  C40  1  0.54160200  0.22365400  0.47203100  1
  C  C41  1  0.47175500  0.66288800  0.62352800  1
  C  C42  1  0.45877800  0.75190800  0.62156600  1
  C  C43  1  0.45048500  0.79537000  0.52917400  1
  C  C44  1  0.45977900  0.75420100  0.43677200  1
  C  C45  1  0.46992200  0.66223700  0.43889100  1
  C  C46  1  0.47510300  0.61585800  0.53385800  1
  C  C47  1  0.71642200  0.84957300  0.71145100  1
  C  C48  1  0.77229800  0.03158100  0.65397700  1
  C  C49  1  0.14390700  0.12711800  0.35925700  1
  C  C50  1  0.09239300  0.94610200  0.39651400  1
  N  N1  1  0.49009400  0.48590300  0.45870900  1
  N  N2  1  0.48961900  0.52488800  0.54193800  1
  N  N3  1  0.73141200  0.95083000  0.73884500  1
  N  N4  1  0.14206200  0.03329500  0.32177900  1
  O  O1  1  0.59597000  0.02849500  0.09450200  1
  O  O2  1  0.46350300  0.78125600  0.24900500  1
  O  O3  1  0.63430100  0.92587600  0.19626800  1
  O  O4  1  0.49257700  0.91660200  0.34518600  1
  O  O5  1  0.40157900  0.97315800  0.18136300  1
  O  O6  1  0.46599300  0.11359900  0.06228500  1
  O  O7  1  0.56698100  0.15460400  0.26981500  1
  O  O8  1  0.43728700  0.15638600  0.27634500  1
  O  O9  1  0.43787300  0.88169200  0.71413600  1
  O  O10  1  0.52724000  0.81417100  0.76432300  1
  O  O11  1  0.61771000  0.02771800  0.80566500  1
  O  O12  1  0.54410100  0.90897600  0.94493500  1
  O  O13  1  0.36268400  0.05513500  0.79103200  1
  O  O14  1  0.53889400  0.12032500  0.65314800  1
  O  O15  1  0.43137500  0.00371200  0.90123900  1
  O  O16  1  0.50808100  0.23248000  0.75407000  1
