# generated using pymatgen
data_ZnH20C27NO4
_symmetry_space_group_name_H-M   'P 1'
_cell_length_a   17.77379700
_cell_length_b   16.59399000
_cell_length_c   15.07852200
_cell_angle_alpha   90.00000000
_cell_angle_beta   90.01049400
_cell_angle_gamma   90.00000000
_symmetry_Int_Tables_number   1
_chemical_formula_structural   ZnH20C27NO4
_chemical_formula_sum   'Zn2 H40 C54 N2 O8'
_cell_volume   4447.23220871
_cell_formula_units_Z   2
loop_
 _symmetry_equiv_pos_site_id
 _symmetry_equiv_pos_as_xyz
  1  'x, y, z'
loop_
 _atom_site_type_symbol
 _atom_site_label
 _atom_site_symmetry_multiplicity
 _atom_site_fract_x
 _atom_site_fract_y
 _atom_site_fract_z
 _atom_site_occupancy
  Zn  Zn1  1  0.50000000  0.59240500  0.50000000  1
  Zn  Zn2  1  0.50000000  0.40901100  0.50000000  1
  H  H1  1  0.61177800  0.49528900  0.77257300  1
  H  H2  1  0.38822200  0.49528900  0.22742700  1
  H  H3  1  0.31160600  0.49291900  0.92532700  1
  H  H4  1  0.68839400  0.49291900  0.07467300  1
  H  H5  1  0.87713000  0.62882900  0.50296300  1
  H  H6  1  0.12298600  0.37238200  0.50079800  1
  H  H7  1  0.12287100  0.62882900  0.49703700  1
  H  H8  1  0.87701400  0.37238200  0.49920200  1
  H  H9  1  0.73991000  0.62978200  0.50399200  1
  H  H10  1  0.26020100  0.37154700  0.49981900  1
  H  H11  1  0.26009000  0.62978200  0.49600800  1
  H  H12  1  0.73980000  0.37154700  0.50018100  1
  H  H13  1  0.41267200  0.86815300  0.40337800  1
  H  H14  1  0.58704300  0.13326500  0.59698000  1
  H  H15  1  0.58732900  0.86815300  0.59662200  1
  H  H16  1  0.41295700  0.13326500  0.40302000  1
  H  H17  1  0.41374600  0.71998300  0.40453500  1
  H  H18  1  0.58597300  0.28143700  0.59581600  1
  H  H19  1  0.58625400  0.71998300  0.59546500  1
  H  H20  1  0.41402800  0.28143700  0.40418400  1
  H  H21  1  0.35951200  0.39299700  0.70523800  1
  H  H22  1  0.31132400  0.39616000  0.81047700  1
  H  H23  1  0.26671300  0.43672400  0.71239800  1
  H  H24  1  0.31477300  0.55094700  0.79957800  1
  H  H25  1  0.36398700  0.54163000  0.70086500  1
  H  H26  1  0.64048900  0.39299700  0.29476200  1
  H  H27  1  0.68867600  0.39616000  0.18952300  1
  H  H28  1  0.73328700  0.43672400  0.28760200  1
  H  H29  1  0.68522700  0.55094700  0.20042200  1
  H  H30  1  0.63601300  0.54163000  0.29913500  1
  H  H31  1  0.21509700  0.54497600  0.00932200  1
  H  H32  1  0.21837700  0.43467000  0.00876200  1
  H  H33  1  0.17239800  0.48793400  0.09705000  1
  H  H34  1  0.29347700  0.43717000  0.14593900  1
  H  H35  1  0.28996900  0.54618500  0.14684900  1
  H  H36  1  0.78490300  0.54497600  0.99067800  1
  H  H37  1  0.78162300  0.43467000  0.99123800  1
  H  H38  1  0.82760300  0.48793400  0.90295000  1
  H  H39  1  0.70652300  0.43717000  0.85406100  1
  H  H40  1  0.71003100  0.54618500  0.85315100  1
  C  C1  1  0.35270800  0.50069800  0.49765100  1
  C  C2  1  0.64729300  0.50069800  0.50234900  1
  C  C3  1  0.50256300  0.50070600  0.32672500  1
  C  C4  1  0.49743700  0.50070600  0.67327500  1
  C  C5  1  0.56240700  0.49711500  0.81394900  1
  C  C6  1  0.43759300  0.49711500  0.18605100  1
  C  C7  1  0.49513700  0.50074200  0.77009100  1
  C  C8  1  0.50486300  0.50074200  0.22990900  1
  C  C9  1  0.42804600  0.50312300  0.81663400  1
  C  C10  1  0.57195400  0.50312300  0.18336600  1
  C  C11  1  0.43025600  0.49933400  0.90962200  1
  C  C12  1  0.56974400  0.49933400  0.09037800  1
  C  C13  1  0.49902700  0.49817400  0.95386600  1
  C  C14  1  0.50097400  0.49817400  0.04613400  1
  C  C15  1  0.56562800  0.49712900  0.90576500  1
  C  C16  1  0.43437200  0.49712900  0.09423500  1
  C  C17  1  0.36439800  0.49616200  0.95888100  1
  C  C18  1  0.63560200  0.49616200  0.04111900  1
  C  C19  1  0.36530700  0.49505800  0.05064300  1
  C  C20  1  0.63469300  0.49505800  0.94935700  1
  C  C21  1  0.84664900  0.57246400  0.50243300  1
  C  C22  1  0.15341400  0.42877100  0.49965400  1
  C  C23  1  0.15335100  0.57246400  0.49756700  1
  C  C24  1  0.84658600  0.42877100  0.50034600  1
  C  C25  1  0.76908000  0.57266100  0.50302400  1
  C  C26  1  0.23098200  0.42864100  0.49902000  1
  C  C27  1  0.23092100  0.57266100  0.49697600  1
  C  C28  1  0.76901800  0.42864100  0.50098000  1
  C  C29  1  0.72979300  0.50066800  0.50234300  1
  C  C30  1  0.27020700  0.50066800  0.49765700  1
  C  C31  1  0.88539600  0.50060200  0.50107600  1
  C  C32  1  0.11460400  0.50060200  0.49892400  1
  C  C33  1  0.96611000  0.50057800  0.50032200  1
  C  C34  1  0.03389100  0.50057800  0.49967800  1
  C  C35  1  0.45126700  0.83607700  0.44608400  1
  C  C36  1  0.54857400  0.16534100  0.55411500  1
  C  C37  1  0.54873300  0.83607700  0.55391600  1
  C  C38  1  0.45142600  0.16534100  0.44588500  1
  C  C39  1  0.45196000  0.75299000  0.44684900  1
  C  C40  1  0.54788300  0.24842900  0.55334800  1
  C  C41  1  0.54804000  0.75299000  0.55315100  1
  C  C42  1  0.45211800  0.24842900  0.44665200  1
  C  C43  1  0.50000000  0.87795300  0.50000000  1
  C  C44  1  0.50000000  0.12346500  0.50000000  1
  C  C45  1  0.50000000  0.96440800  0.50000000  1
  C  C46  1  0.50000000  0.03701100  0.50000000  1
  C  C47  1  0.35541100  0.51117100  0.76526500  1
  C  C48  1  0.32106300  0.42890500  0.74749100  1
  C  C49  1  0.64459000  0.51117100  0.23473500  1
  C  C50  1  0.67893800  0.42890500  0.25250900  1
  C  C51  1  0.29303600  0.49202000  0.10386900  1
  C  C52  1  0.22055700  0.48978000  0.05035500  1
  C  C53  1  0.70696500  0.49202000  0.89613100  1
  C  C54  1  0.77944400  0.48978000  0.94964500  1
  N  N1  1  0.50000000  0.71287400  0.50000000  1
  N  N2  1  0.50000000  0.28854300  0.50000000  1
  O  O1  1  0.38791800  0.57023600  0.49810100  1
  O  O2  1  0.61208000  0.43117400  0.50186500  1
  O  O3  1  0.61208200  0.57023600  0.50189900  1
  O  O4  1  0.38792100  0.43117400  0.49813500  1
  O  O5  1  0.50164500  0.57031200  0.36788900  1
  O  O6  1  0.49837400  0.43110800  0.63212000  1
  O  O7  1  0.49835500  0.57031200  0.63211100  1
  O  O8  1  0.50162700  0.43110800  0.36788000  1
