# generated using pymatgen
data_ZnH11C16NO5
_symmetry_space_group_name_H-M   'P 1'
_cell_length_a   8.49841300
_cell_length_b   12.31652000
_cell_length_c   12.88524100
_cell_angle_alpha   94.58502800
_cell_angle_beta   93.55855600
_cell_angle_gamma   92.98991500
_symmetry_Int_Tables_number   1
_chemical_formula_structural   ZnH11C16NO5
_chemical_formula_sum   'Zn2 H22 C32 N2 O10'
_cell_volume   1339.58764111
_cell_formula_units_Z   2
loop_
 _symmetry_equiv_pos_site_id
 _symmetry_equiv_pos_as_xyz
  1  'x, y, z'
loop_
 _atom_site_type_symbol
 _atom_site_label
 _atom_site_symmetry_multiplicity
 _atom_site_fract_x
 _atom_site_fract_y
 _atom_site_fract_z
 _atom_site_occupancy
  Zn  Zn1  1  0.48742000  0.88162000  0.51666400  1
  Zn  Zn2  1  0.49633600  0.11851900  0.48342200  1
  H  H1  1  0.99877600  0.92819500  0.42710600  1
  H  H2  1  0.98546700  0.07287800  0.57314600  1
  H  H3  1  0.70437000  0.00714900  0.17613200  1
  H  H4  1  0.27774400  0.98923700  0.82328900  1
  H  H5  1  0.67077600  0.00879800  0.02027300  1
  H  H6  1  0.31281000  0.99599900  0.98000200  1
  H  H7  1  0.45663400  0.49551300  0.61464500  1
  H  H8  1  0.52704800  0.50462400  0.38542600  1
  H  H9  1  0.59197300  0.20359300  0.77635000  1
  H  H10  1  0.73294700  0.20270400  0.88700200  1
  H  H11  1  0.37197800  0.17510900  0.88967200  1
  H  H12  1  0.51082900  0.16765500  0.00089400  1
  H  H13  1  0.61427000  0.35661700  0.98196600  1
  H  H14  1  0.40397000  0.35116400  0.99718000  1
  H  H15  1  0.47720400  0.36389100  0.86961700  1
  H  H16  1  0.45885000  0.85083600  0.04207500  1
  H  H17  1  0.27501600  0.79878900  0.08854600  1
  H  H18  1  0.59660300  0.81712100  0.21285700  1
  H  H19  1  0.41228800  0.75971100  0.25380400  1
  H  H20  1  0.39880900  0.62046800  0.10241100  1
  H  H21  1  0.57777400  0.61499900  0.18500000  1
  H  H22  1  0.58456600  0.67717000  0.06276300  1
  C  C1  1  0.11527900  0.94961600  0.28836500  1
  C  C2  1  0.86855200  0.05041300  0.71156400  1
  C  C3  1  0.98435700  0.93890000  0.34470700  1
  C  C4  1  0.99964500  0.06163600  0.65544600  1
  C  C5  1  0.83897800  0.95974900  0.30157200  1
  C  C6  1  0.14482300  0.04018900  0.69853300  1
  C  C7  1  0.82046200  0.98499700  0.20029100  1
  C  C8  1  0.16267800  0.01369900  0.79947500  1
  C  C9  1  0.94657700  0.98279500  0.13674500  1
  C  C10  1  0.03686700  0.01722000  0.86320200  1
  C  C11  1  0.09598100  0.96733800  0.18259100  1
  C  C12  1  0.88764800  0.03260700  0.81726900  1
  C  C13  1  0.92651900  0.99892100  0.02991300  1
  C  C14  1  0.05692100  0.00198900  0.97019000  1
  C  C15  1  0.20536100  0.99034400  0.01899200  1
  C  C16  1  0.77835200  0.01210500  0.98128500  1
  C  C17  1  0.22394700  0.96959700  0.12217500  1
  C  C18  1  0.75982800  0.03149400  0.87785400  1
  C  C19  1  0.27506100  0.02723900  0.63207500  1
  C  C20  1  0.70878500  0.97286600  0.36807500  1
  C  C21  1  0.26713000  0.96413100  0.35068000  1
  C  C22  1  0.71671700  0.03598600  0.64928900  1
  C  C23  1  0.50487200  0.46844600  0.45747600  1
  C  C24  1  0.47880700  0.53168900  0.54259300  1
  C  C25  1  0.48012300  0.64811800  0.53884800  1
  C  C26  1  0.50357500  0.35201700  0.46122200  1
  C  C27  1  0.61554000  0.16990100  0.85262900  1
  C  C28  1  0.49020600  0.20379800  0.92551300  1
  C  C29  1  0.49707100  0.32700800  0.94474000  1
  C  C30  1  0.39154000  0.84132000  0.11210100  1
  C  C31  1  0.48223700  0.77361600  0.18590100  1
  C  C32  1  0.51273900  0.66441200  0.13019500  1
  N  N1  1  0.50207500  0.25851900  0.46568700  1
  N  N2  1  0.48164300  0.74161700  0.53438500  1
  O  O1  1  0.32724800  0.11156300  0.58581100  1
  O  O2  1  0.65652800  0.88856100  0.41430500  1
  O  O3  1  0.32716000  0.92945000  0.61696000  1
  O  O4  1  0.65665400  0.07068300  0.38315200  1
  O  O5  1  0.31463900  0.88242500  0.40212700  1
  O  O6  1  0.66911900  0.11776100  0.59796100  1
  O  O7  1  0.32791000  0.06442500  0.37144400  1
  O  O8  1  0.65587100  0.93569300  0.62862100  1
  O  O9  1  0.61426300  0.05618200  0.83824800  1
  O  O10  1  0.36936000  0.94410500  0.16147700  1
