# generated using pymatgen
data_ZnH9C17SNO4
_symmetry_space_group_name_H-M   'P 1'
_cell_length_a   8.57892400
_cell_length_b   10.79054900
_cell_length_c   13.39536400
_cell_angle_alpha   90.00000000
_cell_angle_beta   90.00000000
_cell_angle_gamma   90.00000000
_symmetry_Int_Tables_number   1
_chemical_formula_structural   ZnH9C17SNO4
_chemical_formula_sum   'Zn2 H18 C34 S2 N2 O8'
_cell_volume   1240.02625663
_cell_formula_units_Z   2
loop_
 _symmetry_equiv_pos_site_id
 _symmetry_equiv_pos_as_xyz
  1  'x, y, z'
loop_
 _atom_site_type_symbol
 _atom_site_label
 _atom_site_symmetry_multiplicity
 _atom_site_fract_x
 _atom_site_fract_y
 _atom_site_fract_z
 _atom_site_occupancy
  Zn  Zn1  1  0.50879100  0.51642400  0.11633900  1
  Zn  Zn2  1  0.51741700  0.50186500  0.89501700  1
  H  H1  1  0.62992000  0.89420400  0.03976000  1
  H  H2  1  0.39753700  0.89964700  0.96685100  1
  H  H3  1  0.62867400  0.11910600  0.04452600  1
  H  H4  1  0.39627100  0.12455200  0.97161300  1
  H  H5  1  0.01332400  0.59545600  0.97255400  1
  H  H6  1  0.01287800  0.42329100  0.03884200  1
  H  H7  1  0.51780300  0.30352700  0.75376900  1
  H  H8  1  0.49567400  0.32657700  0.24835400  1
  H  H9  1  0.51264100  0.71326400  0.26207900  1
  H  H10  1  0.52675900  0.69047600  0.75898600  1
  H  H11  1  0.51348900  0.30073600  0.57615600  1
  H  H12  1  0.49893600  0.30856800  0.42411300  1
  H  H13  1  0.26642200  0.90277800  0.32699300  1
  H  H14  1  0.27360200  0.96596000  0.45277500  1
  H  H15  1  0.26139000  0.80039000  0.43361200  1
  H  H16  1  0.78428400  0.95593100  0.66239500  1
  H  H17  1  0.78166400  0.86916200  0.54705900  1
  H  H18  1  0.78861600  0.78853800  0.66620200  1
  C  C1  1  0.01366600  0.69282300  0.98626800  1
  C  C2  1  0.87488400  0.75278100  0.00177600  1
  C  C3  1  0.15333500  0.75414100  0.99045700  1
  C  C4  1  0.87462900  0.88032900  0.01220500  1
  C  C5  1  0.15322700  0.88220300  0.99338900  1
  C  C6  1  0.73727200  0.94364700  0.02789100  1
  C  C7  1  0.28994200  0.94755300  0.98160500  1
  C  C8  1  0.73627000  0.07119600  0.02978200  1
  C  C9  1  0.28892500  0.07510400  0.98349300  1
  C  C10  1  0.01345100  0.94528800  0.00388100  1
  C  C11  1  0.01275700  0.07344300  0.00751800  1
  C  C12  1  0.87299700  0.13653500  0.01801000  1
  C  C13  1  0.15156000  0.13841100  0.99918500  1
  C  C14  1  0.87291000  0.26459600  0.02093900  1
  C  C15  1  0.15127800  0.26596200  0.00960300  1
  C  C16  1  0.01253800  0.32592400  0.02512900  1
  C  C17  1  0.73104500  0.34036700  0.01514300  1
  C  C18  1  0.29270000  0.34223700  0.00704500  1
  C  C19  1  0.73343500  0.67647700  0.00434400  1
  C  C20  1  0.29522500  0.67833500  0.99624700  1
  C  C21  1  0.52473700  0.60653900  0.71541800  1
  C  C22  1  0.50884000  0.62601400  0.30126400  1
  C  C23  1  0.51960000  0.39044500  0.71366700  1
  C  C24  1  0.49927200  0.41035100  0.29245300  1
  C  C25  1  0.51621100  0.39035500  0.61083900  1
  C  C26  1  0.50233700  0.40096400  0.39460700  1
  C  C27  1  0.51585200  0.50154200  0.55785300  1
  C  C28  1  0.51013300  0.50671500  0.45327400  1
  C  C29  1  0.52142800  0.61079000  0.61201000  1
  C  C30  1  0.51221400  0.62069400  0.40502100  1
  C  C31  1  0.51863300  0.72870800  0.46050400  1
  C  C32  1  0.52272300  0.72383400  0.56295600  1
  C  C33  1  0.31018600  0.88817500  0.40400100  1
  C  C34  1  0.74178200  0.87015500  0.62580600  1
  S  S1  1  0.52123000  0.87799100  0.40230200  1
  S  S2  1  0.53044200  0.86746900  0.62963500  1
  N  N1  1  0.52326400  0.49764200  0.76422000  1
  N  N2  1  0.50295200  0.52128100  0.24713200  1
  O  O1  1  0.68155400  0.37452300  0.92634000  1
  O  O2  1  0.67628500  0.38811400  0.09793000  1
  O  O3  1  0.34971400  0.37530900  0.91998900  1
  O  O4  1  0.34133400  0.38980600  0.09151900  1
  O  O5  1  0.67611200  0.64376700  0.09151900  1
  O  O6  1  0.68441900  0.62932700  0.91969000  1
  O  O7  1  0.34514200  0.64464100  0.08517200  1
  O  O8  1  0.35035300  0.63097800  0.91330100  1
