# Generated by REPEAT Assigner based on pymatgen
data_DB0-m3_o85_o23_f0_fsc.sym.87
_audit_creation_date              2022-05-24
_audit_creation_method            REPEAT_Assigner
_cell_length_a                    6.594910
_cell_length_b                    12.451324
_cell_length_c                    14.172669
_cell_angle_alpha                 100.172772
_cell_angle_beta                  90.669941
_cell_angle_gamma                 99.966283
_cell_volume                      1127.140270
_symmetry_space_group_name_H-M    P1
_symmetry_Int_Tables_number       1
loop_
    _symmetry_equiv_pos_site_id
    _symmetry_equiv_pos_as_xyz
    1  x,y,z
loop_
    _atom_site_type_symbol
    _atom_site_label
    _atom_site_fract_x
    _atom_site_fract_y
    _atom_site_fract_z
    _atom_type_partial_charge
    C   C1   0.312323  0.845911  0.984626  -0.089923
    H   H1   0.471138  0.841659  0.969749  0.105716
    C   C2   0.241791  0.943458  0.984117  -0.111518
    H   H2   0.349593  0.012833  0.968769  0.058677
    C   C3   0.038036  0.949935  0.001538  0.050269
    C   C4   0.908305  0.856167  0.019614  -0.136554
    H   H3   0.747146  0.855471  0.029970  0.138428
    C   C5   0.978634  0.757900  0.019338  -0.134766
    C   C6   0.182730  0.753215  0.002378  -0.065431
    C   C7   0.755581  0.059895  0.015210  -0.102120
    H   H4   0.647771  0.990516  0.030545  0.069284
    C   C8   0.685057  0.157447  0.014715  -0.131203
    H   H5   0.526243  0.161699  0.029591  0.137960
    C   C9   0.814658  0.250148  0.996977  -0.053233
    C   C10  0.018753  0.245463  0.980017  -0.125725
    C   C11  0.089075  0.147191  0.979728  -0.133986
    H   H6   0.250234  0.147888  0.969374  0.116783
    C   C12  0.959336  0.053418  0.997789  0.047382
    O   O1   0.664523  0.396984  0.079440  -0.725997
    O   O2   0.681483  0.375453  0.914818  -0.754338
    C   C13  0.727905  0.350203  0.997597  0.855822
    O   O3   0.257571  0.367962  0.904450  -0.697372
    O   O4   0.244741  0.397985  0.069533  -0.694798
    C   C14  0.172912  0.345889  0.983958  0.847283
    O   O5   0.332863  0.606379  0.919915  -0.736478
    O   O6   0.315898  0.627908  0.084537  -0.716205
    C   C15  0.269482  0.653160  0.001759  0.836395
    O   O7   0.739813  0.635402  0.094909  -0.737767
    O   O8   0.752647  0.605377  0.929819  -0.724272
    C   C16  0.824475  0.657473  0.015397  0.906900
    Zn  Zn1  0.503181  0.485690  0.892992  1.089130
    Zn  Zn2  0.494203  0.517673  0.106364  1.113294
    C   C17  0.706856  0.551511  0.563921  -0.041811
    C   C18  0.333366  0.553612  0.567915  -0.115056
    C   C19  0.352029  0.581533  0.468232  -0.113278
    H   H7   0.772186  0.637469  0.445409  0.055231
    H   H8   0.728373  0.637931  0.603991  0.025513
    H   H9   0.180225  0.502342  0.573414  0.031202
    H   H10  0.350825  0.631319  0.621731  0.043031
    H   H11  0.415615  0.670972  0.473495  0.038194
    H   H12  0.197888  0.561923  0.430819  0.028676
    N   N1   0.492467  0.532515  0.231807  0.003831
    C   C20  0.500053  0.488963  0.586152  0.609129
    C   C21  0.712180  0.552251  0.457259  -0.137969
    C   C22  0.496125  0.513737  0.413078  0.582824
    C   C23  0.427100  0.392553  0.418896  -0.159408
    C   C24  0.456934  0.376451  0.521296  -0.250130
    C   C25  0.493766  0.526368  0.312335  -0.222252
    C   C26  0.503158  0.476749  0.686971  -0.279369
    N   N2   0.504901  0.470841  0.767548  0.068454
    H   H13  0.589388  0.333511  0.526816  0.106425
    H   H14  0.519324  0.341056  0.371176  0.073649
    H   H15  0.832034  0.510605  0.585572  -0.007731
    H   H16  0.813356  0.495137  0.423649  0.050307
    H   H17  0.261794  0.367262  0.395978  0.075463
    C   C27  0.266331  0.308434  0.549600  0.618501
    O   O9   0.204798  0.215309  0.504588  -0.520790
    N   N3   0.153964  0.352477  0.628171  -0.557065
    H   H18  0.025598  0.292270  0.634117  0.276338
    H   H19  0.247349  0.363974  0.690375  0.216452
