# generated using pymatgen
data_ZnH11C34N2(O3F)2
_symmetry_space_group_name_H-M   'P 1'
_cell_length_a   17.47787700
_cell_length_b   8.54581700
_cell_length_c   23.29065600
_cell_angle_alpha   90.00000000
_cell_angle_beta   93.83922300
_cell_angle_gamma   90.00000000
_symmetry_Int_Tables_number   1
_chemical_formula_structural   ZnH11C34N2(O3F)2
_chemical_formula_sum   'Zn2 H22 C68 N4 O12 F4'
_cell_volume   3470.94936179
_cell_formula_units_Z   2
loop_
 _symmetry_equiv_pos_site_id
 _symmetry_equiv_pos_as_xyz
  1  'x, y, z'
loop_
 _atom_site_type_symbol
 _atom_site_label
 _atom_site_symmetry_multiplicity
 _atom_site_fract_x
 _atom_site_fract_y
 _atom_site_fract_z
 _atom_site_occupancy
  Zn  Zn1  1  0.91499300  0.50013600  0.50306700  1
  Zn  Zn2  1  0.08486500  0.49980100  0.49701900  1
  H  H1  1  0.99604000  0.25085500  0.69236400  1
  H  H2  1  0.00621000  0.74928800  0.30823600  1
  H  H3  1  0.99890700  0.25049100  0.30560400  1
  H  H4  1  0.99856200  0.74997800  0.69442500  1
  H  H5  1  0.14549500  0.24908600  0.86384400  1
  H  H6  1  0.86769300  0.72207200  0.13638600  1
  H  H7  1  0.13706900  0.26982600  0.15004100  1
  H  H8  1  0.85056900  0.75903100  0.84941300  1
  H  H9  1  0.13674800  0.27881400  0.04950700  1
  H  H10  1  0.84847300  0.75597800  0.94997000  1
  H  H11  1  0.14982500  0.24867800  0.96448900  1
  H  H12  1  0.86576200  0.71752800  0.03574600  1
  H  H13  1  0.03575200  0.99669400  0.54074900  1
  H  H14  1  0.96410400  0.00312700  0.45935500  1
  H  H15  1  0.80222600  0.50271800  0.41500100  1
  H  H16  1  0.19764700  0.49730500  0.58508400  1
  H  H17  1  0.68122600  0.50418900  0.36097300  1
  H  H18  1  0.31865000  0.49584400  0.63910500  1
  H  H19  1  0.55962100  0.50508400  0.30700300  1
  H  H20  1  0.44024700  0.49484300  0.69306900  1
  H  H21  1  0.41998000  0.50424000  0.30381400  1
  H  H22  1  0.57988500  0.49563700  0.69625700  1
  C  C1  1  0.04931400  0.09163900  0.79341800  1
  C  C2  1  0.95382200  0.90168000  0.20649900  1
  C  C3  1  0.05078100  0.09035100  0.21161900  1
  C  C4  1  0.94661800  0.91607000  0.78814800  1
  C  C5  1  0.00290300  0.85972700  0.67183300  1
  C  C6  1  0.99591300  0.14039200  0.32813100  1
  C  C7  1  0.99758800  0.85979100  0.32943500  1
  C  C8  1  0.00335200  0.14036800  0.67081200  1
  C  C9  1  0.01539400  0.85900800  0.61393100  1
  C  C10  1  0.98424100  0.14089300  0.38615600  1
  C  C11  1  0.98476900  0.86175000  0.38715700  1
  C  C12  1  0.01531000  0.13824700  0.61295600  1
  C  C13  1  0.00069200  0.00101700  0.70097300  1
  C  C14  1  0.99918100  0.99905300  0.29902900  1
  C  C15  1  0.99837900  0.00330000  0.88045200  1
  C  C16  1  0.00197000  0.99685400  0.11938900  1
  C  C17  1  0.05004800  0.09249400  0.85278300  1
  C  C18  1  0.95371200  0.89993600  0.14715600  1
  C  C19  1  0.05079400  0.09259600  0.15217000  1
  C  C20  1  0.94615700  0.91501400  0.84758100  1
  C  C21  1  0.10344600  0.17999800  0.88449000  1
  C  C22  1  0.90509700  0.80168400  0.11558800  1
  C  C23  1  0.09902400  0.19151900  0.12543000  1
  C  C24  1  0.89318800  0.82700200  0.87418300  1
  C  C25  1  0.02548900  0.99795500  0.58579700  1
  C  C26  1  0.97436000  0.00193200  0.41430600  1
  C  C27  1  0.05113100  0.09586200  0.03250300  1
  C  C28  1  0.94739600  0.90859300  0.96728400  1
  C  C29  1  0.05189100  0.09370700  0.97242800  1
  C  C30  1  0.95021700  0.90267100  0.02746100  1
  C  C31  1  0.00113600  0.99840700  0.05958800  1
  C  C32  1  0.99919100  0.00194300  0.94025000  1
  C  C33  1  0.09901700  0.19417700  0.06649500  1
  C  C34  1  0.89335500  0.82419100  0.93313300  1
  C  C35  1  0.10472100  0.18050100  0.94344100  1
  C  C36  1  0.90361800  0.80182100  0.05662300  1
  C  C37  1  0.01086100  0.71633600  0.57937200  1
  C  C38  1  0.98893200  0.28358900  0.42071100  1
  C  C39  1  0.98944900  0.72015100  0.42223000  1
  C  C40  1  0.01047400  0.27982000  0.57787200  1
  C  C41  1  0.77341000  0.50184100  0.45462500  1
  C  C42  1  0.22645500  0.49815300  0.54545700  1
  C  C43  1  0.78043600  0.49941200  0.55544600  1
  C  C44  1  0.21942000  0.50051200  0.44463700  1
  C  C45  1  0.65236200  0.50312700  0.40059200  1
  C  C46  1  0.34750600  0.49689600  0.59948200  1
  C  C47  1  0.69453000  0.50195700  0.45280700  1
  C  C48  1  0.30533500  0.49804900  0.54727000  1
  C  C49  1  0.65801300  0.50067500  0.50328600  1
  C  C50  1  0.34184900  0.49931300  0.49678900  1
  C  C51  1  0.70097100  0.49949600  0.55517700  1
  C  C52  1  0.29888700  0.50045700  0.44490000  1
  C  C53  1  0.66405900  0.49820900  0.60599600  1
  C  C54  1  0.33579900  0.50173000  0.39407900  1
  C  C55  1  0.53110200  0.50387300  0.34677600  1
  C  C56  1  0.46876400  0.49607700  0.65329500  1
  C  C57  1  0.57336000  0.50279900  0.39893800  1
  C  C58  1  0.42650700  0.49719900  0.60113400  1
  C  C59  1  0.53660100  0.50137800  0.44949000  1
  C  C60  1  0.46326200  0.49862800  0.55058100  1
  C  C61  1  0.45214900  0.50343500  0.34508400  1
  C  C62  1  0.54771500  0.49648700  0.65498700  1
  C  C63  1  0.41506900  0.50201200  0.39565700  1
  C  C64  1  0.58479200  0.49794200  0.60441500  1
  C  C65  1  0.57898400  0.50039400  0.50169600  1
  C  C66  1  0.42087800  0.49960800  0.49837600  1
  C  C67  1  0.54235100  0.49900500  0.55224700  1
  C  C68  1  0.45751000  0.50098600  0.44782500  1
  N  N1  1  0.99806900  0.00371900  0.76203700  1
  N  N2  1  0.00211100  0.99618200  0.23790100  1
  N  N3  1  0.81497300  0.50040200  0.50540800  1
  N  N4  1  0.18488500  0.49953300  0.49467700  1
  O  O1  1  0.10181500  0.17462100  0.76680900  1
  O  O2  1  0.90334200  0.81295000  0.23293400  1
  O  O3  1  0.10070400  0.17973400  0.24335800  1
  O  O4  1  0.89456700  0.83217800  0.75619100  1
  O  O5  1  0.07331100  0.66767800  0.55661000  1
  O  O6  1  0.92652500  0.33231100  0.44346600  1
  O  O7  1  0.92688300  0.67071700  0.44457600  1
  O  O8  1  0.07299700  0.32927900  0.55552400  1
  O  O9  1  0.94234000  0.66165200  0.56406200  1
  O  O10  1  0.05749600  0.33821400  0.43604100  1
  O  O11  1  0.05786700  0.66433800  0.43708300  1
  O  O12  1  0.94201000  0.33553800  0.56298900  1
  F  F1  1  0.82418300  0.49824200  0.60573100  1
  F  F2  1  0.17566900  0.50164100  0.39435400  1
  F  F3  1  0.70502300  0.49703900  0.65751600  1
  F  F4  1  0.29483100  0.50285800  0.34256100  1
