# generated using pymatgen
data_Zn2H20C37N2O9
_symmetry_space_group_name_H-M   'P 1'
_cell_length_a   12.74394400
_cell_length_b   13.63698600
_cell_length_c   14.06832100
_cell_angle_alpha   91.27292600
_cell_angle_beta   97.66303800
_cell_angle_gamma   93.42189000
_symmetry_Int_Tables_number   1
_chemical_formula_structural   Zn2H20C37N2O9
_chemical_formula_sum   'Zn2 H20 C37 N2 O9'
_cell_volume   2417.63927298
_cell_formula_units_Z   1
loop_
 _symmetry_equiv_pos_site_id
 _symmetry_equiv_pos_as_xyz
  1  'x, y, z'
loop_
 _atom_site_type_symbol
 _atom_site_label
 _atom_site_symmetry_multiplicity
 _atom_site_fract_x
 _atom_site_fract_y
 _atom_site_fract_z
 _atom_site_occupancy
  Zn  Zn1  1  0.61999900  0.47030000  0.49941800  1
  Zn  Zn2  1  0.38653700  0.51358000  0.48303700  1
  H  H1  1  0.41250700  0.41691300  0.97006700  1
  H  H2  1  0.59747900  0.57188500  0.01238000  1
  H  H3  1  0.27212200  0.21968600  0.55238400  1
  H  H4  1  0.29942900  0.88928100  0.60748900  1
  H  H5  1  0.24039600  0.04816400  0.58814800  1
  H  H6  1  0.56604200  0.15931500  0.46262400  1
  H  H7  1  0.72920100  0.75704000  0.42447300  1
  H  H8  1  0.66291900  0.05338500  0.42622200  1
  H  H9  1  0.77507800  0.92756200  0.39557000  1
  H  H10  1  0.42231000  0.76887900  0.58749400  1
  H  H11  1  0.72890500  0.31148400  0.58382000  1
  H  H12  1  0.08888500  0.29536100  0.62580400  1
  H  H13  1  0.90789800  0.26046700  0.61799300  1
  H  H14  1  0.83112200  0.56061800  0.44606000  1
  H  H15  1  0.28365500  0.65674300  0.38352600  1
  H  H16  1  0.95537600  0.62361300  0.38097900  1
  H  H17  1  0.10761400  0.70918900  0.33377000  1
  H  H18  1  0.21069600  0.36901200  0.75310600  1
  H  H19  1  0.17918200  0.49166900  0.71390800  1
  H  H20  1  0.31245600  0.46573900  0.75819600  1
  C  C1  1  0.55801100  0.68026400  0.48759600  1
  C  C2  1  0.48920600  0.47827000  0.30434700  1
  C  C3  1  0.44880300  0.30404700  0.49607500  1
  C  C4  1  0.51824200  0.50692200  0.67813900  1
  C  C5  1  0.52661400  0.51383900  0.78086300  1
  C  C6  1  0.53845800  0.52269900  0.96988800  1
  C  C7  1  0.47144600  0.46606600  0.01270500  1
  C  C8  1  0.47712400  0.46987100  0.11551000  1
  C  C9  1  0.53255300  0.51838900  0.86707800  1
  C  C10  1  0.48222300  0.47333500  0.20167900  1
  C  C11  1  0.31180700  0.07102100  0.55876200  1
  C  C12  1  0.42275400  0.19879900  0.50578400  1
  C  C13  1  0.67828500  0.81236200  0.44450800  1
  C  C14  1  0.70395400  0.90859500  0.42703400  1
  C  C15  1  0.63808000  0.98073800  0.44546700  1
  C  C16  1  0.54596800  0.95856700  0.48628200  1
  C  C17  1  0.52238500  0.86070000  0.50783500  1
  C  C18  1  0.47652200  0.03121600  0.50561600  1
  C  C19  1  0.38516300  0.00370400  0.54424000  1
  C  C20  1  0.36749500  0.90914200  0.57200400  1
  C  C21  1  0.43687400  0.83931900  0.55718900  1
  C  C22  1  0.49526300  0.13092500  0.48861900  1
  C  C23  1  0.32944000  0.16797300  0.53813500  1
  C  C24  1  0.58658000  0.78655400  0.48245400  1
  C  C25  1  0.89341100  0.32596600  0.57763700  1
  C  C26  1  0.21792000  0.62003800  0.41202900  1
  C  C27  1  0.11816700  0.64927900  0.38247900  1
  C  C28  1  0.03152200  0.60000600  0.41072000  1
  C  C29  1  0.04501700  0.52152400  0.47124200  1
  C  C30  1  0.14878900  0.49615300  0.50338300  1
  C  C31  1  0.95755000  0.46724000  0.49990700  1
  C  C32  1  0.97590800  0.38308800  0.55064500  1
  C  C33  1  0.07682300  0.35852900  0.58146200  1
  C  C34  1  0.16197400  0.41983100  0.56685400  1
  C  C35  1  0.85219300  0.49385200  0.48093300  1
  C  C36  1  0.79228700  0.35473800  0.55801400  1
  C  C37  1  0.23812700  0.43478900  0.71604300  1
  N  N1  1  0.77272000  0.43795200  0.51126300  1
  N  N2  1  0.23402200  0.54484000  0.47178500  1
  O  O1  1  0.63460700  0.61890500  0.49440400  1
  O  O2  1  0.45726900  0.65023000  0.47966200  1
  O  O3  1  0.58147000  0.46586000  0.35488200  1
  O  O4  1  0.40382800  0.49747600  0.34253700  1
  O  O5  1  0.54903900  0.33351200  0.50049700  1
  O  O6  1  0.37238000  0.36502700  0.48883800  1
  O  O7  1  0.60264400  0.48605200  0.63985300  1
  O  O8  1  0.42652500  0.52088800  0.62745100  1
  O  O9  1  0.25612800  0.40883500  0.62280500  1
