# generated using pymatgen
data_Fe2H18C48O17
_symmetry_space_group_name_H-M   'P 1'
_cell_length_a   15.77595500
_cell_length_b   14.26995900
_cell_length_c   10.96441000
_cell_angle_alpha   95.92833200
_cell_angle_beta   89.26465700
_cell_angle_gamma   94.66165500
_symmetry_Int_Tables_number   1
_chemical_formula_structural   Fe2H18C48O17
_chemical_formula_sum   'Fe2 H18 C48 O17'
_cell_volume   2446.98535626
_cell_formula_units_Z   1
loop_
 _symmetry_equiv_pos_site_id
 _symmetry_equiv_pos_as_xyz
  1  'x, y, z'
loop_
 _atom_site_type_symbol
 _atom_site_label
 _atom_site_symmetry_multiplicity
 _atom_site_fract_x
 _atom_site_fract_y
 _atom_site_fract_z
 _atom_site_occupancy
  Fe  Fe1  1  0.50498100  0.01042000  0.27686500  1
  Fe  Fe2  1  0.49717700  0.01822900  0.73624600  1
  H  H1  1  0.17656200  0.05181500  0.82037700  1
  H  H2  1  0.05448300  0.08431500  0.78891600  1
  H  H3  1  0.91020000  0.09527500  0.74316300  1
  H  H4  1  0.07606900  0.88071400  0.22935100  1
  H  H5  1  0.93720600  0.90022100  0.18337800  1
  H  H6  1  0.76472200  0.06754600  0.78467600  1
  H  H7  1  0.82670300  0.97231600  0.18804800  1
  H  H8  1  0.31330500  0.43060200  0.35790200  1
  H  H9  1  0.35228900  0.55760000  0.29428500  1
  H  H10  1  0.38218000  0.71504800  0.26045100  1
  H  H11  1  0.67333000  0.46141500  0.68575100  1
  H  H12  1  0.67908400  0.60446300  0.68913900  1
  H  H13  1  0.63984600  0.30538800  0.72635800  1
  H  H14  1  0.31276400  0.26527700  0.34296700  1
  H  H15  1  0.67849300  0.76778000  0.69497300  1
  H  H16  1  0.19141100  0.03843300  0.35262600  1
  H  H17  1  0.26678600  0.97206800  0.42489400  1
  H  H18  1  0.15814400  0.92564000  0.40755600  1
  C  C1  1  0.28452900  0.99562100  0.05931600  1
  C  C2  1  0.26864700  0.02334700  0.94452700  1
  C  C3  1  0.18526000  0.02947100  0.90949400  1
  C  C4  1  0.21687800  0.95882500  0.12756600  1
  C  C5  1  0.13364200  0.96240600  0.08930400  1
  C  C6  1  0.11645600  0.00406000  0.98454800  1
  C  C7  1  0.03097400  0.01589000  0.95633100  1
  C  C8  1  0.00903700  0.05764700  0.85314800  1
  C  C9  1  0.92536400  0.06552300  0.82620700  1
  C  C10  1  0.06710800  0.92302500  0.15541600  1
  C  C11  1  0.98478600  0.93523000  0.12899100  1
  C  C12  1  0.96535800  0.98632000  0.03421500  1
  C  C13  1  0.88072200  0.00311100  0.01226100  1
  C  C14  1  0.86164200  0.03880300  0.90488100  1
  C  C15  1  0.77849600  0.04632100  0.87363900  1
  C  C16  1  0.81465800  0.98755800  0.09607200  1
  C  C17  1  0.73092000  0.99729500  0.06637700  1
  C  C18  1  0.71288400  0.02056500  0.95046500  1
  C  C19  1  0.66321500  0.98836200  0.15986500  1
  C  C20  1  0.50703300  0.83169900  0.33716100  1
  C  C21  1  0.36987300  0.01550600  0.11421900  1
  C  C22  1  0.43548500  0.16531900  0.40309400  1
  C  C23  1  0.56524300  0.86487700  0.60885200  1
  C  C24  1  0.62663200  0.01042300  0.90125100  1
  C  C25  1  0.50295500  0.19783600  0.67362200  1
  C  C26  1  0.33872400  0.03961600  0.85549800  1
  C  C27  1  0.36242900  0.30675300  0.39601300  1
  C  C28  1  0.42500700  0.26381500  0.44928000  1
  C  C29  1  0.48469000  0.31893300  0.52316500  1
  C  C30  1  0.53229000  0.28047500  0.60913800  1
  C  C31  1  0.60027600  0.33463700  0.66245600  1
  C  C32  1  0.36609100  0.40306000  0.39941100  1
  C  C33  1  0.43638800  0.45874900  0.44863100  1
  C  C34  1  0.49430700  0.41663700  0.51523600  1
  C  C35  1  0.56120800  0.47187200  0.57447200  1
  C  C36  1  0.39956800  0.59635600  0.35340900  1
  C  C37  1  0.44874600  0.55526000  0.43402300  1
  C  C38  1  0.51335900  0.61151100  0.49700300  1
  C  C39  1  0.41660300  0.68866300  0.33252000  1
  C  C40  1  0.47835700  0.74614800  0.39634100  1
  C  C41  1  0.61738800  0.42701000  0.64113400  1
  C  C42  1  0.56953600  0.57010200  0.56797300  1
  C  C43  1  0.63286300  0.62857300  0.63130900  1
  C  C44  1  0.52214600  0.70933400  0.48835400  1
  C  C45  1  0.57732700  0.76597000  0.56790800  1
  C  C46  1  0.63483800  0.72466200  0.63325400  1
  C  C47  1  0.23204100  0.91730800  0.24213100  1
  C  C48  1  0.21071300  0.96684700  0.36408800  1
  O  O1  1  0.59260400  0.02999800  0.14919600  1
  O  O2  1  0.50813900  0.82437800  0.21687100  1
  O  O3  1  0.67561800  0.94522200  0.25736800  1
  O  O4  1  0.51302900  0.91672400  0.39647300  1
  O  O5  1  0.39730700  0.95942900  0.18968900  1
  O  O6  1  0.41432200  0.09541100  0.09927100  1
  O  O7  1  0.51152600  0.13864900  0.37231600  1
  O  O8  1  0.36811300  0.10908500  0.37109500  1
  O  O9  1  0.48878600  0.89007100  0.64048800  1
  O  O10  1  0.63206300  0.92374300  0.63617800  1
  O  O11  1  0.60609700  0.06703700  0.82173600  1
  O  O12  1  0.57638500  0.93469300  0.91734000  1
  O  O13  1  0.32653600  0.08494900  0.75981400  1
  O  O14  1  0.48940100  0.11231900  0.61705000  1
  O  O15  1  0.41029600  0.99942100  0.86540100  1
  O  O16  1  0.50692600  0.20762800  0.79375500  1
  O  O17  1  0.25738500  0.83851700  0.23715700  1
