# Generated by REPEAT Assigner based on pymatgen
data_DB0-m29_o84_o45_f0_pts.sym.92
_audit_creation_date              2022-05-24
_audit_creation_method            REPEAT_Assigner
_cell_length_a                    13.133793
_cell_length_b                    9.415941
_cell_length_c                    17.547289
_cell_angle_alpha                 89.074560
_cell_angle_beta                  99.045920
_cell_angle_gamma                 111.197155
_cell_volume                      1996.085011
_symmetry_space_group_name_H-M    P1
_symmetry_Int_Tables_number       1
loop_
    _symmetry_equiv_pos_site_id
    _symmetry_equiv_pos_as_xyz
    1  x,y,z
loop_
    _atom_site_type_symbol
    _atom_site_label
    _atom_site_fract_x
    _atom_site_fract_y
    _atom_site_fract_z
    _atom_type_partial_charge
    C   C1   0.208355  0.948909  0.898881  -0.005400
    C   C2   0.105552  0.925229  0.854921  0.188336
    C   C3   0.021067  0.939967  0.888784  -0.056812
    C   C4   0.919012  0.919045  0.844979  -0.100805
    C   C5   0.836685  0.939114  0.877741  -0.138115
    C   C6   0.224017  0.978965  0.978150  -0.037713
    C   C7   0.139581  0.996170  0.011667  -0.052074
    C   C8   0.038822  0.978658  0.966649  0.096977
    C   C9   0.955643  0.000191  0.999541  -0.037606
    C   C10  0.854505  0.981612  0.955254  0.120104
    C   C11  0.770732  0.000066  0.988942  -0.128826
    C   C12  0.156274  0.036933  0.089620  -0.000386
    C   C13  0.073475  0.057828  0.121779  -0.214513
    C   C14  0.973253  0.039254  0.077069  0.214737
    C   C15  0.890632  0.058046  0.110718  -0.289478
    C   C16  0.788258  0.036647  0.067623  0.127817
    H   H1   0.900042  0.886938  0.784261  0.083541
    H   H2   0.759123  0.920041  0.840270  0.117759
    H   H3   0.233494  0.055395  0.127385  0.068290
    H   H4   0.087975  0.089106  0.182623  0.142316
    H   H5   0.906418  0.086865  0.171871  0.157534
    O   O1   0.600532  0.024654  0.070180  -0.407003
    C   C17  0.699792  0.045090  0.107853  0.396309
    O   O2   0.563870  0.758016  0.147160  -0.524590
    O   O3   0.716840  0.057982  0.183571  -0.429974
    O   O4   0.481678  0.852160  0.226725  -0.571354
    C   C18  0.521981  0.748897  0.210876  0.725969
    Fe  Fe1  0.494583  0.997622  0.142759  1.349009
    O   O5   0.342135  0.911987  0.080524  -0.568745
    O   O6   0.416920  0.128209  0.017272  -0.524237
    C   C19  0.331867  0.005220  0.025765  0.616963
    O   O7   0.549072  0.207412  0.192881  -0.650865
    O   O8   0.414306  0.088060  0.264201  -0.631645
    C   C20  0.489430  0.213299  0.245402  0.890078
    O   O9   0.452618  0.746618  0.780952  -0.630776
    O   O10  0.563061  0.872028  0.694784  -0.547348
    C   C21  0.502227  0.744063  0.721824  0.615931
    O   O11  0.646652  0.060661  0.889021  -0.605946
    O   O12  0.582833  0.835249  0.946752  -0.528958
    C   C22  0.662000  0.967267  0.942045  0.693616
    O   O13  0.297374  0.974946  0.786172  -0.464346
    O   O14  0.502367  0.095977  0.739110  -0.487764
    C   C23  0.494928  0.222642  0.763420  0.505618
    O   O15  0.387320  0.925962  0.897474  -0.442654
    C   C24  0.299763  0.946950  0.859767  0.502441
    O   O16  0.487711  0.239401  0.836247  -0.497575
    Fe  Fe2  0.495915  0.958624  0.826335  1.381181
    C   C25  0.495203  0.345242  0.710581  0.166354
    C   C26  0.500781  0.329061  0.633355  -0.321171
    H   H6   0.501940  0.223944  0.610393  0.156396
    C   C27  0.504828  0.446881  0.584445  0.414128
    C   C28  0.506014  0.583730  0.613754  -0.277879
    H   H7   0.511106  0.680176  0.578273  0.097335
    C   C29  0.497625  0.598595  0.690329  0.123442
    C   C30  0.490784  0.479095  0.738332  -0.243230
    N   N1   0.506548  0.423871  0.505200  -0.242133
    N   N2   0.509739  0.537814  0.467321  -0.012394
    C   C31  0.519435  0.637489  0.340827  0.337608
    C   C32  0.516860  0.621006  0.261856  -0.387987
    C   C33  0.508834  0.481031  0.231410  0.314040
    C   C34  0.501367  0.360631  0.278932  -0.268811
    C   C35  0.498156  0.375604  0.356297  -0.041716
    H   H8   0.488991  0.276753  0.390633  0.046253
    C   C36  0.508939  0.515320  0.387667  0.152475
    H   H9   0.486753  0.493633  0.798587  0.159606
    N   N3   0.086773  0.882509  0.775647  -0.526764
    C   C37  0.084306  0.000665  0.725290  0.430090
    C   C38  0.019038  0.964235  0.653245  -0.212924
    C   C39  0.015710  0.077452  0.603215  -0.081424
    C   C40  0.077972  0.227742  0.624671  -0.122514
    C   C41  0.143983  0.264801  0.696092  -0.114674
    C   C42  0.147589  0.152000  0.746404  -0.147809
    H   H10  0.021964  0.781017  0.760210  0.329448
    H   H11  0.969993  0.846720  0.635511  0.111690
    H   H12  0.964272  0.048213  0.547045  0.091246
    H   H13  0.075429  0.316459  0.585382  0.104683
    H   H14  0.193422  0.382707  0.712676  0.124619
    H   H15  0.201445  0.185172  0.801483  0.116204
    N   N4   0.495507  0.452841  0.150978  -0.353041
    C   C43  0.401407  0.472979  0.108120  0.161697
    C   C44  0.404912  0.523575  0.033860  0.008135
    C   C45  0.313682  0.542975  0.991223  -0.180551
    C   C46  0.218208  0.510906  0.022326  -0.017127
    C   C47  0.213728  0.458528  0.095957  -0.128378
    C   C48  0.304816  0.439072  0.138866  -0.081385
    H   H16  0.566882  0.501457  0.127739  0.317900
    H   H17  0.479165  0.548499  0.008658  0.132208
    H   H18  0.317019  0.583147  0.933275  0.136683
    H   H19  0.146643  0.525896  0.988817  0.075392
    H   H20  0.138420  0.431949  0.120044  0.103139
    H   H21  0.298096  0.395033  0.195867  0.084200
    N   N5   0.539217  0.780591  0.376111  -0.825455
    C   C49  0.639167  0.896370  0.363989  0.705956
    C   C50  0.647074  0.046703  0.364479  -0.451111
    C   C51  0.744315  0.161404  0.354053  -0.019756
    C   C52  0.834666  0.126697  0.343803  -0.131756
    C   C53  0.827987  0.977277  0.344547  0.012414
    C   C54  0.730861  0.862113  0.354941  -0.337576
    H   H22  0.471841  0.813654  0.367717  0.435663
    H   H23  0.577395  0.075585  0.373738  0.225206
    H   H24  0.749825  0.278762  0.354315  0.100599
    H   H25  0.911000  0.216690  0.335841  0.106434
    H   H26  0.899359  0.950280  0.337480  0.083924
    H   H27  0.729448  0.746660  0.357130  0.143377
