# generated using pymatgen
data_ZnH21C18NO4
_symmetry_space_group_name_H-M   'P 1'
_cell_length_a   9.60388000
_cell_length_b   10.76923700
_cell_length_c   17.50229400
_cell_angle_alpha   89.99982900
_cell_angle_beta   86.24837500
_cell_angle_gamma   90.06203400
_symmetry_Int_Tables_number   1
_chemical_formula_structural   ZnH21C18NO4
_chemical_formula_sum   'Zn2 H42 C36 N2 O8'
_cell_volume   1806.32010749
_cell_formula_units_Z   2
loop_
 _symmetry_equiv_pos_site_id
 _symmetry_equiv_pos_as_xyz
  1  'x, y, z'
loop_
 _atom_site_type_symbol
 _atom_site_label
 _atom_site_symmetry_multiplicity
 _atom_site_fract_x
 _atom_site_fract_y
 _atom_site_fract_z
 _atom_site_occupancy
  Zn  Zn1  1  0.33045400  0.50409900  0.50535500  1
  Zn  Zn2  1  0.64806600  0.50351200  0.50234100  1
  H  H1  1  0.69002900  0.51981600  0.74643800  1
  H  H2  1  0.28836200  0.49397900  0.26133400  1
  H  H3  1  0.73410900  0.50647500  0.25785800  1
  H  H4  1  0.64211900  0.46155000  0.00128300  1
  H  H5  1  0.23262100  0.49548100  0.88863100  1
  H  H6  1  0.30069400  0.48424900  0.12410600  1
  H  H7  1  0.24573500  0.48837100  0.74990400  1
  H  H8  1  0.33597300  0.54244400  0.00609400  1
  H  H9  1  0.67707400  0.52859800  0.88397000  1
  H  H10  1  0.74656200  0.49959000  0.11913300  1
  H  H11  1  0.30215400  0.90327100  0.44323900  1
  H  H12  1  0.45970400  0.88756000  0.38267700  1
  H  H13  1  0.31243600  0.10821800  0.43198700  1
  H  H14  1  0.31233600  0.89497700  0.58557200  1
  H  H15  1  0.29588900  0.10085900  0.57072400  1
  H  H16  1  0.69974800  0.89704700  0.54317500  1
  H  H17  1  0.69083100  0.90664200  0.44032200  1
  H  H18  1  0.70651200  0.11338000  0.45462400  1
  H  H19  1  0.68185100  0.10109300  0.55721900  1
  H  H20  1  0.47973900  0.90882300  0.62605100  1
  H  H21  1  0.44924700  0.11660400  0.62416100  1
  H  H22  1  0.84036000  0.66958600  0.56506000  1
  H  H23  1  0.88623400  0.68697300  0.46579800  1
  H  H24  1  0.10266200  0.69816600  0.48666300  1
  H  H25  1  0.86507300  0.45895900  0.61927900  1
  H  H26  1  0.10309100  0.41008400  0.61351200  1
  H  H27  1  0.90278200  0.36199100  0.42110400  1
  H  H28  1  0.88693000  0.51562000  0.38196700  1
  H  H29  1  0.11358000  0.55805100  0.39169800  1
  H  H30  1  0.13579900  0.39531600  0.40958100  1
  H  H31  1  0.85630300  0.32837800  0.55689900  1
  H  H32  1  0.08674900  0.31908300  0.53054700  1
  H  H33  1  0.36294900  0.00594300  0.28425700  1
  H  H34  1  0.31080800  0.16592800  0.29991300  1
  H  H35  1  0.45958100  0.12958400  0.23564300  1
  H  H36  1  0.53038300  0.21121800  0.35798400  1
  H  H37  1  0.59094500  0.05532000  0.34191300  1
  H  H38  1  0.89954200  0.66578300  0.68055300  1
  H  H39  1  0.02923700  0.54741700  0.69489700  1
  H  H40  1  0.05201000  0.70064500  0.72810000  1
  H  H41  1  0.20534300  0.67538000  0.61557800  1
  H  H42  1  0.07645000  0.78770800  0.60210400  1
  C  C1  1  0.49063300  0.74695800  0.50406300  1
  C  C2  1  0.47645800  0.50224200  0.65379200  1
  C  C3  1  0.48824100  0.26080700  0.50267900  1
  C  C4  1  0.50231600  0.50413800  0.35394500  1
  C  C5  1  0.46886300  0.50313300  0.73783800  1
  C  C6  1  0.58884900  0.51295100  0.77695200  1
  C  C7  1  0.58125800  0.51649800  0.85594600  1
  C  C8  1  0.45306200  0.50933900  0.89699600  1
  C  C9  1  0.33358100  0.50038500  0.85762000  1
  C  C10  1  0.34118100  0.49654800  0.77877500  1
  C  C11  1  0.39720600  0.49251900  0.15188100  1
  C  C12  1  0.38982900  0.49663400  0.23083500  1
  C  C13  1  0.63813300  0.50294900  0.22900500  1
  C  C14  1  0.64545000  0.49887500  0.15013700  1
  C  C15  1  0.52560200  0.49479700  0.11074300  1
  C  C16  1  0.43744700  0.51561700  0.98129800  1
  C  C17  1  0.54092200  0.48876600  0.02636000  1
  C  C18  1  0.51013100  0.50207200  0.26992400  1
  C  C19  1  0.41334700  0.93131200  0.43569700  1
  C  C20  1  0.42069700  0.07232100  0.43072000  1
  C  C21  1  0.41856200  0.93477400  0.57689500  1
  C  C22  1  0.63945500  0.93430200  0.49634000  1
  C  C23  1  0.49060400  0.88582200  0.50331700  1
  C  C24  1  0.48929900  0.12188900  0.50112300  1
  C  C25  1  0.40732300  0.07481800  0.57248000  1
  C  C26  1  0.63842500  0.07441100  0.50234800  1
  C  C27  1  0.90319400  0.62863500  0.51657700  1
  C  C28  1  0.05816200  0.62996900  0.52895600  1
  C  C29  1  0.90192300  0.42219400  0.56265100  1
  C  C30  1  0.92543800  0.46174000  0.43019400  1
  C  C31  1  0.05978200  0.41042400  0.55670300  1
  C  C32  1  0.08237300  0.48086600  0.43113100  1
  C  C33  1  0.49692600  0.11301300  0.35520400  1
  C  C34  1  0.40103500  0.10248500  0.28980700  1
  C  C35  1  0.09391300  0.68631600  0.60683400  1
  C  C36  1  0.01231800  0.64554600  0.68058900  1
  N  N1  1  0.85664300  0.50284200  0.50228400  1
  N  N2  1  0.12150800  0.50883700  0.50854900  1
  O  O1  1  0.37046900  0.68890300  0.50511800  1
  O  O2  1  0.61052600  0.68862900  0.50289600  1
  O  O3  1  0.35957400  0.50217900  0.61898400  1
  O  O4  1  0.59967200  0.50330200  0.61677100  1
  O  O5  1  0.36763200  0.31883100  0.50396500  1
  O  O6  1  0.60860100  0.31872600  0.50244200  1
  O  O7  1  0.37870100  0.50453600  0.39088600  1
  O  O8  1  0.61948700  0.50407300  0.38867000  1
