data_DB0-m3_o156_o1510_f0_fsc.sym.15_repeat
_audit_creation_date              2024-02-20
_audit_creation_method            'Materials Studio'
_symmetry_space_group_name_H-M    'P1'
_symmetry_Int_Tables_number       1
_symmetry_cell_setting            triclinic
loop_
_symmetry_equiv_pos_as_xyz
  x,y,z
_cell_length_a                    17.4899
_cell_length_b                    8.5510
_cell_length_c                    19.2925
_cell_angle_alpha                 90.0000
_cell_angle_beta                  91.0330
_cell_angle_gamma                 90.0000
loop_
_atom_site_label
_atom_site_type_symbol
_atom_site_fract_x
_atom_site_fract_y
_atom_site_fract_z
_atom_site_U_iso_or_equiv
_atom_site_adp_type
_atom_site_occupancy
H1     H     0.02831   0.99634   0.54910   0.00000  Uiso   1.00
H2     H     0.97169   0.99634   0.45090   0.00000  Uiso   1.00
C1     C     0.00539   0.13622   0.63671   0.00000  Uiso   1.00
C2     C     0.99509   0.85713   0.36317   0.00000  Uiso   1.00
C3     C     0.99461   0.13622   0.36329   0.00000  Uiso   1.00
C4     C     0.00491   0.85713   0.63683   0.00000  Uiso   1.00
C5     C     0.99447   0.13730   0.70726   0.00000  Uiso   1.00
C6     C     0.00703   0.85647   0.29267   0.00000  Uiso   1.00
C7     C     0.00553   0.13730   0.29274   0.00000  Uiso   1.00
C8     C     0.99297   0.85647   0.70733   0.00000  Uiso   1.00
H3     H     0.98838   0.24735   0.73416   0.00000  Uiso   1.00
H4     H     0.01077   0.74629   0.26554   0.00000  Uiso   1.00
H5     H     0.01162   0.24735   0.26584   0.00000  Uiso   1.00
H6     H     0.98923   0.74629   0.73446   0.00000  Uiso   1.00
C9     C     0.99186   0.99708   0.74319   0.00000  Uiso   1.00
C10    C     0.00814   0.99708   0.25681   0.00000  Uiso   1.00
C11    C     0.01562   0.99655   0.60326   0.00000  Uiso   1.00
C12    C     0.98438   0.99655   0.39674   0.00000  Uiso   1.00
C13    C     0.05397   0.90179   0.07301   0.00000  Uiso   1.00
C14    C     0.04706   0.08922   0.92599   0.00000  Uiso   1.00
C15    C     0.94603   0.90179   0.92699   0.00000  Uiso   1.00
C16    C     0.95294   0.08922   0.07402   0.00000  Uiso   1.00
H7     H     0.09267   0.82825   0.04455   0.00000  Uiso   1.00
H8     H     0.08816   0.16150   0.95359   0.00000  Uiso   1.00
H9     H     0.90733   0.82825   0.95546   0.00000  Uiso   1.00
H10    H     0.91184   0.16150   0.04641   0.00000  Uiso   1.00
C17    C     0.05679   0.90248   0.14457   0.00000  Uiso   1.00
C18    C     0.04357   0.09213   0.85461   0.00000  Uiso   1.00
C19    C     0.94321   0.90248   0.85543   0.00000  Uiso   1.00
C20    C     0.95643   0.09213   0.14539   0.00000  Uiso   1.00
C21    C     0.00813   0.99827   0.18098   0.00000  Uiso   1.00
C22    C     0.99187   0.99827   0.81902   0.00000  Uiso   1.00
C23    C     0.00159   0.99416   0.03779   0.00000  Uiso   1.00
C24    C     0.99841   0.99416   0.96221   0.00000  Uiso   1.00
O1     O     0.06765   0.66623   0.56863   0.00000  Uiso   1.00
O2     O     0.93226   0.32746   0.43125   0.00000  Uiso   1.00
O3     O     0.93235   0.66623   0.43137   0.00000  Uiso   1.00
O4     O     0.06774   0.32746   0.56875   0.00000  Uiso   1.00
O5     O     0.93612   0.65985   0.57530   0.00000  Uiso   1.00
O6     O     0.06386   0.33324   0.42483   0.00000  Uiso   1.00
O7     O     0.06388   0.65985   0.42470   0.00000  Uiso   1.00
O8     O     0.93614   0.33324   0.57517   0.00000  Uiso   1.00
C25    C     0.00319   0.71497   0.59483   0.00000  Uiso   1.00
C26    C     0.99670   0.27831   0.40527   0.00000  Uiso   1.00
C27    C     0.99681   0.71497   0.40517   0.00000  Uiso   1.00
C28    C     0.00330   0.27831   0.59473   0.00000  Uiso   1.00
Zn1    Zn    0.91484   0.49670   0.50198   0.00000  Uiso   1.00
Zn2    Zn    0.08517   0.49670   0.49802   0.00000  Uiso   1.00
C29    C     0.77575   0.49544   0.44146   0.00000  Uiso   1.00
C30    C     0.22426   0.49544   0.55854   0.00000  Uiso   1.00
N1     N     0.81455   0.49671   0.50258   0.00000  Uiso   1.00
N2     N     0.18545   0.49671   0.49742   0.00000  Uiso   1.00
C31    C     0.77704   0.49646   0.56295   0.00000  Uiso   1.00
C32    C     0.22296   0.49646   0.43706   0.00000  Uiso   1.00
C33    C     0.65650   0.49272   0.37741   0.00000  Uiso   1.00
C34    C     0.34350   0.49272   0.62259   0.00000  Uiso   1.00
C35    C     0.69666   0.49416   0.43985   0.00000  Uiso   1.00
C36    C     0.30334   0.49416   0.56015   0.00000  Uiso   1.00
C37    C     0.65770   0.49449   0.50112   0.00000  Uiso   1.00
C38    C     0.34230   0.49449   0.49888   0.00000  Uiso   1.00
C39    C     0.69808   0.49536   0.56303   0.00000  Uiso   1.00
C40    C     0.30192   0.49536   0.43697   0.00000  Uiso   1.00
C41    C     0.65949   0.49494   0.62475   0.00000  Uiso   1.00
C42    C     0.34051   0.49494   0.37525   0.00000  Uiso   1.00
C43    C     0.53687   0.49267   0.31435   0.00000  Uiso   1.00
C44    C     0.46313   0.49267   0.68565   0.00000  Uiso   1.00
C45    C     0.57745   0.49293   0.37658   0.00000  Uiso   1.00
C46    C     0.42255   0.49293   0.62342   0.00000  Uiso   1.00
C47    C     0.53870   0.49353   0.43828   0.00000  Uiso   1.00
C48    C     0.46130   0.49353   0.56172   0.00000  Uiso   1.00
C49    C     0.45808   0.49336   0.31407   0.00000  Uiso   1.00
C50    C     0.54192   0.49336   0.68593   0.00000  Uiso   1.00
C51    C     0.41944   0.49400   0.37572   0.00000  Uiso   1.00
C52    C     0.58056   0.49400   0.62428   0.00000  Uiso   1.00
C53    C     0.57885   0.49390   0.50050   0.00000  Uiso   1.00
C54    C     0.42115   0.49390   0.49950   0.00000  Uiso   1.00
C55    C     0.54021   0.49381   0.56218   0.00000  Uiso   1.00
C56    C     0.45979   0.49381   0.43782   0.00000  Uiso   1.00
H11    H     0.68674   0.49148   0.32913   0.00000  Uiso   1.00
H12    H     0.31326   0.49148   0.67087   0.00000  Uiso   1.00
H13    H     0.69106   0.49534   0.67344   0.00000  Uiso   1.00
H14    H     0.30895   0.49534   0.32656   0.00000  Uiso   1.00
H15    H     0.42681   0.49343   0.26522   0.00000  Uiso   1.00
H16    H     0.57319   0.49343   0.73478   0.00000  Uiso   1.00
H17    H     0.80901   0.49697   0.61142   0.00000  Uiso   1.00
H18    H     0.19099   0.49697   0.38858   0.00000  Uiso   1.00
O9     O     0.10961   0.81235   0.17900   0.00000  Uiso   1.00
H19    H     0.15527   0.88022   0.18364   0.00000  Uiso   1.00
O10    O     0.09411   0.18247   0.81922   0.00000  Uiso   1.00
H20    H     0.13892   0.11373   0.81250   0.00000  Uiso   1.00
O11    O     0.89040   0.81235   0.82100   0.00000  Uiso   1.00
H21    H     0.84473   0.88022   0.81636   0.00000  Uiso   1.00
O12    O     0.90589   0.18247   0.18078   0.00000  Uiso   1.00
H22    H     0.86109   0.11373   0.18750   0.00000  Uiso   1.00
O13    O     0.81492   0.49548   0.38082   0.00000  Uiso   1.00
H23    H     0.80929   0.60343   0.36287   0.00000  Uiso   1.00
O14    O     0.18508   0.49548   0.61918   0.00000  Uiso   1.00
H24    H     0.19071   0.60343   0.63713   0.00000  Uiso   1.00
O15    O     0.57423   0.49216   0.25275   0.00000  Uiso   1.00
H25    H     0.57956   0.60410   0.24064   0.00000  Uiso   1.00
O16    O     0.42577   0.49216   0.74725   0.00000  Uiso   1.00
H26    H     0.42044   0.60410   0.75936   0.00000  Uiso   1.00
