# generated using pymatgen
data_CuH10C16NO5
_symmetry_space_group_name_H-M   'P 1'
_cell_length_a   14.43902100
_cell_length_b   12.99756400
_cell_length_c   11.50966400
_cell_angle_alpha   99.74500700
_cell_angle_beta   93.94003300
_cell_angle_gamma   89.99439400
_symmetry_Int_Tables_number   1
_chemical_formula_structural   CuH10C16NO5
_chemical_formula_sum   'Cu2 H20 C32 N2 O10'
_cell_volume   2123.69747826
_cell_formula_units_Z   2
loop_
 _symmetry_equiv_pos_site_id
 _symmetry_equiv_pos_as_xyz
  1  'x, y, z'
loop_
 _atom_site_type_symbol
 _atom_site_label
 _atom_site_symmetry_multiplicity
 _atom_site_fract_x
 _atom_site_fract_y
 _atom_site_fract_z
 _atom_site_occupancy
  Cu  Cu1  1  0.50432500  0.50758800  0.61776000  1
  Cu  Cu2  1  0.49332700  0.49172500  0.38202000  1
  H  H1  1  0.51722100  0.81653000  0.34871400  1
  H  H2  1  0.48292600  0.18396500  0.65235600  1
  H  H3  1  0.47726200  0.83844500  0.71581600  1
  H  H4  1  0.52374500  0.16113200  0.28423300  1
  H  H5  1  0.52615500  0.97067600  0.26476500  1
  H  H6  1  0.47476100  0.02904400  0.73701400  1
  H  H7  1  0.40179100  0.42709800  0.79105200  1
  H  H8  1  0.59959300  0.56837000  0.20743600  1
  H  H9  1  0.33515200  0.39478900  0.96761200  1
  H  H10  1  0.66309800  0.60688600  0.03519900  1
  H  H11  1  0.68321600  0.75105000  0.93468600  1
  H  H12  1  0.57902100  0.74407500  0.83650500  1
  H  H13  1  0.68107100  0.75551700  0.66853100  1
  H  H14  1  0.69279900  0.86746700  0.78567900  1
  H  H15  1  0.78098200  0.76842400  0.77370300  1
  H  H16  1  0.42038600  0.25476800  0.16223700  1
  H  H17  1  0.31611200  0.24918100  0.06446600  1
  H  H18  1  0.21818500  0.23163000  0.22523200  1
  H  H19  1  0.30681400  0.13308200  0.21709600  1
  H  H20  1  0.31720600  0.24736600  0.33105200  1
  C  C1  1  0.50010800  0.30004700  0.48097500  1
  C  C2  1  0.49987400  0.70017300  0.51891800  1
  C  C3  1  0.32252400  0.50070100  0.50519800  1
  C  C4  1  0.67741900  0.49951600  0.49438100  1
  C  C5  1  0.22305400  0.50000600  0.50705100  1
  C  C6  1  0.77652100  0.49904200  0.49231200  1
  C  C7  1  0.13946100  0.49981200  0.50569200  1
  C  C8  1  0.85993900  0.49937300  0.49415800  1
  C  C9  1  0.04140000  0.50018600  0.50277800  1
  C  C10  1  0.95774700  0.50011000  0.49818600  1
  C  C11  1  0.49768200  0.81424800  0.53092900  1
  C  C12  1  0.50209800  0.18586600  0.46934700  1
  C  C13  1  0.51635600  0.01787800  0.34970600  1
  C  C14  1  0.48417300  0.98250600  0.65139500  1
  C  C15  1  0.51436100  0.12515300  0.36094800  1
  C  C16  1  0.48595100  0.87488500  0.63937800  1
  C  C17  1  0.49259600  0.13794100  0.56688100  1
  C  C18  1  0.50757000  0.86271600  0.43414800  1
  C  C19  1  0.49432400  0.03033300  0.55504200  1
  C  C20  1  0.50610200  0.97043800  0.44623300  1
  C  C21  1  0.39592200  0.42904900  0.01909400  1
  C  C22  1  0.60323400  0.57141800  0.98173800  1
  C  C23  1  0.40490500  0.42846700  0.13927900  1
  C  C24  1  0.59442700  0.57159300  0.86108800  1
  C  C25  1  0.54255700  0.52636300  0.15442600  1
  C  C26  1  0.45759500  0.47169600  0.84480400  1
  C  C27  1  0.53635800  0.52427800  0.03397900  1
  C  C28  1  0.46303300  0.47500600  0.96557000  1
  C  C29  1  0.65362000  0.72475200  0.84291100  1
  C  C30  1  0.70532400  0.78238900  0.76226200  1
  C  C31  1  0.34576900  0.27493800  0.15652500  1
  C  C32  1  0.29382000  0.21812300  0.23762000  1
  N  N1  1  0.52370000  0.52310500  0.79395200  1
  N  N2  1  0.47840200  0.47721600  0.20588800  1
  O  O1  1  0.50353600  0.35660100  0.58687900  1
  O  O2  1  0.49657400  0.64356200  0.41287900  1
  O  O3  1  0.49555400  0.34125100  0.38452300  1
  O  O4  1  0.50454000  0.65885300  0.61533100  1
  O  O5  1  0.37294200  0.50428400  0.60490400  1
  O  O6  1  0.62708200  0.49600600  0.39459400  1
  O  O7  1  0.35847500  0.49661500  0.40350200  1
  O  O8  1  0.64156500  0.50364300  0.59633300  1
  O  O9  1  0.66366400  0.61692200  0.81012400  1
  O  O10  1  0.33618300  0.38276300  0.19045100  1
