# generated using pymatgen
data_CuH10(C4O)4
_symmetry_space_group_name_H-M   'P 1'
_cell_length_a   26.07948400
_cell_length_b   47.76516300
_cell_length_c   47.76104000
_cell_angle_alpha   59.99384500
_cell_angle_beta   90.00980500
_cell_angle_gamma   90.00960000
_symmetry_Int_Tables_number   1
_chemical_formula_structural   CuH10(C4O)4
_chemical_formula_sum   'Cu12 H120 C192 O48'
_cell_volume   51521.40736802
_cell_formula_units_Z   12
loop_
 _symmetry_equiv_pos_site_id
 _symmetry_equiv_pos_as_xyz
  1  'x, y, z'
loop_
 _atom_site_type_symbol
 _atom_site_label
 _atom_site_symmetry_multiplicity
 _atom_site_fract_x
 _atom_site_fract_y
 _atom_site_fract_z
 _atom_site_occupancy
  Cu  Cu1  1  0.50843600  0.53208800  0.46816900  1
  Cu  Cu2  1  0.47306600  0.47914600  0.51765500  1
  Cu  Cu3  1  0.97569400  0.39539400  0.34048400  1
  Cu  Cu4  1  0.01476500  0.34677500  0.39258900  1
  Cu  Cu5  1  0.17436200  0.79597200  0.53484500  1
  Cu  Cu6  1  0.15077700  0.80009100  0.47952500  1
  Cu  Cu7  1  0.82145000  0.51492800  0.80314100  1
  Cu  Cu8  1  0.85921600  0.46454800  0.80222200  1
  Cu  Cu9  1  0.65806000  0.06672900  0.39273200  1
  Cu  Cu10  1  0.68319500  0.06640100  0.33964900  1
  Cu  Cu11  1  0.36141700  0.39785500  0.06171900  1
  Cu  Cu12  1  0.32621700  0.34453100  0.06570700  1
  H  H1  1  0.32202800  0.48175600  0.47995900  1
  H  H2  1  0.15158000  0.39438800  0.39353700  1
  H  H3  1  0.04396200  0.47165800  0.36225000  1
  H  H4  1  0.18969800  0.49673800  0.40865000  1
  H  H5  1  0.34334000  0.51331300  0.36574200  1
  H  H6  1  0.21541000  0.42610200  0.40212900  1
  H  H7  1  0.41337100  0.52266700  0.39438900  1
  H  H8  1  0.26658000  0.47479300  0.37510200  1
  H  H9  1  0.25198900  0.47383100  0.45128600  1
  H  H10  1  0.10805700  0.50330700  0.37241300  1
  H  H11  1  0.59063500  0.41156300  0.51513400  1
  H  H12  1  0.82741900  0.39125300  0.37594600  1
  H  H13  1  0.91158700  0.36073700  0.46315800  1
  H  H14  1  0.73991900  0.38016700  0.48621300  1
  H  H15  1  0.66331600  0.47029500  0.40563300  1
  H  H16  1  0.75112500  0.39625000  0.40100200  1
  H  H17  1  0.59488100  0.49434000  0.42022200  1
  H  H18  1  0.71854200  0.42931400  0.41533300  1
  H  H19  1  0.65986300  0.38707500  0.50035200  1
  H  H20  1  0.83445800  0.36815600  0.48826600  1
  H  H21  1  0.29490600  0.71638200  0.56450500  1
  H  H22  1  0.36000600  0.52561000  0.55325400  1
  H  H23  1  0.46696500  0.59975500  0.49417300  1
  H  H24  1  0.37803000  0.64249000  0.54980100  1
  H  H25  1  0.22520500  0.65636600  0.51412900  1
  H  H26  1  0.32453000  0.56079300  0.57193600  1
  H  H27  1  0.19058100  0.70897400  0.49947400  1
  H  H28  1  0.27855900  0.61006700  0.54844200  1
  H  H29  1  0.33102000  0.66361700  0.57837900  1
  H  H30  1  0.43247300  0.63413900  0.51340000  1
  H  H31  1  0.79697900  0.47660200  0.71647200  1
  H  H32  1  0.55021400  0.47872100  0.59381200  1
  H  H33  1  0.64616400  0.54568800  0.51652800  1
  H  H34  1  0.72541700  0.52504400  0.61640300  1
  H  H35  1  0.64401800  0.54575500  0.68508600  1
  H  H36  1  0.60108200  0.48542100  0.63198800  1
  H  H37  1  0.69270500  0.53582300  0.73313300  1
  H  H38  1  0.62195900  0.52368900  0.64745200  1
  H  H39  1  0.74972800  0.48698500  0.66894400  1
  H  H40  1  0.69863400  0.55182400  0.55579100  1
  H  H41  1  0.92934100  0.26795000  0.39946600  1
  H  H42  1  0.77215100  0.15915300  0.30281200  1
  H  H43  1  0.80605100  0.10333500  0.40347500  1
  H  H44  1  0.90437500  0.19785700  0.36675000  1
  H  H45  1  0.86032800  0.29882000  0.29212400  1
  H  H46  1  0.82571400  0.20312900  0.29868900  1
  H  H47  1  0.89471800  0.34058000  0.30229600  1
  H  H48  1  0.82640200  0.24170000  0.31536700  1
  H  H49  1  0.89433800  0.22725000  0.38980900  1
  H  H50  1  0.86103600  0.14652000  0.39923500  1
  H  H51  1  0.05255500  0.38958000  0.26759900  1
  H  H52  1  0.30388900  0.38751300  0.14896700  1
  H  H53  1  0.20106500  0.32478800  0.13662700  1
  H  H54  1  0.12936600  0.34109100  0.21901400  1
  H  H55  1  0.20457600  0.31990700  0.30924200  1
  H  H56  1  0.25667300  0.37907700  0.19594900  1
  H  H57  1  0.15048300  0.32808500  0.34660100  1
  H  H58  1  0.23173000  0.34383100  0.24902200  1
  H  H59  1  0.10511900  0.38098000  0.23128000  1
  H  H60  1  0.15256000  0.31680400  0.18397600  1
  H  H61  1  0.07129600  0.70323100  0.53293700  1
  H  H62  1  0.92216100  0.58884500  0.73851800  1
  H  H63  1  0.94782300  0.51695700  0.71168800  1
  H  H64  1  0.02024600  0.61689100  0.62656100  1
  H  H65  1  0.97208700  0.71033700  0.61663800  1
  H  H66  1  0.95803300  0.62941200  0.68818800  1
  H  H67  1  0.02353700  0.75619700  0.57841400  1
  H  H68  1  0.93748900  0.65716700  0.63581600  1
  H  H69  1  0.02134400  0.65660300  0.57204700  1
  H  H70  1  0.98335300  0.55859400  0.65993500  1
  H  H71  1  0.77710000  0.99949400  0.45651000  1
  H  H72  1  0.04782100  0.87926300  0.43976000  1
  H  H73  1  0.06214100  0.86392900  0.53567300  1
  H  H74  1  0.92610400  0.94217500  0.48353400  1
  H  H75  1  0.83431100  0.93832200  0.40465200  1
  H  H76  1  0.97558900  0.91408200  0.43016300  1
  H  H77  1  0.76611700  0.97761800  0.38021100  1
  H  H78  1  0.89311400  0.90844500  0.44616000  1
  H  H79  1  0.84582000  0.96018100  0.48099800  1
  H  H80  1  0.98777500  0.89890100  0.52599000  1
  H  H81  1  0.54046000  0.99723800  0.42981300  1
  H  H82  1  0.28078000  0.86251900  0.42014600  1
  H  H83  1  0.28335000  0.87009900  0.50565300  1
  H  H84  1  0.39277800  0.95095200  0.43624200  1
  H  H85  1  0.48276500  0.96950100  0.34878100  1
  H  H86  1  0.34693600  0.90403600  0.39634600  1
  H  H87  1  0.55427900  0.00723600  0.33603100  1
  H  H88  1  0.42689400  0.92559700  0.39160800  1
  H  H89  1  0.47247700  0.95936800  0.44280900  1
  H  H90  1  0.34827500  0.91150800  0.48181700  1
  H  H91  1  0.71624700  0.47286700  0.87922300  1
  H  H92  1  0.45643400  0.33495500  0.00783400  1
  H  H93  1  0.43749300  0.43619000  0.97119300  1
  H  H94  1  0.56438200  0.43255800  0.90614800  1
  H  H95  1  0.66838900  0.36406800  0.90166400  1
  H  H96  1  0.52462000  0.34631300  0.96846800  1
  H  H97  1  0.74241500  0.39139300  0.86670400  1
  H  H98  1  0.60375400  0.36304300  0.94581000  1
  H  H99  1  0.64481300  0.44590000  0.91375000  1
  H  H100  1  0.50413000  0.44758000  0.93174400  1
  H  H101  1  0.17955200  0.38017000  0.02236600  1
  H  H102  1  0.00249600  0.46029900  0.84842700  1
  H  H103  1  0.90245400  0.49631300  0.89393300  1
  H  H104  1  0.04978700  0.45039700  0.96296100  1
  H  H105  1  0.20242300  0.49166300  0.93340800  1
  H  H106  1  0.06927600  0.45203400  0.88713500  1
  H  H107  1  0.27134900  0.46528100  0.97309900  1
  H  H108  1  0.12490400  0.47965700  0.90611700  1
  H  H109  1  0.11068000  0.40669900  0.98397600  1
  H  H110  1  0.96930600  0.48657800  0.93396800  1
  H  H111  1  0.39589100  0.27525300  0.15086400  1
  H  H112  1  0.63702900  0.15877400  0.27043900  1
  H  H113  1  0.53653600  0.14471200  0.34708900  1
  H  H114  1  0.46790400  0.23152200  0.24988800  1
  H  H115  1  0.54596800  0.31991400  0.17719000  1
  H  H116  1  0.59326200  0.20786000  0.23390600  1
  H  H117  1  0.49550100  0.35486300  0.12867300  1
  H  H118  1  0.57093300  0.26039400  0.21733200  1
  H  H119  1  0.44478800  0.24135000  0.19865400  1
  H  H120  1  0.49118800  0.19465800  0.30956900  1
  C  C1  1  0.55089500  0.47205100  0.47758400  1
  C  C2  1  0.56098400  0.50828300  0.52984400  1
  C  C3  1  0.43759000  0.54024700  0.51017400  1
  C  C4  1  0.41560900  0.50422300  0.45790100  1
  C  C5  1  0.94087000  0.33089900  0.35742100  1
  C  C6  1  0.06397700  0.36461000  0.33106900  1
  C  C7  1  0.05540600  0.41011800  0.37409100  1
  C  C8  1  0.92085000  0.37541800  0.40025800  1
  C  C9  1  0.09943100  0.84466400  0.49491400  1
  C  C10  1  0.23730900  0.83865700  0.47964700  1
  C  C11  1  0.21861500  0.74803900  0.52108900  1
  C  C12  1  0.08846800  0.75752500  0.53536300  1
  C  C13  1  0.90788300  0.48250100  0.84563700  1
  C  C14  1  0.77401700  0.45327900  0.84641900  1
  C  C15  1  0.77794400  0.49870300  0.75674100  1
  C  C16  1  0.90266300  0.52731000  0.75700400  1
  C  C17  1  0.74621500  0.10504700  0.35795500  1
  C  C18  1  0.73054400  0.01766200  0.39925100  1
  C  C19  1  0.59425400  0.02809300  0.37512200  1
  C  C20  1  0.61557700  0.11762000  0.33193600  1
  C  C21  1  0.28481300  0.36259400  0.11096600  1
  C  C22  1  0.27198500  0.40360500  0.02258500  1
  C  C23  1  0.40638100  0.37911800  0.01805200  1
  C  C24  1  0.41060600  0.33749200  0.10802800  1
  C  C25  1  0.37231500  0.50293500  0.43907000  1
  C  C26  1  0.32660200  0.48957900  0.45460200  1
  C  C27  1  0.28653600  0.48555400  0.43815900  1
  C  C28  1  0.29237200  0.49386800  0.40617600  1
  C  C29  1  0.33804400  0.50737600  0.39055900  1
  C  C30  1  0.37749100  0.51268500  0.40669700  1
  C  C31  1  0.17836100  0.43676100  0.39262700  1
  C  C32  1  0.14181700  0.41852800  0.38827900  1
  C  C33  1  0.08186900  0.46184500  0.37054500  1
  C  C34  1  0.11794700  0.47965200  0.37629000  1
  C  C35  1  0.16650600  0.46729500  0.38702700  1
  C  C36  1  0.25356600  0.48414200  0.39039800  1
  C  C37  1  0.20346200  0.48469200  0.39597900  1
  C  C38  1  0.09347700  0.43088600  0.37725300  1
  C  C39  1  0.58798900  0.45472600  0.46879000  1
  C  C40  1  0.60612600  0.42432900  0.49091100  1
  C  C41  1  0.64602100  0.41068700  0.48259300  1
  C  C42  1  0.66750800  0.42739400  0.45194600  1
  C  C43  1  0.64751100  0.45701600  0.42974400  1
  C  C44  1  0.60857400  0.47070200  0.43810400  1
  C  C45  1  0.78615400  0.38948000  0.41490700  1
  C  C46  1  0.82967700  0.38628500  0.40060700  1
  C  C47  1  0.87629900  0.36870100  0.44951500  1
  C  C48  1  0.83272700  0.37283000  0.46368300  1
  C  C49  1  0.78782400  0.38432700  0.44608200  1
  C  C50  1  0.71070400  0.41549700  0.44095600  1
  C  C51  1  0.74316800  0.39187800  0.46017100  1
  C  C52  1  0.87519900  0.37657100  0.41747700  1
  C  C53  1  0.24128000  0.71663100  0.53043700  1
  C  C54  1  0.27969600  0.70330200  0.55330300  1
  C  C55  1  0.30007000  0.67354400  0.56106200  1
  C  C56  1  0.28053300  0.65663000  0.54687700  1
  C  C57  1  0.24052600  0.66937500  0.52537800  1
  C  C58  1  0.22163000  0.69941300  0.51673800  1
  C  C59  1  0.35581800  0.56944300  0.55480700  1
  C  C60  1  0.37588000  0.54949600  0.54431000  1
  C  C61  1  0.43547000  0.59087800  0.51113200  1
  C  C62  1  0.41659800  0.61024900  0.52236300  1
  C  C63  1  0.37605000  0.60003700  0.54359600  1
  C  C64  1  0.30301500  0.62635800  0.55199400  1
  C  C65  1  0.35368000  0.62328200  0.55160000  1
  C  C66  1  0.41503700  0.56051500  0.52184000  1
  C  C67  1  0.74799600  0.50540400  0.72821000  1
  C  C68  1  0.76363800  0.49205000  0.70980900  1
  C  C69  1  0.73735100  0.49852600  0.68230000  1
  C  C70  1  0.69444900  0.51802500  0.67313600  1
  C  C71  1  0.67816600  0.53097100  0.69179400  1
  C  C72  1  0.70551000  0.52528500  0.71891500  1
  C  C73  1  0.61098300  0.49926300  0.60666000  1
  C  C74  1  0.58262900  0.49495300  0.58491200  1
  C  C75  1  0.63619800  0.53242800  0.54188200  1
  C  C76  1  0.66566700  0.53598900  0.56396500  1
  C  C77  1  0.65237000  0.52000600  0.59629400  1
  C  C78  1  0.66320800  0.52214600  0.64583900  1
  C  C79  1  0.68425500  0.52293400  0.61994400  1
  C  C80  1  0.59466000  0.51171100  0.55240200  1
  C  C81  1  0.91509900  0.30716100  0.35148000  1
  C  C82  1  0.91458800  0.27519000  0.37565900  1
  C  C83  1  0.89543700  0.25177800  0.36987200  1
  C  C84  1  0.87730500  0.25989300  0.33951000  1
  C  C85  1  0.87552600  0.29207400  0.31572500  1
  C  C86  1  0.89462900  0.31567100  0.32157400  1
  C  C87  1  0.82234100  0.18104900  0.32167500  1
  C  C88  1  0.79280800  0.15601700  0.32381500  1
  C  C89  1  0.81144700  0.12484500  0.38020600  1
  C  C90  1  0.84249600  0.14915800  0.37780400  1
  C  C91  1  0.84631900  0.17784900  0.34898500  1
  C  C92  1  0.85711200  0.23503500  0.33283100  1
  C  C93  1  0.87365400  0.20445200  0.34935300  1
  C  C94  1  0.78601100  0.12834500  0.35338200  1
  C  C95  1  0.09783800  0.35942800  0.30971700  1
  C  C96  1  0.08569200  0.37407200  0.27727800  1
  C  C97  1  0.11507300  0.36866100  0.25663200  1
  C  C98  1  0.15758100  0.34891000  0.26803300  1
  C  C99  1  0.17078500  0.33494300  0.30028400  1
  C  C100  1  0.14035200  0.33961100  0.32129700  1
  C  C101  1  0.24470600  0.36631500  0.18371400  1
  C  C102  1  0.27098300  0.37164900  0.15654100  1
  C  C103  1  0.21368600  0.33646500  0.14982100  1
  C  C104  1  0.18640800  0.33188500  0.17655400  1
  C  C105  1  0.20217600  0.34644400  0.19382300  1
  C  C106  1  0.19059300  0.34497800  0.24542800  1
  C  C107  1  0.17043700  0.34361300  0.22041900  1
  C  C108  1  0.25566400  0.35678200  0.13948500  1
  C  C109  1  0.05004300  0.73278300  0.55300700  1
  C  C110  1  0.04815900  0.70512800  0.55069300  1
  C  C111  1  0.02070000  0.67862000  0.57319800  1
  C  C112  1  0.99393600  0.68029400  0.59734000  1
  C  C113  1  0.99274400  0.70889400  0.59778400  1
  C  C114  1  0.02173000  0.73473600  0.57626900  1
  C  C115  1  0.95508700  0.60501300  0.69250900  1
  C  C116  1  0.93548000  0.58172500  0.72156600  1
  C  C117  1  0.95058800  0.54160500  0.70670800  1
  C  C118  1  0.97023500  0.56512400  0.67737600  1
  C  C119  1  0.97051100  0.59713300  0.66962100  1
  C  C120  1  0.96913000  0.65224200  0.62425400  1
  C  C121  1  0.98879100  0.62242100  0.63779600  1
  C  C122  1  0.93183700  0.55009700  0.72851200  1
  C  C123  1  0.76717400  0.99142600  0.41656300  1
  C  C124  1  0.78907400  0.98576000  0.44527700  1
  C  C125  1  0.82865500  0.96374200  0.45888700  1
  C  C126  1  0.84573000  0.94693600  0.44400100  1
  C  C127  1  0.82152200  0.95138300  0.41643000  1
  C  C128  1  0.78304400  0.97377800  0.40251300  1
  C  C129  1  0.99344500  0.90276400  0.45372300  1
  C  C130  1  0.03523500  0.88328600  0.45901200  1
  C  C131  1  0.04344200  0.87510500  0.51236400  1
  C  C132  1  0.00134500  0.89474200  0.50699400  1
  C  C133  1  0.97497700  0.90757900  0.47811100  1
  C  C134  1  0.89001100  0.92506000  0.45527300  1
  C  C135  1  0.92816800  0.92659500  0.47316600  1
  C  C136  1  0.05966800  0.86868400  0.48858200  1
  C  C137  1  0.55177800  0.00552000  0.38173100  1
  C  C138  1  0.52786100  0.99189200  0.41144500  1
  C  C139  1  0.48812200  0.97048700  0.41868900  1
  C  C140  1  0.47051700  0.96282000  0.39599600  1
  C  C141  1  0.49531400  0.97577800  0.36651600  1
  C  C142  1  0.53574300  0.99709900  0.35933200  1
  C  C143  1  0.33373400  0.89641100  0.42054100  1
  C  C144  1  0.29582500  0.87302300  0.43391300  1
  C  C145  1  0.29717200  0.87702600  0.48173000  1
  C  C146  1  0.33384000  0.90073300  0.46815400  1
  C  C147  1  0.35282500  0.91041100  0.43775400  1
  C  C148  1  0.42780700  0.93985900  0.40347000  1
  C  C149  1  0.39208300  0.93589100  0.42528800  1
  C  C150  1  0.27769100  0.86308900  0.46470900  1
  C  C151  1  0.73399900  0.43436100  0.86989900  1
  C  C152  1  0.70633100  0.44903300  0.88365100  1
  C  C153  1  0.66496900  0.43376700  0.90308200  1
  C  C154  1  0.64980400  0.40364500  0.90881700  1
  C  C155  1  0.67922400  0.38793800  0.89678300  1
  C  C156  1  0.72111500  0.40333800  0.87715000  1
  C  C157  1  0.50550300  0.36624900  0.96868200  1
  C  C158  1  0.46639400  0.35974400  0.99078300  1
  C  C159  1  0.45597600  0.41624500  0.97060100  1
  C  C160  1  0.49356600  0.42272100  0.94808400  1
  C  C161  1  0.51975200  0.39796300  0.94750600  1
  C  C162  1  0.60340500  0.38859600  0.92815400  1
  C  C163  1  0.56319500  0.40739700  0.92493600  1
  C  C164  1  0.44254600  0.38480000  0.99232100  1
  C  C165  1  0.22996600  0.42099300  0.00038900  1
  C  C166  1  0.18459400  0.40491300  0.00326700  1
  C  C167  1  0.14520500  0.42016000  0.98177900  1
  C  C168  1  0.15144500  0.45136900  0.95651400  1
  C  C169  1  0.19695300  0.46744300  0.95347400  1
  C  C170  1  0.23571200  0.45259900  0.97585400  1
  C  C171  1  0.03322300  0.46245400  0.88846500  1
  C  C172  1  0.99505500  0.46663200  0.86683000  1
  C  C173  1  0.93932000  0.48699200  0.89214300  1
  C  C174  1  0.97692100  0.48149600  0.91470500  1
  C  C175  1  0.02416900  0.46957400  0.91270500  1
  C  C176  1  0.11245500  0.46587000  0.93107300  1
  C  C177  1  0.06254200  0.46127700  0.93808700  1
  C  C178  1  0.94804200  0.47894100  0.86852500  1
  C  C179  1  0.44237700  0.31746500  0.13630000  1
  C  C180  1  0.42858000  0.28559400  0.15631400  1
  C  C181  1  0.45578300  0.26641100  0.18402900  1
  C  C182  1  0.49773500  0.27870200  0.19190300  1
  C  C183  1  0.51245100  0.31035300  0.17154500  1
  C  C184  1  0.48415700  0.32997400  0.14412900  1
  C  C185  1  0.58123600  0.19501100  0.25888500  1
  C  C186  1  0.60550500  0.16656000  0.27957700  1
  C  C187  1  0.54956700  0.15893500  0.32237800  1
  C  C188  1  0.52412600  0.18710800  0.30127100  1
  C  C189  1  0.54006100  0.20533400  0.26951000  1
  C  C190  1  0.52971900  0.25719000  0.21963900  1
  C  C191  1  0.50903100  0.23271100  0.24623100  1
  C  C192  1  0.58962800  0.14826000  0.31126900  1
  O  O1  1  0.54976800  0.50360200  0.45978400  1
  O  O2  1  0.52124100  0.45696000  0.50321300  1
  O  O3  1  0.56039000  0.53023100  0.49893500  1
  O  O4  1  0.52754100  0.48467600  0.54178400  1
  O  O5  1  0.46607600  0.55426800  0.48411900  1
  O  O6  1  0.43392300  0.50856300  0.52716000  1
  O  O7  1  0.45021200  0.52727400  0.44463800  1
  O  O8  1  0.41914400  0.48179800  0.48840600  1
  O  O9  1  0.93864200  0.36195500  0.33615200  1
  O  O10  1  0.96955200  0.32028000  0.38330500  1
  O  O11  1  0.03078800  0.38830500  0.31780600  1
  O  O12  1  0.06367900  0.34443600  0.36245600  1
  O  O13  1  0.02105800  0.42209000  0.35078600  1
  O  O14  1  0.05856200  0.37887500  0.39384200  1
  O  O15  1  0.92192300  0.39434200  0.36881800  1
  O  O16  1  0.95812900  0.35464200  0.41525600  1
  O  O17  1  0.12571300  0.83158800  0.52201000  1
  O  O18  1  0.10535400  0.83457000  0.47413800  1
  O  O19  1  0.22824600  0.82651000  0.51057300  1
  O  O20  1  0.20910900  0.83015900  0.46229900  1
  O  O21  1  0.21602100  0.75867900  0.54169000  1
  O  O22  1  0.19505000  0.76323800  0.49318100  1
  O  O23  1  0.11620900  0.76720600  0.55177800  1
  O  O24  1  0.09744500  0.76823800  0.50456700  1
  O  O25  1  0.87309700  0.50531000  0.83660800  1
  O  O26  1  0.90823000  0.46318300  0.83352900  1
  O  O27  1  0.77483100  0.48448500  0.83535000  1
  O  O28  1  0.80687700  0.43998300  0.83560100  1
  O  O29  1  0.77635800  0.51835700  0.76854700  1
  O  O30  1  0.80959400  0.47413300  0.76861600  1
  O  O31  1  0.87201400  0.53920600  0.77018200  1
  O  O32  1  0.90292000  0.49616300  0.76710400  1
  O  O33  1  0.71687600  0.09459900  0.38350100  1
  O  O34  1  0.73802100  0.09617200  0.33634200  1
  O  O35  1  0.70527200  0.03006700  0.41427300  1
  O  O36  1  0.72553600  0.02967300  0.36799600  1
  O  O37  1  0.60341500  0.03776700  0.39593200  1
  O  O38  1  0.62331200  0.03793100  0.34938300  1
  O  O39  1  0.61699800  0.10494300  0.36352500  1
  O  O40  1  0.64029600  0.10415800  0.31787200  1
  O  O41  1  0.31548900  0.38766300  0.09745100  1
  O  O42  1  0.28258200  0.34204600  0.10029300  1
  O  O43  1  0.30524600  0.41896100  0.03075000  1
  O  O44  1  0.27518300  0.37225700  0.03464400  1
  O  O45  1  0.40424700  0.40065300  0.02735200  1
  O  O46  1  0.37703000  0.35326800  0.03168600  1
  O  O47  1  0.41126900  0.36918000  0.09432800  1
  O  O48  1  0.37775800  0.32301500  0.09873400  1
