# Generated by REPEAT Assigner based on pymatgen
data_DB0-m2_o1_o24_f0_nbo.sym.126
_audit_creation_date              2022-05-24
_audit_creation_method            REPEAT_Assigner
_cell_length_a                    18.618090
_cell_length_b                    18.512829
_cell_length_c                    18.689468
_cell_angle_alpha                 109.062859
_cell_angle_beta                  109.912528
_cell_angle_gamma                 109.168653
_cell_volume                      4975.060415
_symmetry_space_group_name_H-M    P1
_symmetry_Int_Tables_number       1
loop_
    _symmetry_equiv_pos_site_id
    _symmetry_equiv_pos_as_xyz
    1  x,y,z
loop_
    _atom_site_type_symbol
    _atom_site_label
    _atom_site_fract_x
    _atom_site_fract_y
    _atom_site_fract_z
    _atom_type_partial_charge
    O   O1   0.598078  0.527462  0.458548  -0.610133
    O   O2   0.564112  0.633407  0.519815  -0.450217
    C   C1   0.610153  0.608252  0.487556  0.689720
    O   O3   0.419897  0.453360  0.353833  -0.510757
    O   O4   0.387549  0.529452  0.453227  -0.467826
    C   C2   0.374106  0.489780  0.373260  0.626664
    Cu  Cu1  0.494037  0.432726  0.438625  0.965664
    Cu  Cu2  0.494969  0.560650  0.553188  0.852929
    O   O5   0.390210  0.357853  0.436598  -0.672301
    O   O6   0.425784  0.468048  0.568832  -0.449824
    O   O7   0.568278  0.431950  0.541259  -0.652970
    O   O8   0.602288  0.572050  0.635335  -0.488911
    C   C3   0.379993  0.385353  0.505254  0.837311
    C   C4   0.615254  0.503841  0.618689  0.679057
    C   C5   0.312717  0.569919  0.296388  0.445970
    C   C6   0.219782  0.542112  0.278626  -0.103326
    C   C7   0.185863  0.492848  0.181677  0.536993
    C   C8   0.278876  0.520467  0.199075  -0.493673
    C   C9   0.271400  0.438818  0.204848  0.608106
    C   C10  0.178423  0.411558  0.187523  -0.329573
    C   C11  0.211666  0.460317  0.285109  -0.056608
    C   C12  0.305061  0.488313  0.302020  -0.270176
    H   H1   0.181886  0.434965  0.319926  0.049997
    C   C13  0.750295  0.746039  0.563315  -0.013053
    C   C14  0.815781  0.807593  0.562700  -0.134976
    H   H2   0.869831  0.865630  0.623288  0.093183
    C   C15  0.812650  0.798119  0.485579  -0.042770
    C   C16  0.744438  0.723843  0.406468  -0.144122
    C   C17  0.675564  0.662182  0.405768  -0.116288
    C   C18  0.679032  0.673454  0.484976  -0.054910
    C   C19  0.682402  0.516392  0.764478  -0.098057
    C   C20  0.748206  0.517767  0.830451  -0.108304
    C   C21  0.812402  0.502971  0.816688  -0.068275
    C   C22  0.814399  0.492273  0.740063  -0.119405
    C   C23  0.753993  0.499880  0.678454  -0.016903
    C   C24  0.685852  0.507815  0.688980  -0.090262
    C   C25  0.233935  0.321612  0.492928  0.112988
    C   C26  0.169898  0.260277  0.497187  -0.272523
    C   C27  0.184619  0.197371  0.514856  0.060832
    C   C28  0.263037  0.198294  0.531997  -0.287997
    H   H3   0.271215  0.147672  0.544322  0.136780
    C   C29  0.327250  0.259734  0.529351  0.177345
    C   C30  0.312495  0.321229  0.509658  -0.323567
    O   O9   0.938098  0.545143  0.076892  -0.622035
    O   O10  0.073167  0.640422  0.102071  -0.571602
    C   C31  0.007138  0.624329  0.117782  0.723032
    O   O11  0.037870  0.465636  0.107044  -0.553752
    O   O12  0.136895  0.526426  0.066261  -0.492263
    C   C32  0.116427  0.494875  0.114587  0.497298
    Cu  Cu3  0.938032  0.441611  0.004128  0.916437
    Cu  Cu4  0.058550  0.555191  0.995655  0.939936
    O   O13  0.956405  0.355598  0.929800  -0.618344
    O   O14  0.024996  0.452434  0.890370  -0.596331
    O   O15  0.856796  0.435044  0.899821  -0.598135
    O   O16  0.961532  0.566371  0.926224  -0.584654
    C   C33  0.985912  0.372360  0.878722  0.766156
    C   C34  0.880048  0.501298  0.884252  0.734559
    O   O17  0.072732  0.931967  0.464616  -0.670466
    O   O18  0.938006  0.899613  0.359491  -0.632065
    C   C35  0.007733  0.889301  0.382934  0.778329
    O   O19  0.962630  0.886478  0.528921  -0.646112
    O   O20  0.857379  0.917599  0.457893  -0.633791
    C   C36  0.880823  0.870359  0.490375  0.803738
    Cu  Cu5  0.059603  0.996507  0.561032  0.999279
    Cu  Cu6  0.938093  0.998646  0.439934  0.960633
    O   O21  0.027906  0.061478  0.638906  -0.631754
    O   O22  0.956955  0.097494  0.538918  -0.673477
    O   O23  0.137983  0.106856  0.574631  -0.572825
    O   O24  0.037406  0.079353  0.440523  -0.583622
    C   C37  0.991103  0.107127  0.618233  0.995698
    C   C38  0.116459  0.125153  0.510398  0.768992
    C   C39  0.028594  0.776899  0.187650  -0.063725
    C   C40  0.029642  0.842473  0.253391  -0.201431
    C   C41  0.012098  0.825858  0.315026  0.051095
    C   C42  0.994847  0.746184  0.311461  -0.185067
    H   H4   0.980782  0.733441  0.358997  0.135859
    C   C43  0.993422  0.681958  0.246996  -0.134275
    H   H5   0.979324  0.619745  0.245306  0.139295
    C   C44  0.011013  0.696624  0.185625  -0.007859
    C   C45  0.057493  0.316990  0.805929  -0.223497
    H   H6   0.115730  0.380502  0.852651  0.124073
    C   C46  0.060711  0.253898  0.744687  0.021103
    C   C47  0.987101  0.171452  0.686141  -0.255902
    C   C48  0.909373  0.152962  0.689065  0.027980
    C   C49  0.905575  0.218816  0.749320  0.023938
    C   C50  0.981649  0.300502  0.809920  -0.012159
    C   C51  0.188943  0.601353  0.320254  0.178580
    O   O25  0.206234  0.670053  0.301485  -0.609007
    H   H7   0.224075  0.628455  0.392103  0.004079
    H   H8   0.117258  0.562641  0.293687  -0.020627
    H   H9   0.183879  0.704891  0.330207  0.376505
    C   C52  0.596274  0.587135  0.319519  0.432571
    O   O26  0.554878  0.620033  0.272208  -0.458960
    H   H10  0.546751  0.541865  0.326320  -0.089215
    H   H11  0.615992  0.546612  0.280983  0.016919
    H   H12  0.558600  0.670582  0.316557  0.286714
    C   C53  0.606603  0.522962  0.772887  0.418050
    O   O27  0.621596  0.608858  0.799808  -0.597783
    H   H13  0.594566  0.502907  0.819007  0.017831
    H   H14  0.544274  0.477305  0.709893  -0.058192
    H   H15  0.684377  0.644743  0.819561  0.350112
    C   C54  0.750689  0.537201  0.916601  0.267908
    O   O28  0.754635  0.618056  0.954109  -0.527417
    H   H16  0.807045  0.540418  0.965447  -0.000838
    H   H17  0.691681  0.484492  0.906436  0.016651
    H   H18  0.817380  0.662042  0.982517  0.292879
    C   C55  0.878070  0.467728  0.720515  0.346604
    O   O29  0.831818  0.382915  0.649323  -0.571599
    H   H19  0.926447  0.468441  0.774840  -0.052861
    H   H20  0.917715  0.514506  0.706537  0.006045
    H   H21  0.865696  0.354359  0.667226  0.329958
    C   C56  0.766400  0.504789  0.603983  0.356122
    O   O30  0.844854  0.580273  0.637278  -0.556073
    H   H22  0.714007  0.507746  0.557111  -0.037010
    H   H23  0.767454  0.445944  0.564933  0.044516
    H   H24  0.840653  0.628874  0.674837  0.289527
    C   C57  0.219321  0.387120  0.468030  0.218963
    O   O31  0.264392  0.469363  0.542664  -0.618631
    H   H25  0.149204  0.367925  0.433262  0.022149
    H   H26  0.242181  0.391681  0.421442  -0.012557
    H   H27  0.218036  0.483764  0.544204  0.390790
    C   C58  0.088995  0.265938  0.489454  0.457045
    O   O32  0.026577  0.227581  0.401555  -0.597562
    H   H28  0.106432  0.335589  0.525011  -0.026094
    H   H29  0.059428  0.233713  0.520455  -0.022249
    H   H30  0.045179  0.191206  0.368621  0.329187
    C   C59  0.412096  0.259903  0.546424  0.303481
    O   O33  0.416756  0.196834  0.570046  -0.580480
    H   H31  0.468032  0.325226  0.600552  -0.050053
    H   H32  0.417858  0.245627  0.486839  0.044832
    H   H33  0.463207  0.231378  0.632469  0.349436
    C   C60  0.040952  0.789268  0.116033  0.323506
    O   O34  0.127338  0.813551  0.134897  -0.573328
    H   H34  0.025443  0.838974  0.105850  0.030064
    H   H35  0.995025  0.727570  0.052489  0.008730
    H   H36  0.160325  0.831660  0.197570  0.367843
    C   C61  0.391204  0.661723  0.359282  0.152971
    O   O35  0.400390  0.690397  0.442356  -0.617771
    H   H37  0.381279  0.707295  0.335730  0.003001
    H   H38  0.451556  0.661080  0.362781  -0.018710
    H   H39  0.399125  0.746252  0.457190  0.392631
    C   C62  0.051855  0.930940  0.259254  0.353049
    O   O36  0.135109  0.970367  0.269081  -0.597524
    H   H40  0.052123  0.976932  0.314649  -0.061073
    H   H41  0.002174  0.923500  0.199704  0.027571
    H   H42  0.176041  0.999529  0.332732  0.380951
    C   C63  0.144516  0.276414  0.742597  0.345774
    O   O37  0.181425  0.228772  0.768968  -0.594178
    H   H43  0.192152  0.347509  0.787489  -0.028223
    H   H44  0.132446  0.262135  0.675929  -0.060515
    H   H45  0.202537  0.255226  0.832499  0.370434
    C   C64  0.830798  0.061466  0.630090  0.241019
    O   O38  0.814844  0.023857  0.680513  -0.587084
    H   H46  0.839822  0.017176  0.582272  -0.035726
    H   H47  0.771766  0.062650  0.590909  0.037449
    H   H48  0.777994  0.959940  0.638617  0.363264
    C   C65  0.818185  0.203314  0.742803  0.163881
    O   O39  0.762456  0.192626  0.663357  -0.563150
    H   H49  0.823182  0.258126  0.794591  0.010233
    H   H50  0.787335  0.144623  0.748330  0.043852
    H   H51  0.745878  0.238538  0.680096  0.355213
    C   C66  0.320019  0.556802  0.152354  0.211385
    O   O40  0.276645  0.493558  0.064356  -0.546303
    H   H52  0.389994  0.574386  0.182959  -0.046251
    H   H53  0.315722  0.616556  0.157945  0.009331
    H   H54  0.324363  0.492455  0.052609  0.367828
    C   C67  0.296832  0.375850  0.158865  0.064116
    O   O41  0.384593  0.421298  0.182104  -0.550759
    H   H55  0.255045  0.345029  0.087080  0.023160
    H   H56  0.286851  0.323719  0.177369  0.005875
    H   H57  0.383751  0.403636  0.125671  0.357787
    C   C68  0.100162  0.319706  0.124621  0.296351
    O   O42  0.083651  0.296294  0.039468  -0.609440
    H   H58  0.041726  0.318541  0.128536  -0.021081
    H   H59  0.114149  0.272432  0.142635  -0.027112
    H   H60  0.019443  0.255736  0.002193  0.374391
    C   C69  0.759192  0.759255  0.649860  0.209084
    O   O43  0.703379  0.789242  0.664972  -0.605388
    H   H61  0.827716  0.809047  0.702779  0.013892
    H   H62  0.744633  0.697620  0.652834  0.029028
    H   H63  0.742643  0.852817  0.707552  0.385110
    C   C70  0.747518  0.707938  0.323282  0.363502
    O   O44  0.756022  0.633572  0.291771  -0.568987
    H   H64  0.802999  0.762960  0.332157  -0.031258
    H   H65  0.687917  0.699445  0.272755  -0.006240
    H   H66  0.817597  0.652719  0.332294  0.339459
