# Generated by REPEAT Assigner based on pymatgen
data_DB0-m3_o430_o159_f0_fsc.sym.14_sqe
_audit_creation_date              2022-05-24
_audit_creation_method            REPEAT_Assigner
_cell_length_a                    15.066388
_cell_length_b                    8.458945
_cell_length_c                    13.401661
_cell_angle_alpha                 90.000000
_cell_angle_beta                  98.287376
_cell_angle_gamma                 90.000000
_cell_volume                      1690.149033
_symmetry_space_group_name_H-M    P1
_symmetry_Int_Tables_number       1
loop_
    _symmetry_equiv_pos_site_id
    _symmetry_equiv_pos_as_xyz
    1  x,y,z
loop_
    _atom_site_type_symbol
    _atom_site_label
    _atom_site_fract_x
    _atom_site_fract_y
    _atom_site_fract_z
    _atom_type_partial_charge
    H   H1   0.566661  0.997490  0.057506  0.123577
    H   H2   0.433283  0.998797  0.941847  0.124482
    C   C1   0.679919  0.857337  0.038048  -0.050837
    C   C2   0.320595  0.858038  0.962608  -0.055070
    C   C3   0.768564  0.857484  0.023020  -0.255820
    C   C4   0.232203  0.857433  0.978433  -0.259484
    H   H3   0.801176  0.746632  0.011435  0.125750
    H   H4   0.199319  0.745565  0.985795  0.131622
    C   C5   0.813820  0.999449  0.018911  0.212554
    C   C6   0.186352  0.999040  0.981472  0.216585
    C   C7   0.767773  0.140729  0.022633  -0.274621
    C   C8   0.231770  0.140638  0.976279  -0.275096
    H   H5   0.800613  0.252841  0.015948  0.128729
    H   H6   0.199426  0.251881  0.987490  0.124053
    C   C9   0.679281  0.139365  0.038192  -0.002577
    C   C10  0.320318  0.140032  0.960804  0.001990
    C   C11  0.636963  0.998020  0.049578  -0.130480
    C   C12  0.363032  0.998889  0.950018  -0.130687
    C   C13  0.945314  0.117792  0.955619  -0.122335
    C   C14  0.035565  0.117874  0.947683  -0.115378
    H   H7   0.903062  0.208548  0.917198  0.098068
    H   H8   0.061693  0.208501  0.903162  0.099224
    C   C15  0.090891  0.999767  0.992415  0.007099
    C   C16  0.909356  0.999353  0.008414  0.006011
    C   C17  0.054941  0.881529  0.045402  -0.129175
    C   C18  0.964680  0.881345  0.053218  -0.111820
    H   H9   0.097140  0.790821  0.083940  0.099938
    H   H10  0.938484  0.790626  0.097621  0.098689
    O   O1   0.589904  0.663509  0.104073  -0.728162
    O   O2   0.410536  0.664706  0.895995  -0.724230
    O   O3   0.601546  0.661012  0.934337  -0.717070
    O   O4   0.398866  0.661168  0.065716  -0.709024
    C   C19  0.625380  0.714258  0.026181  0.851755
    C   C20  0.375211  0.715141  0.974045  0.845251
    O   O5   0.599668  0.334904  0.935414  -0.692344
    O   O6   0.400040  0.335001  0.064203  -0.698696
    O   O7   0.589075  0.331719  0.105605  -0.659925
    O   O8   0.410608  0.332868  0.894028  -0.663726
    C   C21  0.624497  0.282150  0.027278  0.769952
    C   C22  0.375045  0.282968  0.972176  0.775224
    Zn  Zn1  0.505816  0.500114  0.889620  1.059544
    Zn  Zn2  0.494233  0.499556  0.110222  1.057935
    C   C23  0.491242  0.363332  0.292328  0.313380
    C   C24  0.508616  0.363974  0.707647  0.315377
    N   N1   0.489230  0.499307  0.240112  -0.070632
    N   N2   0.510796  0.500099  0.759730  -0.071301
    C   C25  0.490346  0.639144  0.287659  -0.039523
    C   C26  0.509500  0.639808  0.712019  -0.040824
    C   C27  0.493855  0.646379  0.390778  -0.312930
    C   C28  0.505785  0.646728  0.608862  -0.316864
    C   C29  0.497066  0.508330  0.447287  0.147284
    C   C30  0.502518  0.508498  0.552505  0.155085
    C   C31  0.495007  0.365692  0.396185  -0.002108
    C   C32  0.504613  0.366015  0.603771  -0.006411
    C   C33  0.501923  0.225143  0.551579  -0.155079
    C   C34  0.497534  0.224983  0.448528  -0.159067
    H   H11  0.489767  0.747424  0.244733  0.161786
    H   H12  0.510111  0.748201  0.754836  0.163999
    H   H13  0.503393  0.113254  0.590655  0.112881
    H   H14  0.496015  0.112980  0.409578  0.113406
    H   H15  0.494683  0.762542  0.423067  0.176312
    H   H16  0.504863  0.762794  0.576424  0.177216
    O   O9   0.508616  0.223340  0.757810  -0.392913
    H   H17  0.571816  0.187576  0.765767  0.335289
    O   O10  0.491343  0.222556  0.242345  -0.391059
    H   H18  0.428073  0.187113  0.233908  0.335222
