# generated using pymatgen
data_ZnH13C28N(ClO2)2
_symmetry_space_group_name_H-M   'P 1'
_cell_length_a   13.09626400
_cell_length_b   16.13467600
_cell_length_c   14.99267100
_cell_angle_alpha   90.00835500
_cell_angle_beta   95.44311200
_cell_angle_gamma   89.99674800
_symmetry_Int_Tables_number   1
_chemical_formula_structural   ZnH13C28N(ClO2)2
_chemical_formula_sum   'Zn2 H26 C56 N2 Cl4 O8'
_cell_volume   3153.72599420
_cell_formula_units_Z   2
loop_
 _symmetry_equiv_pos_site_id
 _symmetry_equiv_pos_as_xyz
  1  'x, y, z'
loop_
 _atom_site_type_symbol
 _atom_site_label
 _atom_site_symmetry_multiplicity
 _atom_site_fract_x
 _atom_site_fract_y
 _atom_site_fract_z
 _atom_site_occupancy
  Zn  Zn1  1  0.50410300  0.50246100  0.60142400  1
  Zn  Zn2  1  0.50296300  0.50134500  0.39833400  1
  H  H1  1  0.82759800  0.48495800  0.38607400  1
  H  H2  1  0.17952700  0.52144500  0.61295400  1
  H  H3  1  0.82978500  0.52266200  0.66649000  1
  H  H4  1  0.17756800  0.47508300  0.33419600  1
  H  H5  1  0.51599700  0.07730500  0.64317800  1
  H  H6  1  0.49137400  0.92649300  0.35669500  1
  H  H7  1  0.51515100  0.92483100  0.64208800  1
  H  H8  1  0.49225000  0.07895500  0.35778700  1
  H  H9  1  0.40247100  0.40086400  0.90562700  1
  H  H10  1  0.59680600  0.60717100  0.09340500  1
  H  H11  1  0.03258600  0.57147500  0.23571000  1
  H  H12  1  0.95326900  0.53748800  0.08515400  1
  H  H13  1  0.84391700  0.30963200  0.18341000  1
  H  H14  1  0.92342000  0.34311100  0.33405100  1
  H  H15  1  0.96594600  0.65031100  0.71776600  1
  H  H16  1  0.04636100  0.67248600  0.87050300  1
  H  H17  1  0.17444600  0.42981500  0.87094400  1
  H  H18  1  0.09346300  0.40700500  0.71826400  1
  H  H19  1  0.29072700  0.46471000  0.14830100  1
  H  H20  1  0.18871500  0.35569700  0.21086500  1
  H  H21  1  0.35153800  0.17235000  0.07716400  1
  H  H22  1  0.45498100  0.28075300  0.01499800  1
  H  H23  1  0.48936200  0.67817700  0.83472700  1
  H  H24  1  0.59210900  0.78586000  0.77046500  1
  H  H25  1  0.85614400  0.70596800  0.93571100  1
  H  H26  1  0.75450800  0.59718400  0.99942900  1
  C  C1  1  0.50462200  0.33991700  0.50079500  1
  C  C2  1  0.50248400  0.66388900  0.49897300  1
  C  C3  1  0.30261100  0.50099200  0.48401000  1
  C  C4  1  0.70445200  0.50278800  0.51574400  1
  C  C5  1  0.81709500  0.50300200  0.52474000  1
  C  C6  1  0.19001300  0.49866300  0.47519700  1
  C  C7  1  0.03143900  0.47962900  0.38415000  1
  C  C8  1  0.97590500  0.51466000  0.61710900  1
  C  C9  1  0.13695100  0.48465400  0.39278900  1
  C  C10  1  0.87025000  0.51409200  0.60763500  1
  C  C11  1  0.13665500  0.50854300  0.54958900  1
  C  C12  1  0.87053300  0.49191900  0.45056000  1
  C  C13  1  0.03024000  0.50400300  0.54232100  1
  C  C14  1  0.97712000  0.49091500  0.45884900  1
  C  C15  1  0.51010100  0.95870600  0.57962100  1
  C  C16  1  0.49729100  0.04508700  0.42025400  1
  C  C17  1  0.50316500  0.91643600  0.49932300  1
  C  C18  1  0.50419800  0.08736100  0.50054700  1
  C  C19  1  0.49678000  0.95962600  0.41963600  1
  C  C20  1  0.51060100  0.04417100  0.58023800  1
  C  C21  1  0.50272300  0.82750400  0.49875100  1
  C  C22  1  0.50455600  0.17629700  0.50109100  1
  C  C23  1  0.50470200  0.25098000  0.50120800  1
  C  C24  1  0.50249300  0.75282300  0.49859100  1
  C  C25  1  0.44493000  0.44619100  0.94730600  1
  C  C26  1  0.55397600  0.56202000  0.05176800  1
  C  C27  1  0.50045500  0.50608600  0.90747500  1
  C  C28  1  0.49735200  0.50281800  0.09153500  1
  C  C29  1  0.55497100  0.56487500  0.95981100  1
  C  C30  1  0.44180600  0.44458700  0.03912400  1
  C  C31  1  0.50321200  0.50428300  0.81191000  1
  C  C32  1  0.50025000  0.50141700  0.18755800  1
  C  C33  1  0.98090100  0.46046600  0.29506500  1
  C  C34  1  0.99072600  0.51407500  0.22460900  1
  C  C35  1  0.94624100  0.49504400  0.14001800  1
  C  C36  1  0.89306600  0.42182600  0.12529700  1
  C  C37  1  0.88480500  0.36740200  0.19509900  1
  C  C38  1  0.92910100  0.38642100  0.27973700  1
  C  C39  1  0.02657800  0.52799600  0.70738800  1
  C  C40  1  0.01200900  0.60179300  0.75105600  1
  C  C41  1  0.05714200  0.61433600  0.83682800  1
  C  C42  1  0.11596800  0.55278400  0.87967900  1
  C  C43  1  0.12899000  0.47834500  0.83703000  1
  C  C44  1  0.08383100  0.46570600  0.75121200  1
  C  C45  1  0.38149400  0.38000700  0.07895000  1
  C  C46  1  0.30588100  0.40055600  0.13355200  1
  C  C47  1  0.24780100  0.33933600  0.16833800  1
  C  C48  1  0.26445400  0.25736100  0.14842300  1
  C  C49  1  0.33875500  0.23662300  0.09315600  1
  C  C50  1  0.39669000  0.29776200  0.05807100  1
  C  C51  1  0.61564500  0.62906700  0.91987500  1
  C  C52  1  0.57031200  0.68294400  0.85615200  1
  C  C53  1  0.62779300  0.74402800  0.82042200  1
  C  C54  1  0.73054500  0.75207800  0.84866900  1
  C  C55  1  0.77566300  0.69942600  0.91320500  1
  C  C56  1  0.71827000  0.63840100  0.94912100  1
  N  N1  1  0.50217700  0.50079300  0.26487400  1
  N  N2  1  0.50477000  0.50304900  0.73487800  1
  Cl  Cl1  1  0.83698300  0.39754400  0.01779300  1
  Cl  Cl2  1  0.17344700  0.56906900  0.98848300  1
  Cl  Cl3  1  0.19059600  0.17969900  0.19258300  1
  Cl  Cl4  1  0.80350000  0.82960000  0.80320400  1
  O  O1  1  0.50483400  0.37885500  0.57761900  1
  O  O2  1  0.50224700  0.62494800  0.42215700  1
  O  O3  1  0.50391400  0.37797100  0.42346900  1
  O  O4  1  0.50316100  0.62583100  0.57627800  1
  O  O5  1  0.35118000  0.50181300  0.56473300  1
  O  O6  1  0.65590200  0.50194100  0.43498900  1
  O  O7  1  0.35026400  0.50059400  0.41081300  1
  O  O8  1  0.65680100  0.50316600  0.58896500  1
