# generated using pymatgen
data_CuH19C40N(ClO)4
_symmetry_space_group_name_H-M   'P 1'
_cell_length_a   21.48641100
_cell_length_b   21.94865300
_cell_length_c   14.54112800
_cell_angle_alpha   90.00000000
_cell_angle_beta   128.27596100
_cell_angle_gamma   90.00000000
_symmetry_Int_Tables_number   1
_chemical_formula_structural   CuH19C40N(ClO)4
_chemical_formula_sum   'Cu4 H76 C160 N4 Cl16 O16'
_cell_volume   5383.43665780
_cell_formula_units_Z   4
loop_
 _symmetry_equiv_pos_site_id
 _symmetry_equiv_pos_as_xyz
  1  'x, y, z'
loop_
 _atom_site_type_symbol
 _atom_site_label
 _atom_site_symmetry_multiplicity
 _atom_site_fract_x
 _atom_site_fract_y
 _atom_site_fract_z
 _atom_site_occupancy
  Cu  Cu1  1  0.52549100  0.00278300  0.43629400  1
  Cu  Cu2  1  0.47450400  0.00280200  0.56365600  1
  Cu  Cu3  1  0.02557300  0.50280600  0.43647000  1
  Cu  Cu4  1  0.97449800  0.50270100  0.56371900  1
  H  H1  1  0.36998500  0.78060200  0.91459800  1
  H  H2  1  0.63154300  0.22388400  0.08733600  1
  H  H3  1  0.62998900  0.78065500  0.08560500  1
  H  H4  1  0.36864700  0.22390500  0.91285700  1
  H  H5  1  0.87016300  0.28057000  0.91452400  1
  H  H6  1  0.13127600  0.72399800  0.08726800  1
  H  H7  1  0.12997100  0.28063000  0.08559700  1
  H  H8  1  0.86860600  0.72393800  0.91275400  1
  H  H9  1  0.37444000  0.86825900  0.18421300  1
  H  H10  1  0.62566100  0.13722900  0.81573800  1
  H  H11  1  0.62506700  0.86799000  0.81521000  1
  H  H12  1  0.37415500  0.13704100  0.18394900  1
  H  H13  1  0.87495600  0.36802400  0.18470300  1
  H  H14  1  0.12577100  0.63704400  0.81617000  1
  H  H15  1  0.12521300  0.36803400  0.81542700  1
  H  H16  1  0.87438300  0.63716600  0.18426100  1
  H  H17  1  0.29399600  0.86696700  0.38538000  1
  H  H18  1  0.70689800  0.13789700  0.61570200  1
  H  H19  1  0.70627700  0.86714200  0.61506100  1
  H  H20  1  0.29328300  0.13800900  0.38447700  1
  H  H21  1  0.79404600  0.36693000  0.38526000  1
  H  H22  1  0.20673700  0.63797500  0.61576900  1
  H  H23  1  0.20612400  0.36697400  0.61488400  1
  H  H24  1  0.79309200  0.63784900  0.38425800  1
  H  H25  1  0.38107000  0.82097300  0.07010100  1
  H  H26  1  0.61995300  0.18390800  0.93115300  1
  H  H27  1  0.61902500  0.82112000  0.93024800  1
  H  H28  1  0.38015800  0.18392000  0.06898100  1
  H  H29  1  0.88118400  0.32100000  0.06995200  1
  H  H30  1  0.11969900  0.68399300  0.93106500  1
  H  H31  1  0.11893100  0.32101600  0.93010400  1
  H  H32  1  0.87997200  0.68377500  0.06865400  1
  H  H33  1  0.28949500  0.99606900  0.80064200  1
  H  H34  1  0.71021800  0.99629500  0.19887400  1
  H  H35  1  0.78977800  0.49514000  0.80110300  1
  H  H36  1  0.21048700  0.49701200  0.19928000  1
  H  H37  1  0.44972700  0.00395100  0.18542600  1
  H  H38  1  0.55005200  0.00458000  0.81433600  1
  H  H39  1  0.94994400  0.50391800  0.18571900  1
  H  H40  1  0.05017100  0.50440100  0.81451400  1
  H  H41  1  0.68333300  0.99873400  0.49130400  1
  H  H42  1  0.31654700  0.99824200  0.50836200  1
  H  H43  1  0.18354900  0.49894500  0.49168100  1
  H  H44  1  0.81665900  0.49776900  0.50865300  1
  H  H45  1  0.26679200  0.99553800  0.62022200  1
  H  H46  1  0.73299600  0.99623100  0.37931300  1
  H  H47  1  0.76700300  0.49491700  0.62066900  1
  H  H48  1  0.23323900  0.49663900  0.37973900  1
  H  H49  1  0.37374600  0.99720200  0.00641400  1
  H  H50  1  0.62597200  0.99664100  0.99318500  1
  H  H51  1  0.87401700  0.49585000  0.00683900  1
  H  H52  1  0.12621000  0.49762400  0.99351800  1
  H  H53  1  0.46997100  0.67798900  0.74064500  1
  H  H54  1  0.33006800  0.83915600  0.59580900  1
  H  H55  1  0.24934500  0.80381700  0.65204900  1
  H  H56  1  0.66624700  0.16643400  0.40307700  1
  H  H57  1  0.53352900  0.33100600  0.26239400  1
  H  H58  1  0.61626700  0.36389000  0.20828300  1
  H  H59  1  0.52972500  0.67811200  0.25919800  1
  H  H60  1  0.66968500  0.83925200  0.40380300  1
  H  H61  1  0.75049000  0.80375300  0.34778800  1
  H  H62  1  0.33396000  0.16643500  0.59713600  1
  H  H63  1  0.46671900  0.33098100  0.73797000  1
  H  H64  1  0.38391900  0.36386900  0.79199600  1
  H  H65  1  0.97031400  0.17809700  0.74082700  1
  H  H66  1  0.83034500  0.33922100  0.59612500  1
  H  H67  1  0.74953400  0.30374400  0.65212100  1
  H  H68  1  0.16592200  0.66643700  0.40280800  1
  H  H69  1  0.03317500  0.83099700  0.26202000  1
  H  H70  1  0.11606200  0.86393000  0.20817900  1
  H  H71  1  0.02979300  0.17794400  0.25919600  1
  H  H72  1  0.16955500  0.33918000  0.40383800  1
  H  H73  1  0.25042600  0.30381800  0.34788400  1
  H  H74  1  0.83387200  0.66645000  0.59711800  1
  H  H75  1  0.96668100  0.83098900  0.73774300  1
  H  H76  1  0.88394000  0.86395000  0.79182200  1
  C  C1  1  0.60197900  0.91979200  0.63389600  1
  C  C2  1  0.39800700  0.08578900  0.36609000  1
  C  C3  1  0.39801900  0.91978600  0.36607000  1
  C  C4  1  0.60199500  0.08579100  0.63387100  1
  C  C5  1  0.10202200  0.41975700  0.63400700  1
  C  C6  1  0.89802800  0.58574400  0.36618100  1
  C  C7  1  0.89813200  0.41972100  0.36616800  1
  C  C8  1  0.10198400  0.58576000  0.63403900  1
  C  C9  1  0.66001300  0.13351900  0.70941800  1
  C  C10  1  0.34048900  0.87167300  0.29113300  1
  C  C11  1  0.34002200  0.13351800  0.29056200  1
  C  C12  1  0.65947700  0.87167000  0.70889000  1
  C  C13  1  0.15993500  0.63350500  0.70959400  1
  C  C14  1  0.84068200  0.37158400  0.29120000  1
  C  C15  1  0.84001600  0.63347300  0.29059000  1
  C  C16  1  0.15948800  0.37161400  0.70892800  1
  C  C17  1  0.76475800  0.19935900  0.75845900  1
  C  C18  1  0.23756100  0.80439200  0.24450000  1
  C  C19  1  0.23534500  0.19940400  0.24162000  1
  C  C20  1  0.76246600  0.80442700  0.75568100  1
  C  C21  1  0.26456700  0.69943700  0.75850200  1
  C  C22  1  0.73772900  0.30431900  0.24447200  1
  C  C23  1  0.73527700  0.69933000  0.24152800  1
  C  C24  1  0.26240800  0.30432600  0.75563000  1
  C  C25  1  0.70976800  0.15525800  0.68776200  1
  C  C26  1  0.29132500  0.84944200  0.31358500  1
  C  C27  1  0.29035700  0.15532500  0.31233900  1
  C  C28  1  0.70879400  0.84953200  0.68667700  1
  C  C29  1  0.20961000  0.65531900  0.68784500  1
  C  C30  1  0.79145000  0.34938600  0.31353300  1
  C  C31  1  0.79024200  0.65521200  0.31220900  1
  C  C32  1  0.20871100  0.34941200  0.68658800  1
  C  C33  1  0.66451600  0.15717200  0.80148800  1
  C  C34  1  0.33612800  0.84794000  0.19920800  1
  C  C35  1  0.33544400  0.15709600  0.19838900  1
  C  C36  1  0.66364500  0.84782900  0.80059600  1
  C  C37  1  0.16447000  0.65710800  0.80172200  1
  C  C38  1  0.83645600  0.34780000  0.19942000  1
  C  C39  1  0.83551300  0.65711200  0.19849200  1
  C  C40  1  0.16369500  0.34780800  0.80068200  1
  C  C41  1  0.71793800  0.20372400  0.87239000  1
  C  C42  1  0.28311600  0.80108800  0.12883000  1
  C  C43  1  0.28208600  0.20368800  0.12757600  1
  C  C44  1  0.71673100  0.80102900  0.87112900  1
  C  C45  1  0.21779100  0.70373400  0.87249100  1
  C  C46  1  0.78338200  0.30099600  0.12891700  1
  C  C47  1  0.78208500  0.70366800  0.12756200  1
  C  C48  1  0.21673800  0.30098400  0.87115200  1
  C  C49  1  0.76937400  0.22341900  0.85110300  1
  C  C50  1  0.23213100  0.78101900  0.15071400  1
  C  C51  1  0.23069300  0.22342700  0.14892700  1
  C  C52  1  0.76778500  0.78099400  0.84933700  1
  C  C53  1  0.26919400  0.72346900  0.85116200  1
  C  C54  1  0.73235400  0.28093700  0.15074200  1
  C  C55  1  0.73067100  0.72339200  0.14888700  1
  C  C56  1  0.26777400  0.28092900  0.84934300  1
  C  C57  1  0.72187100  0.23039500  0.96441400  1
  C  C58  1  0.27913400  0.77448000  0.03673500  1
  C  C59  1  0.27818400  0.23035700  0.03558500  1
  C  C60  1  0.72071900  0.77442700  0.96326300  1
  C  C61  1  0.22166400  0.73043200  0.96443500  1
  C  C62  1  0.77937400  0.27441600  0.03676600  1
  C  C63  1  0.77816400  0.73034900  0.03553800  1
  C  C64  1  0.22071500  0.27439600  0.96327100  1
  C  C65  1  0.33230800  0.79018900  0.01626800  1
  C  C66  1  0.66870500  0.21469300  0.98490600  1
  C  C67  1  0.66764300  0.79021200  0.98388800  1
  C  C68  1  0.33138200  0.21467300  0.01514600  1
  C  C69  1  0.83249900  0.29015700  0.01621700  1
  C  C70  1  0.16847200  0.71475600  0.98488400  1
  C  C71  1  0.16759900  0.29015700  0.98383000  1
  C  C72  1  0.83129600  0.71462500  0.01498900  1
  C  C73  1  0.32654900  0.76592600  0.92459400  1
  C  C74  1  0.67474500  0.23871500  0.07695600  1
  C  C75  1  0.67337100  0.76591200  0.07552900  1
  C  C76  1  0.32538900  0.23871200  0.92314200  1
  C  C77  1  0.82673700  0.26587900  0.92453800  1
  C  C78  1  0.17450500  0.73880300  0.07692400  1
  C  C79  1  0.17335300  0.26590200  0.07551500  1
  C  C80  1  0.82535700  0.73873600  0.92306900  1
  C  C81  1  0.32997400  0.99756200  0.66596600  1
  C  C82  1  0.66981900  0.99804200  0.33363000  1
  C  C83  1  0.83015600  0.49712900  0.66632500  1
  C  C84  1  0.17004600  0.49824600  0.33400900  1
  C  C85  1  0.35785800  0.99913300  0.60296300  1
  C  C86  1  0.64198300  0.99949500  0.39669900  1
  C  C87  1  0.85798200  0.49880300  0.60324600  1
  C  C88  1  0.14219000  0.49959600  0.39706300  1
  C  C89  1  0.48863100  0.00227900  0.77683100  1
  C  C90  1  0.51115700  0.00210500  0.22288800  1
  C  C91  1  0.98876200  0.50217100  0.77705100  1
  C  C92  1  0.01137600  0.50197700  0.22321100  1
  C  C93  1  0.46309800  0.00003700  0.84510100  1
  C  C94  1  0.53664700  0.00012200  0.15453400  1
  C  C95  1  0.96329500  0.49990900  0.84541900  1
  C  C96  1  0.03688900  0.49996700  0.15489600  1
  C  C97  1  0.38231300  0.99847700  0.78653700  1
  C  C98  1  0.61743700  0.99878400  0.21306000  1
  C  C99  1  0.88252600  0.49812300  0.78690100  1
  C  C100  1  0.11768000  0.49888100  0.21342800  1
  C  C101  1  0.51512700  0.99947100  0.96886600  1
  C  C102  1  0.48460500  0.99951600  0.03075400  1
  C  C103  1  0.01534900  0.49945900  0.96921100  1
  C  C104  1  0.98484600  0.49919700  0.03113000  1
  C  C105  1  0.40266200  0.99835000  0.96718000  1
  C  C106  1  0.59705800  0.99821300  0.03240700  1
  C  C107  1  0.90292000  0.49756600  0.96759800  1
  C  C108  1  0.09729500  0.49868100  0.03275900  1
  C  C109  1  0.35281000  0.99741900  0.84724400  1
  C  C110  1  0.64692000  0.99762800  0.15233400  1
  C  C111  1  0.85306600  0.49677500  0.84765800  1
  C  C112  1  0.14716800  0.49802700  0.15269400  1
  C  C113  1  0.31485800  0.72125000  0.72938100  1
  C  C114  1  0.37657400  0.68578400  0.75353100  1
  C  C115  1  0.42160800  0.70567700  0.72152200  1
  C  C116  1  0.40491300  0.76071000  0.66487500  1
  C  C117  1  0.34331700  0.79608600  0.64054100  1
  C  C118  1  0.29820000  0.77631500  0.67243500  1
  C  C119  1  0.68696200  0.28309000  0.27313600  1
  C  C120  1  0.70143400  0.22784900  0.32902800  1
  C  C121  1  0.65486800  0.20956300  0.35930300  1
  C  C122  1  0.59446400  0.24650100  0.33511000  1
  C  C123  1  0.58056600  0.30186000  0.28068100  1
  C  C124  1  0.62700200  0.32026100  0.25028300  1
  C  C125  1  0.68500000  0.72116600  0.27066700  1
  C  C126  1  0.62323400  0.68575400  0.24650300  1
  C  C127  1  0.57813800  0.70574600  0.27835400  1
  C  C128  1  0.59482600  0.76081800  0.33487100  1
  C  C129  1  0.65646400  0.79613800  0.35921500  1
  C  C130  1  0.70163900  0.77627200  0.32747600  1
  C  C131  1  0.31317400  0.28310100  0.72697900  1
  C  C132  1  0.29868100  0.22788000  0.67102500  1
  C  C133  1  0.34531800  0.20956700  0.64089400  1
  C  C134  1  0.40577600  0.24648200  0.66521800  1
  C  C135  1  0.41965500  0.30184400  0.71962800  1
  C  C136  1  0.37317900  0.32025200  0.74995000  1
  C  C137  1  0.81505200  0.22118000  0.72934700  1
  C  C138  1  0.87682000  0.18576100  0.75354100  1
  C  C139  1  0.92191600  0.20574100  0.72168600  1
  C  C140  1  0.90523400  0.26080700  0.66515400  1
  C  C141  1  0.84358700  0.29612700  0.64076900  1
  C  C142  1  0.79841200  0.27627400  0.67251000  1
  C  C143  1  0.18679500  0.78316100  0.27316300  1
  C  C144  1  0.20122900  0.72790700  0.32899800  1
  C  C145  1  0.15457200  0.70958000  0.35908700  1
  C  C146  1  0.09410900  0.74649100  0.33476000  1
  C  C147  1  0.08025700  0.80186900  0.28040600  1
  C  C148  1  0.12678100  0.82030400  0.25018300  1
  C  C149  1  0.18502500  0.22119500  0.27070700  1
  C  C150  1  0.12328000  0.18573000  0.24648200  1
  C  C151  1  0.07816600  0.20563500  0.27835000  1
  C  C152  1  0.09480100  0.26068700  0.33490700  1
  C  C153  1  0.15639000  0.29607600  0.35925100  1
  C  C154  1  0.20159900  0.27628800  0.32753000  1
  C  C155  1  0.81319900  0.78317700  0.72697300  1
  C  C156  1  0.79869300  0.72793200  0.67108100  1
  C  C157  1  0.84527500  0.70959000  0.64086900  1
  C  C158  1  0.90572100  0.74648500  0.66509600  1
  C  C159  1  0.91962300  0.80186700  0.71946000  1
  C  C160  1  0.87318100  0.82031500  0.74982300  1
  N  N1  1  0.43612300  0.00285600  0.65874600  1
  N  N2  1  0.56370600  0.00287100  0.34098100  1
  N  N3  1  0.93621800  0.50272300  0.65894600  1
  N  N4  1  0.06389300  0.50281900  0.34129400  1
  Cl  Cl1  1  0.39924100  0.61600900  0.82665600  1
  Cl  Cl2  1  0.46152300  0.78540400  0.62293900  1
  Cl  Cl3  1  0.78007900  0.18141300  0.36504800  1
  Cl  Cl4  1  0.53631700  0.22358200  0.37540600  1
  Cl  Cl5  1  0.60052900  0.61594900  0.17347000  1
  Cl  Cl6  1  0.53814500  0.78565000  0.37659400  1
  Cl  Cl7  1  0.21994900  0.18149100  0.63480600  1
  Cl  Cl8  1  0.46400600  0.22353800  0.62508900  1
  Cl  Cl9  1  0.89947800  0.11594100  0.82651500  1
  Cl  Cl10  1  0.96189300  0.28560800  0.62337500  1
  Cl  Cl11  1  0.27990800  0.68148500  0.36511200  1
  Cl  Cl12  1  0.03583400  0.72351900  0.37480000  1
  Cl  Cl13  1  0.10066500  0.11594200  0.17341900  1
  Cl  Cl14  1  0.03812500  0.28539400  0.37671500  1
  Cl  Cl15  1  0.71999700  0.68155000  0.63501400  1
  Cl  Cl16  1  0.96388700  0.72349400  0.62488000  1
  O  O1  1  0.59709800  0.93863500  0.54407200  1
  O  O2  1  0.40294800  0.06697000  0.45590400  1
  O  O3  1  0.40292000  0.93865600  0.45585800  1
  O  O4  1  0.59705100  0.06695500  0.54403200  1
  O  O5  1  0.09717000  0.43866000  0.54426500  1
  O  O6  1  0.90292500  0.56686700  0.45597000  1
  O  O7  1  0.90295100  0.43854300  0.45592000  1
  O  O8  1  0.09711000  0.56698000  0.54424600  1
  O  O9  1  0.55698500  0.94166600  0.65836000  1
  O  O10  1  0.44301500  0.06393800  0.34169800  1
  O  O11  1  0.44301000  0.94164100  0.34161300  1
  O  O12  1  0.55696600  0.06396600  0.65828200  1
  O  O13  1  0.05701200  0.44158800  0.65843700  1
  O  O14  1  0.94309300  0.56394800  0.34182000  1
  O  O15  1  0.94312800  0.44165100  0.34176900  1
  O  O16  1  0.05693500  0.56388200  0.65835800  1
