# generated using pymatgen
data_ZnH10C19(NO2)2
_symmetry_space_group_name_H-M   'P 1'
_cell_length_a   12.95251600
_cell_length_b   14.09455500
_cell_length_c   16.04055800
_cell_angle_alpha   90.01112200
_cell_angle_beta   93.52331200
_cell_angle_gamma   88.91028100
_symmetry_Int_Tables_number   1
_chemical_formula_structural   ZnH10C19(NO2)2
_chemical_formula_sum   'Zn2 H20 C38 N4 O8'
_cell_volume   2922.29847121
_cell_formula_units_Z   2
loop_
 _symmetry_equiv_pos_site_id
 _symmetry_equiv_pos_as_xyz
  1  'x, y, z'
loop_
 _atom_site_type_symbol
 _atom_site_label
 _atom_site_symmetry_multiplicity
 _atom_site_fract_x
 _atom_site_fract_y
 _atom_site_fract_z
 _atom_site_occupancy
  Zn  Zn1  1  0.38600100  0.49194400  0.49451000  1
  Zn  Zn2  1  0.62096300  0.50530000  0.50660700  1
  H  H1  1  0.40698000  0.63340200  0.04890600  1
  H  H2  1  0.60522800  0.36229700  0.95006500  1
  H  H3  1  0.68275900  0.50707400  0.06239400  1
  H  H4  1  0.32895700  0.48731800  0.94064500  1
  H  H5  1  0.38628300  0.00665100  0.48326200  1
  H  H6  1  0.62060600  0.99061500  0.51867000  1
  H  H7  1  0.01290500  0.57359000  0.56942200  1
  H  H8  1  0.99403300  0.42371500  0.43178400  1
  H  H9  1  0.53421900  0.71772800  0.95135400  1
  H  H10  1  0.56688600  0.77592300  0.82164100  1
  H  H11  1  0.67462500  0.77527500  0.70171400  1
  H  H12  1  0.82127700  0.66261500  0.69607300  1
  H  H13  1  0.86103700  0.55131000  0.81206800  1
  H  H14  1  0.75542600  0.55155000  0.93262300  1
  H  H15  1  0.33720600  0.34312100  0.04740900  1
  H  H16  1  0.31542700  0.28107000  0.17750300  1
  H  H17  1  0.38830000  0.19706300  0.30151000  1
  H  H18  1  0.57325300  0.15338300  0.31425100  1
  H  H19  1  0.68522400  0.19322500  0.20163700  1
  H  H20  1  0.61405300  0.27569600  0.07715300  1
  C  C1  1  0.48718800  0.68370100  0.49857900  1
  C  C2  1  0.51977000  0.31354500  0.50259900  1
  C  C3  1  0.50285100  0.49989900  0.66342300  1
  C  C4  1  0.50414500  0.49730500  0.33767900  1
  C  C5  1  0.45091600  0.57096000  0.02679700  1
  C  C6  1  0.56131900  0.42371900  0.97405800  1
  C  C7  1  0.54679700  0.57447900  0.97772600  1
  C  C8  1  0.46602000  0.42000600  0.02360000  1
  C  C9  1  0.50285100  0.49991100  0.75286700  1
  C  C10  1  0.50452500  0.49672300  0.24823100  1
  C  C11  1  0.40931100  0.49309800  0.96802400  1
  C  C12  1  0.60300200  0.50168800  0.03370100  1
  C  C13  1  0.50568800  0.49907600  0.91940700  1
  C  C14  1  0.50584400  0.49598200  0.08185900  1
  C  C15  1  0.50373900  0.49972700  0.82802900  1
  C  C16  1  0.50502300  0.49625300  0.17312500  1
  C  C17  1  0.52873500  0.21192300  0.50422600  1
  C  C18  1  0.47819900  0.78533100  0.49731500  1
  C  C19  1  0.54536500  0.02475800  0.50727400  1
  C  C20  1  0.46151400  0.97250300  0.49470700  1
  C  C21  1  0.47060500  0.87066800  0.49616400  1
  C  C22  1  0.53629700  0.12658900  0.50564600  1
  C  C23  1  0.03165900  0.47195600  0.47610500  1
  C  C24  1  0.97529300  0.52534600  0.52509500  1
  C  C25  1  0.86440700  0.51909600  0.51928900  1
  C  C26  1  0.14255100  0.47818700  0.48187200  1
  C  C27  1  0.65148500  0.66201300  0.88475300  1
  C  C28  1  0.63105400  0.72590500  0.82013300  1
  C  C29  1  0.69161800  0.72575000  0.75238100  1
  C  C30  1  0.77376900  0.66263700  0.74917800  1
  C  C31  1  0.79583300  0.60009700  0.81409600  1
  C  C32  1  0.73529900  0.59990700  0.88188300  1
  C  C33  1  0.45992100  0.28704000  0.11930800  1
  C  C34  1  0.39697200  0.26263700  0.18222300  1
  C  C35  1  0.43775900  0.21526300  0.25226800  1
  C  C36  1  0.54137700  0.19085000  0.25950000  1
  C  C37  1  0.60414900  0.21340100  0.19644200  1
  C  C38  1  0.56369600  0.26097600  0.12639400  1
  N  N1  1  0.23177300  0.48320500  0.48650800  1
  N  N2  1  0.77518800  0.51404900  0.51461100  1
  N  N3  1  0.58917800  0.66398700  0.95427900  1
  N  N4  1  0.41617300  0.33407500  0.04712500  1
  O  O1  1  0.40194100  0.63466300  0.49448500  1
  O  O2  1  0.60502700  0.36257900  0.50665700  1
  O  O3  1  0.58020000  0.64480800  0.50363300  1
  O  O4  1  0.42675700  0.35243600  0.49751000  1
  O  O5  1  0.41382900  0.49451000  0.62016900  1
  O  O6  1  0.59312900  0.50270800  0.38095800  1
  O  O7  1  0.59209400  0.50472000  0.62930700  1
  O  O8  1  0.41487500  0.49249600  0.37179500  1
