# Generated by REPEAT Assigner based on pymatgen
data_DB0-m3_o1_o25_f0_pcu.sym.63
_audit_creation_date              2022-05-24
_audit_creation_method            REPEAT_Assigner
_cell_length_a                    16.000772
_cell_length_b                    10.946927
_cell_length_c                    9.799449
_cell_angle_alpha                 90.004005
_cell_angle_beta                  90.004458
_cell_angle_gamma                 90.006116
_cell_volume                      1716.464333
_symmetry_space_group_name_H-M    P1
_symmetry_Int_Tables_number       1
loop_
    _symmetry_equiv_pos_site_id
    _symmetry_equiv_pos_as_xyz
    1  x,y,z
loop_
    _atom_site_type_symbol
    _atom_site_label
    _atom_site_fract_x
    _atom_site_fract_y
    _atom_site_fract_z
    _atom_type_partial_charge
    O   O1   0.498233  0.317898  0.614388  -0.651073
    O   O2   0.501768  0.682101  0.385612  -0.651080
    O   O3   0.501893  0.318202  0.378778  -0.687876
    O   O4   0.498107  0.681797  0.621223  -0.687886
    C   C1   0.500101  0.260866  0.496683  0.718399
    C   C2   0.499899  0.739133  0.503317  0.718403
    O   O5   0.373395  0.500374  0.607939  -0.606571
    O   O6   0.626605  0.499625  0.392061  -0.606573
    O   O7   0.377939  0.500301  0.372492  -0.686190
    O   O8   0.622061  0.499698  0.627508  -0.686182
    C   C3   0.336860  0.500453  0.488354  0.833501
    C   C4   0.663140  0.499547  0.511646  0.833502
    Zn  Zn1  0.496549  0.499213  0.655510  1.029126
    Zn  Zn2  0.503452  0.500787  0.344490  1.029129
    C   C5   0.974550  0.402579  0.562359  -0.165353
    C   C6   0.025450  0.597421  0.437641  -0.165543
    C   C7   0.025135  0.401590  0.431697  -0.200441
    C   C8   0.974865  0.598409  0.568303  -0.200156
    H   H1   0.047237  0.318985  0.377019  0.106542
    H   H2   0.952763  0.681015  0.622981  0.106455
    H   H3   0.941824  0.505987  0.270198  0.099895
    H   H4   0.058176  0.494013  0.729802  0.099930
    C   C9   0.247196  0.500096  0.485494  -0.141477
    C   C10  0.752804  0.499903  0.514506  -0.141491
    C   C11  0.031093  0.497970  0.625719  -0.152968
    C   C12  0.968907  0.502029  0.374281  -0.152760
    C   C13  0.080539  0.498716  0.494031  0.650133
    C   C14  0.919461  0.501283  0.505970  0.649930
    C   C15  0.171898  0.499564  0.487582  -0.349650
    C   C16  0.828102  0.500436  0.512418  -0.349607
    C   C17  0.500866  0.061699  0.377267  -0.116320
    C   C18  0.499134  0.938300  0.622733  -0.116321
    H   H5   0.501483  0.108104  0.279957  0.107232
    H   H6   0.498517  0.891896  0.720043  0.107236
    C   C19  0.500756  0.935739  0.379270  -0.076307
    C   C20  0.499244  0.064260  0.620730  -0.076306
    H   H7   0.501251  0.887395  0.283160  0.094313
    H   H8   0.498749  0.112605  0.716841  0.094309
    C   C21  0.499907  0.873202  0.502001  -0.025485
    C   C22  0.500093  0.126798  0.497999  -0.025489
    C   C23  0.566860  0.557273  0.057959  0.020889
    C   C24  0.433141  0.442727  0.942041  0.020895
    C   C25  0.556239  0.553542  0.917629  0.023084
    C   C26  0.443762  0.446458  0.082371  0.023086
    H   H9   0.601501  0.595873  0.851581  0.162155
    H   H10  0.398500  0.404127  0.148420  0.162155
    N   N1   0.490743  0.496282  0.859894  -0.027841
    N   N2   0.509257  0.503718  0.140106  -0.027842
    C   C27  0.942797  0.289681  0.635095  0.731651
    F   F1   0.009792  0.218090  0.674153  -0.244717
    F   F2   0.891782  0.223812  0.548255  -0.234235
    F   F3   0.897916  0.323970  0.749340  -0.247773
    C   C28  0.057203  0.710319  0.364905  0.731653
    F   F4   0.990208  0.781910  0.325847  -0.244712
    F   F5   0.102084  0.676030  0.250660  -0.247766
    F   F6   0.108218  0.776187  0.451745  -0.234230
    C   C29  0.644687  0.615601  0.113619  0.559228
    F   F7   0.684562  0.683726  0.014328  -0.197855
    F   F8   0.699087  0.525684  0.157135  -0.177952
    F   F9   0.625653  0.692984  0.219939  -0.146111
    C   C30  0.355313  0.384399  0.886382  0.559238
    F   F10  0.315439  0.316273  0.985672  -0.197854
    F   F11  0.374348  0.307016  0.780061  -0.146119
    F   F12  0.300913  0.474316  0.842865  -0.177957
