# Generated by REPEAT Assigner based on pymatgen
data_DB0-m2_o9_o22_f0_nbo.sym.68
_audit_creation_date              2022-05-24
_audit_creation_method            REPEAT_Assigner
_cell_length_a                    18.911615
_cell_length_b                    18.572616
_cell_length_c                    18.572026
_cell_angle_alpha                 109.015613
_cell_angle_beta                  110.201198
_cell_angle_gamma                 109.553505
_cell_volume                      4998.937989
_symmetry_space_group_name_H-M    P1
_symmetry_Int_Tables_number       1
loop_
    _symmetry_equiv_pos_site_id
    _symmetry_equiv_pos_as_xyz
    1  x,y,z
loop_
    _atom_site_type_symbol
    _atom_site_label
    _atom_site_fract_x
    _atom_site_fract_y
    _atom_site_fract_z
    _atom_type_partial_charge
    C   C1    0.371522  0.378523  0.486025  0.617934
    C   C2    0.797486  0.496310  0.808849  0.187236
    C   C3    0.987385  0.817185  0.309566  -0.074876
    C   C4    0.976223  0.815811  0.231110  0.062333
    C   C5    0.979304  0.751740  0.170760  -0.191535
    C   C6    0.991640  0.688192  0.186486  -0.110639
    C   C7    0.000699  0.688045  0.263933  0.238651
    C   C8    0.888286  0.854146  0.134759  -0.182849
    C   C9    0.873339  0.915514  0.116337  -0.080076
    C   C10   0.932789  0.004121  0.173437  -0.179463
    C   C11   0.008089  0.031187  0.247885  0.056960
    C   C12   0.023642  0.969939  0.265748  -0.209750
    C   C13   0.835603  0.566675  0.786917  -0.075370
    C   C14   0.962611  0.881327  0.210507  0.164562
    C   C15   0.161296  0.731612  0.413406  -0.304498
    C   C16   0.248204  0.737151  0.461219  0.061141
    C   C17   0.322523  0.830170  0.503629  0.209591
    C   C18   0.409012  0.834916  0.548976  -0.206396
    C   C19   0.578204  0.459443  0.755055  -0.421718
    C   C20   0.568974  0.505663  0.832706  0.032582
    C   C21   0.479728  0.449676  0.816765  0.280360
    C   C22   0.470089  0.498247  0.892805  -0.349112
    C   C23   0.738153  0.513404  0.840986  -0.250810
    C   C24   0.416131  0.153411  0.381259  -0.106599
    C   C25   0.363200  0.185819  0.394147  -0.158560
    C   C26   0.366263  0.214315  0.474346  0.220901
    C   C27   0.419564  0.206353  0.540075  -0.151914
    C   C28   0.471083  0.172285  0.526502  -0.101186
    C   C29   0.470091  0.146503  0.447489  -0.113745
    C   C30   0.240677  0.181634  0.493115  -0.045539
    C   C31   0.606122  0.492437  0.616508  0.563918
    C   C32   0.170972  0.191433  0.490621  0.000676
    C   C33   0.163009  0.259181  0.478313  0.024957
    C   C34   0.229568  0.319832  0.477696  -0.244269
    C   C35   0.299589  0.309863  0.481075  0.122873
    C   C36   0.301962  0.237021  0.483604  -0.184095
    C   C37   0.040420  0.269615  0.388058  -0.194875
    C   C38   0.968098  0.278791  0.372955  -0.098856
    C   C39   0.941174  0.287858  0.433843  -0.158969
    C   C40   0.986920  0.288144  0.510031  -0.024510
    C   C41   0.059178  0.278881  0.525038  -0.177346
    C   C42   0.619584  0.616159  0.502996  0.689982
    C   C43   0.085745  0.268377  0.463633  0.195447
    C   C44   0.244292  0.219434  0.182826  -0.024053
    C   C45   0.267087  0.304703  0.201170  -0.222289
    C   C46   0.221518  0.342090  0.226299  0.190093
    C   C47   0.150674  0.292329  0.228934  -0.127735
    C   C48   0.126983  0.206708  0.208945  -0.189255
    C   C49   0.174192  0.170373  0.186845  -0.055353
    C   C50   0.174817  0.436477  0.183630  -0.101624
    C   C51   0.189503  0.515760  0.187295  -0.113151
    C   C52   0.271846  0.590409  0.248521  0.102092
    C   C53   0.385465  0.502341  0.373300  0.606316
    C   C54   0.335166  0.584229  0.307941  -0.098516
    C   C55   0.320287  0.504347  0.303291  -0.051956
    C   C56   0.240207  0.429469  0.238371  -0.020292
    C   C57   0.370568  0.726098  0.260201  -0.249565
    C   C58   0.392754  0.808095  0.268085  -0.073871
    C   C59   0.338529  0.841875  0.271205  -0.163274
    C   C60   0.262206  0.793624  0.266712  -0.088308
    C   C61   0.240158  0.711759  0.259105  0.183236
    C   C62   0.293626  0.676908  0.254791  0.044285
    C   C63   0.533799  0.462590  0.221053  -0.128144
    C   C64   0.670710  0.403618  0.654600  -0.112795
    C   C65   0.604448  0.530398  0.302708  -0.129400
    C   C66   0.607109  0.609196  0.341776  0.118289
    C   C67   0.539926  0.620702  0.298102  -0.134578
    C   C68   0.469327  0.552904  0.216363  -0.097207
    C   C69   0.466128  0.473779  0.177991  -0.075506
    C   C70   0.744665  0.749847  0.431321  -0.190469
    C   C71   0.816660  0.819551  0.511427  -0.059462
    C   C72   0.824688  0.821572  0.589462  0.015576
    C   C73   0.760241  0.754215  0.585606  -0.177213
    C   C74   0.689274  0.684131  0.505291  -0.072774
    C   C75   0.743916  0.406592  0.725777  0.015722
    C   C76   0.682276  0.681475  0.427823  0.109879
    C   C77   0.947881  0.880126  0.736771  -0.144040
    C   C78   0.014631  0.949018  0.819949  -0.128208
    C   C79   0.029996  0.033591  0.843977  -0.083548
    C   C80   0.978287  0.049185  0.784935  -0.121596
    C   C81   0.911932  0.980467  0.701457  -0.152396
    C   C82   0.897107  0.895722  0.676714  0.179938
    C   C83   0.996109  0.390488  0.883232  0.747700
    C   C84   0.869984  0.499209  0.879545  0.526924
    C   C85   0.993619  0.621915  0.119437  0.811688
    C   C86   0.763478  0.561231  0.712457  -0.050850
    C   C87   0.118576  0.515208  0.120719  0.639582
    C   C88   0.003813  0.129525  0.625105  0.628759
    C   C89   0.106208  0.125402  0.495706  0.687030
    C   C90   0.988614  0.885334  0.378413  0.686657
    C   C91   0.882120  0.888892  0.510365  0.720787
    C   C92   0.726319  0.167828  0.762014  -0.189905
    C   C93   0.811484  0.200561  0.781427  -0.018917
    C   C94   0.836588  0.229527  0.729910  0.095966
    C   C95   0.774944  0.220965  0.656012  -0.148003
    C   C96   0.689488  0.186776  0.635682  -0.124273
    C   C97   0.668508  0.516965  0.771887  0.453744
    C   C98   0.665205  0.160843  0.689041  -0.066022
    C   C99   0.928294  0.193366  0.679361  -0.111044
    C   C100  0.006946  0.199039  0.694264  0.076511
    C   C101  0.082715  0.265645  0.774814  0.003950
    C   C102  0.077984  0.329648  0.833845  -0.180750
    C   C103  0.998770  0.323363  0.817867  -0.057638
    C   C104  0.923156  0.251321  0.742713  -0.021396
    C   C105  0.206168  0.268071  0.881273  -0.111573
    C   C106  0.284081  0.268531  0.908778  -0.134673
    C   C107  0.323251  0.269169  0.858564  -0.171801
    C   C108  0.675133  0.492370  0.688046  0.043580
    C   C109  0.284765  0.270116  0.781217  0.084811
    C   C110  0.207539  0.270901  0.754356  -0.180040
    C   C111  0.166747  0.268063  0.803220  0.118054
    C   C112  0.941371  0.468730  0.247879  -0.190308
    C   C113  0.937832  0.535301  0.232435  -0.002093
    C   C114  0.009763  0.619307  0.282193  -0.218349
    C   C115  0.085297  0.638305  0.352801  0.321313
    C   C116  0.087236  0.570454  0.368431  -0.257551
    C   C117  0.016294  0.486231  0.315371  -0.084227
    C   C118  0.999130  0.753086  0.324908  -0.242703
    Cu  Cu1   0.496602  0.436977  0.435238  0.849334
    Cu  Cu2   0.495088  0.558373  0.554759  0.936280
    Cu  Cu3   0.937480  0.444787  0.002299  0.901231
    Cu  Cu4   0.050854  0.568800  0.997786  0.950645
    Cu  Cu5   0.058770  0.006740  0.562299  0.920410
    Cu  Cu6   0.929783  0.004567  0.441160  0.922744
    H   H1    0.678210  0.387515  0.595663  0.039159
    H   H2    0.768397  0.626722  0.734026  0.019199
    H   H3    0.870642  0.633165  0.845743  0.025689
    H   H4    0.510239  0.119312  0.436709  0.105998
    H   H5    0.413618  0.131297  0.318442  0.105910
    H   H6    0.317411  0.186406  0.340266  0.111382
    H   H7    0.419822  0.225203  0.601765  0.095647
    H   H8    0.511535  0.165219  0.577893  0.096311
    H   H9    0.244252  0.125759  0.496188  0.097112
    H   H10   0.226073  0.375116  0.472819  0.116264
    H   H11   0.060643  0.261999  0.339638  0.140554
    H   H12   0.607280  0.351012  0.636030  0.032390
    H   H13   0.932427  0.278757  0.313216  0.112044
    H   H14   0.884504  0.295103  0.422035  0.115761
    H   H15   0.966310  0.295844  0.558238  0.071075
    H   H16   0.094905  0.280429  0.585253  0.066885
    H   H17   0.155370  0.103062  0.171265  0.062420
    H   H18   0.280321  0.190507  0.163612  0.082058
    H   H19   0.319320  0.341227  0.193523  0.107450
    H   H20   0.112797  0.319970  0.245625  0.089149
    H   H21   0.070425  0.167939  0.209372  0.134018
    H   H22   0.112324  0.377808  0.133412  0.093764
    H   H23   0.714852  0.354909  0.740749  0.028048
    H   H24   0.397287  0.642769  0.359440  0.120214
    H   H25   0.413399  0.700254  0.257031  0.158343
    H   H26   0.452776  0.845890  0.271738  0.098507
    H   H27   0.356018  0.906239  0.277558  0.110713
    H   H28   0.219874  0.820265  0.269985  0.079520
    H   H29   0.181161  0.675529  0.257613  0.009175
    H   H30   0.410671  0.420636  0.114048  0.093610
    H   H31   0.531502  0.400692  0.190754  0.108843
    H   H32   0.657679  0.521723  0.336251  0.088028
    H   H33   0.542413  0.682708  0.328304  0.077443
    H   H34   0.786523  0.393616  0.701175  0.007844
    H   H35   0.416328  0.561608  0.182339  0.073954
    H   H36   0.737790  0.747184  0.370121  0.117399
    H   H37   0.764659  0.756861  0.646115  0.121197
    H   H38   0.936113  0.813932  0.718442  0.096973
    H   H39   0.054737  0.936630  0.866467  0.110230
    H   H40   0.082089  0.087554  0.909334  0.081530
    H   H41   0.989475  0.115297  0.804372  0.112037
    H   H42   0.870871  0.993118  0.656045  0.077164
    H   H43   0.598105  0.133361  0.672995  0.106907
    H   H44   0.706996  0.145366  0.802586  0.121563
    H   H45   0.771548  0.543245  0.653900  0.023605
    H   H46   0.857877  0.200550  0.835407  0.066182
    H   H47   0.793201  0.239571  0.612964  0.114426
    H   H48   0.641785  0.180004  0.577443  0.095684
    H   H49   0.868408  0.137774  0.620743  0.108287
    H   H50   0.136508  0.383393  0.895240  0.117582
    H   H51   0.175192  0.265833  0.920353  0.097958
    H   H52   0.314026  0.267536  0.969382  0.119454
    H   H53   0.384096  0.269059  0.879849  0.113491
    H   H54   0.315203  0.270525  0.741553  0.017553
    H   H55   0.178850  0.272405  0.694273  0.078376
    H   H56   0.881534  0.557023  0.765956  0.026453
    H   H57   0.018907  0.434225  0.328299  0.111393
    H   H58   0.884925  0.403102  0.207856  0.113324
    H   H59   0.877507  0.521662  0.181402  0.066766
    H   H60   0.142904  0.581068  0.422673  0.116085
    H   H61   0.004723  0.751972  0.384384  0.143448
    H   H62   0.971923  0.751106  0.110144  0.122922
    H   H63   0.840555  0.784774  0.090729  0.102493
    H   H64   0.814495  0.894175  0.057683  0.107716
    H   H65   0.920453  0.052291  0.159646  0.097697
    H   H66   0.054912  0.100488  0.292860  0.045324
    H   H67   0.682846  0.586137  0.799532  -0.070171
    H   H68   0.083078  0.991668  0.323970  0.082653
    H   H69   0.148905  0.768041  0.463640  0.087140
    H   H70   0.167849  0.765180  0.374648  0.059795
    H   H71   0.256105  0.690634  0.413660  -0.055262
    H   H72   0.251256  0.721552  0.514606  0.024069
    H   H73   0.316443  0.876697  0.553240  -0.040685
    H   H74   0.320718  0.849225  0.452646  -0.067486
    H   H75   0.412124  0.816272  0.600502  0.032378
    H   H76   0.462912  0.903220  0.580422  0.031423
    H   H77   0.416016  0.789384  0.499466  0.027229
    H   H78   0.708180  0.460591  0.854313  0.056308
    H   H79   0.568292  0.394094  0.745975  0.073640
    H   H80   0.525747  0.448473  0.694988  0.084214
    H   H81   0.576469  0.569844  0.839828  0.015406
    H   H82   0.619518  0.517271  0.894769  -0.006863
    H   H83   0.472665  0.386440  0.812397  -0.015835
    H   H84   0.428290  0.436348  0.754136  -0.052039
    H   H85   0.519364  0.509152  0.955291  0.054779
    H   H86   0.403934  0.458574  0.879963  0.066646
    H   H87   0.479371  0.562663  0.899118  0.068542
    H   H88   0.777245  0.577376  0.903682  0.044348
    O   O1    0.387546  0.357792  0.420700  -0.503324
    O   O2    0.026715  0.470616  0.893384  -0.607799
    O   O3    0.853049  0.432439  0.895144  -0.570985
    O   O4    0.948551  0.569237  0.923688  -0.560408
    O   O5    0.927692  0.540554  0.073692  -0.573812
    O   O6    0.057641  0.647650  0.103073  -0.644699
    O   O7    0.039397  0.476341  0.108687  -0.526960
    O   O8    0.135837  0.549390  0.072619  -0.584276
    O   O9    0.054608  0.097765  0.647740  -0.510938
    O   O10   0.941252  0.093524  0.543332  -0.611630
    O   O11   0.134095  0.092192  0.544393  -0.637416
    O   O12   0.416850  0.458712  0.555689  -0.552130
    O   O13   0.023085  0.092872  0.442398  -0.540954
    O   O14   0.041354  0.911155  0.460872  -0.558704
    O   O15   0.932146  0.911551  0.355802  -0.533321
    O   O16   0.965251  0.916441  0.559055  -0.570489
    O   O17   0.853757  0.912132  0.451671  -0.579913
    O   O18   0.561396  0.425431  0.534568  -0.543621
    O   O19   0.595072  0.561418  0.637961  -0.574158
    O   O20   0.605380  0.534854  0.468080  -0.552900
    O   O21   0.573437  0.639190  0.535209  -0.582329
    O   O22   0.431569  0.467295  0.354441  -0.448878
    O   O23   0.395395  0.536572  0.453023  -0.579433
    O   O24   0.964902  0.368075  0.930591  -0.553832
