# Generated by REPEAT Assigner based on pymatgen
data_DB0-m2_o14_o21_f0_pcu.sym.10_sqe
_audit_creation_date              2022-05-24
_audit_creation_method            REPEAT_Assigner
_cell_length_a                    9.432161
_cell_length_b                    10.822843
_cell_length_c                    13.890313
_cell_angle_alpha                 89.991727
_cell_angle_beta                  85.251194
_cell_angle_gamma                 89.986702
_cell_volume                      1413.094417
_symmetry_space_group_name_H-M    P1
_symmetry_Int_Tables_number       1
loop_
    _symmetry_equiv_pos_site_id
    _symmetry_equiv_pos_as_xyz
    1  x,y,z
loop_
    _atom_site_type_symbol
    _atom_site_label
    _atom_site_fract_x
    _atom_site_fract_y
    _atom_site_fract_z
    _atom_type_partial_charge
    O   O1   0.386430  0.672786  0.541776  -0.473986
    O   O2   0.629526  0.669271  0.492835  -0.616751
    C   C1   0.506469  0.728770  0.510919  0.571457
    O   O3   0.361856  0.459593  0.648943  -0.501854
    O   O4   0.599817  0.519821  0.653311  -0.425930
    C   C2   0.474096  0.488652  0.695899  0.603123
    Cu  Cu1  0.363288  0.498311  0.511464  0.978668
    Cu  Cu2  0.640691  0.491125  0.514981  0.877133
    O   O5   0.384595  0.322393  0.482241  -0.513350
    O   O6   0.606668  0.315072  0.538410  -0.553952
    O   O7   0.408485  0.537889  0.375146  -0.634220
    O   O8   0.637173  0.464776  0.376080  -0.622287
    C   C3   0.489186  0.259749  0.515985  0.489085
    C   C4   0.530139  0.504734  0.330357  0.899060
    C   C5   0.543052  0.506218  0.226698  -0.355520
    C   C6   0.558734  0.507700  0.035839  -0.099453
    C   C7   0.443534  0.482301  0.990384  -0.043910
    C   C8   0.451337  0.483693  0.886557  -0.013856
    C   C9   0.551065  0.506998  0.139667  0.056163
    C   C10  0.459933  0.485473  0.799529  -0.190840
    H   H1   0.343869  0.460897  0.031526  0.143453
    H   H2   0.658310  0.529228  0.994633  0.160747
    H   H3   0.715177  0.887403  0.541959  0.177005
    C   C11  0.266267  0.863004  0.446472  -0.541177
    H   H4   0.278472  0.770984  0.417280  0.209945
    C   C12  0.135372  0.917076  0.443613  0.413360
    C   C13  0.114545  0.035213  0.477138  0.194158
    C   C14  0.227934  0.103498  0.503872  -0.311003
    H   H5   0.203443  0.193833  0.532786  0.196305
    C   C15  0.363935  0.052517  0.500808  -0.034722
    C   C16  0.377795  0.926200  0.483769  0.228618
    C   C17  0.502324  0.864765  0.503165  -0.031495
    C   C18  0.617854  0.932964  0.526225  -0.213923
    H   H6   0.704395  0.109482  0.547589  0.120891
    C   C19  0.610268  0.059992  0.530876  -0.136217
    C   C20  0.484844  0.122315  0.517627  0.069741
    C   C21  0.884622  0.332806  0.380113  0.319875
    C   C22  0.964492  0.293968  0.298642  -0.285151
    H   H7   0.921684  0.231237  0.247802  0.138057
    C   C23  0.104670  0.319422  0.287860  -0.064727
    H   H8   0.170361  0.281054  0.227715  0.105233
    C   C24  0.165384  0.379919  0.359724  -0.219483
    H   H9   0.276885  0.379196  0.348915  0.154422
    C   C25  0.086226  0.435236  0.437699  0.259658
    C   C26  0.938284  0.418178  0.445412  -0.099110
    N   N1   0.853753  0.481009  0.514995  -0.132314
    C   C27  0.920242  0.554589  0.576291  0.277131
    C   C28  0.067607  0.559105  0.574919  0.485927
    N   N2   0.151249  0.501923  0.505159  -0.413103
    O   O9   0.763913  0.267070  0.401863  -0.274419
    H   H10  0.722540  0.252026  0.339697  0.284755
    O   O10  0.127659  0.626376  0.644152  -0.505466
    H   H11  0.121529  0.713193  0.622376  0.360693
    O   O11  0.025021  0.850975  0.411748  -0.589881
    H   H12  0.033588  0.863083  0.340851  0.372398
    O   O12  0.981695  0.085963  0.482316  -0.369198
    H   H13  0.954114  0.082734  0.415214  0.251004
    O   O13  0.842811  0.626017  0.642346  -0.495112
    H   H14  0.845339  0.709652  0.613453  0.364345
