# generated using pymatgen
data_Zn2H7C21N3O8
_symmetry_space_group_name_H-M   'P 1'
_cell_length_a   8.57153000
_cell_length_b   10.86330600
_cell_length_c   12.31857300
_cell_angle_alpha   94.81796200
_cell_angle_beta   90.00726100
_cell_angle_gamma   89.99354900
_symmetry_Int_Tables_number   1
_chemical_formula_structural   Zn2H7C21N3O8
_chemical_formula_sum   'Zn2 H7 C21 N3 O8'
_cell_volume   1142.99280054
_cell_formula_units_Z   1
loop_
 _symmetry_equiv_pos_site_id
 _symmetry_equiv_pos_as_xyz
  1  'x, y, z'
loop_
 _atom_site_type_symbol
 _atom_site_label
 _atom_site_symmetry_multiplicity
 _atom_site_fract_x
 _atom_site_fract_y
 _atom_site_fract_z
 _atom_site_occupancy
  Zn  Zn1  1  0.99972300  0.97387500  0.88007400  1
  Zn  Zn2  1  0.99992500  0.02529100  0.12003900  1
  H  H1  1  0.99914500  0.85926500  0.47553000  1
  H  H2  1  0.00061000  0.13998600  0.52457900  1
  H  H3  1  0.11259200  0.39318900  0.99063600  1
  H  H4  1  0.49377400  0.08161000  0.95322100  1
  H  H5  1  0.49465500  0.91830400  0.04646100  1
  H  H6  1  0.75404600  0.40718900  0.01275300  1
  H  H7  1  0.75435500  0.59204300  0.98845600  1
  C  C1  1  0.21703100  0.17123800  0.98586800  1
  C  C2  1  0.21696100  0.82761300  0.01408800  1
  C  C3  1  0.77776600  0.83338100  0.01313400  1
  C  C4  1  0.77725200  0.16577900  0.98717800  1
  C  C5  1  0.00015200  0.05220500  0.47572500  1
  C  C6  1  0.99960800  0.94704500  0.52438600  1
  C  C7  1  0.99962100  0.94940200  0.64178000  1
  C  C8  1  0.00012000  0.04984100  0.35833100  1
  C  C9  1  0.49636700  0.18075200  0.96606500  1
  C  C10  1  0.63649600  0.24017300  0.98041200  1
  C  C11  1  0.64097100  0.36670400  0.99756700  1
  C  C12  1  0.35896100  0.24495800  0.97843400  1
  C  C13  1  0.36155500  0.37328100  0.99052100  1
  C  C14  1  0.50356200  0.43530300  0.99613500  1
  C  C15  1  0.50370700  0.56435600  0.00436100  1
  C  C16  1  0.64129100  0.63271400  0.00324200  1
  C  C17  1  0.63697500  0.75931600  0.01996100  1
  C  C18  1  0.22393200  0.43992600  0.99526500  1
  C  C19  1  0.36206800  0.62704800  0.00944100  1
  C  C20  1  0.35976100  0.75498800  0.02136400  1
  C  C21  1  0.49704400  0.81914600  0.03381900  1
  N  N1  1  0.00008400  0.04651800  0.26401200  1
  N  N2  1  0.99963500  0.95270900  0.73609700  1
  N  N3  1  0.22664800  0.56421900  0.00433200  1
  O  O1  1  0.16492500  0.14778500  0.08236900  1
  O  O2  1  0.16550800  0.10646100  0.89843200  1
  O  O3  1  0.16483500  0.85125600  0.91761900  1
  O  O4  1  0.16568000  0.89257500  0.10151300  1
  O  O5  1  0.83352000  0.85355700  0.91698000  1
  O  O6  1  0.83083900  0.89614900  0.10110400  1
  O  O7  1  0.83337200  0.14566300  0.08327900  1
  O  O8  1  0.83035200  0.10305300  0.89916400  1
