# generated using pymatgen
data_ZnH14C20NO4
_symmetry_space_group_name_H-M   'P 1'
_cell_length_a   9.28845900
_cell_length_b   8.54887900
_cell_length_c   19.34452400
_cell_angle_alpha   90.00000000
_cell_angle_beta   91.06952400
_cell_angle_gamma   90.00000000
_symmetry_Int_Tables_number   1
_chemical_formula_structural   ZnH14C20NO4
_chemical_formula_sum   'Zn2 H28 C40 N2 O8'
_cell_volume   1535.80196104
_cell_formula_units_Z   2
loop_
 _symmetry_equiv_pos_site_id
 _symmetry_equiv_pos_as_xyz
  1  'x, y, z'
loop_
 _atom_site_type_symbol
 _atom_site_label
 _atom_site_symmetry_multiplicity
 _atom_site_fract_x
 _atom_site_fract_y
 _atom_site_fract_z
 _atom_site_occupancy
  Zn  Zn1  1  0.82522700  0.50129200  0.39163700  1
  Zn  Zn2  1  0.14705300  0.50105800  0.38936400  1
  H  H1  1  0.02295500  0.00065600  0.43783600  1
  H  H2  1  0.98863300  0.25336600  0.62381600  1
  H  H3  1  0.96699100  0.75008600  0.62347600  1
  H  H4  1  0.94167400  0.76750800  0.93758200  1
  H  H5  1  0.11098300  0.23029300  0.93748500  1
  H  H6  1  0.93944900  0.76842300  0.06202600  1
  H  H7  1  0.12566900  0.22810300  0.06260000  1
  H  H8  1  0.02023400  0.25326700  0.15961600  1
  H  H9  1  0.04372900  0.75082900  0.16258700  1
  H  H10  1  0.91642800  0.00186700  0.33925600  1
  H  H11  1  0.92098300  0.22807600  0.84856400  1
  H  H12  1  0.10606400  0.77265200  0.84303800  1
  H  H13  1  0.89236700  0.22624500  0.72384500  1
  H  H14  1  0.09366900  0.77472800  0.71822700  1
  H  H15  1  0.61827000  0.50129800  0.49833400  1
  H  H16  1  0.74344900  0.50210000  0.25828100  1
  H  H17  1  0.34847300  0.49977000  0.15422900  1
  H  H18  1  0.22752400  0.50123300  0.25396600  1
  H  H19  1  0.35447100  0.50111700  0.49592600  1
  H  H20  1  0.71775700  0.39481800  0.13922900  1
  H  H21  1  0.71507500  0.60543900  0.13759600  1
  H  H22  1  0.48782600  0.60108100  0.06850000  1
  H  H23  1  0.48860500  0.38795600  0.07094100  1
  H  H24  1  0.72360700  0.38612700  0.01245500  1
  H  H25  1  0.72286100  0.59778000  0.01006600  1
  H  H26  1  0.49612200  0.38123800  0.94279400  1
  H  H27  1  0.63710400  0.48506800  0.89874400  1
  H  H28  1  0.49551100  0.59310600  0.94036300  1
  C  C1  1  0.99439600  0.14050100  0.52671400  1
  C  C2  1  0.99364900  0.86144100  0.52680400  1
  C  C3  1  0.98634100  0.14181000  0.59783100  1
  C  C4  1  0.97982300  0.86092100  0.59763300  1
  C  C5  1  0.98385500  0.00121800  0.63421100  1
  C  C6  1  0.00697200  0.00084400  0.49259100  1
  C  C7  1  0.98351300  0.86815100  0.96515800  1
  C  C8  1  0.07493600  0.12820700  0.96521900  1
  C  C9  1  0.98443400  0.86859800  0.03635900  1
  C  C10  1  0.08181900  0.12678300  0.03658300  1
  C  C11  1  0.03380200  0.99784800  0.07309500  1
  C  C12  1  0.02581000  0.99890500  0.92937500  1
  C  C13  1  0.01122700  0.14154000  0.18494500  1
  C  C14  1  0.01890300  0.86158000  0.18631600  1
  C  C15  1  0.97822500  0.14038800  0.25417100  1
  C  C16  1  0.97977500  0.86270200  0.25467400  1
  C  C17  1  0.95013400  0.00161000  0.28648200  1
  C  C18  1  0.02332100  0.00084900  0.14925100  1
  C  C19  1  0.95871500  0.12845400  0.81965300  1
  C  C20  1  0.05905000  0.87234500  0.81670800  1
  C  C21  1  0.94365300  0.12725000  0.74853500  1
  C  C22  1  0.04965100  0.87320900  0.74553700  1
  C  C23  1  0.99042700  0.00005000  0.71056100  1
  C  C24  1  0.01540300  0.00057400  0.85392200  1
  C  C25  1  0.99092700  0.71826000  0.48542700  1
  C  C26  1  0.99111600  0.28345700  0.48516700  1
  C  C27  1  0.98161300  0.72171700  0.29706400  1
  C  C28  1  0.98100400  0.28164900  0.29649500  1
  C  C29  1  0.63095400  0.50126400  0.26470000  1
  C  C30  1  0.55890300  0.50010800  0.20226000  1
  C  C31  1  0.41207800  0.50004400  0.20141800  1
  C  C32  1  0.34007300  0.50081500  0.26239200  1
  C  C33  1  0.41077300  0.50096400  0.32699000  1
  C  C34  1  0.56075200  0.50119700  0.32831900  1
  C  C35  1  0.56104300  0.50125600  0.44916200  1
  C  C36  1  0.41155700  0.50111800  0.44774400  1
  C  C37  1  0.64669100  0.49908600  0.13794200  1
  C  C38  1  0.55622100  0.49489600  0.07174300  1
  C  C39  1  0.65424300  0.49163400  0.00989500  1
  C  C40  1  0.56463000  0.48749100  0.94364500  1
  N  N1  1  0.63537800  0.50134800  0.39000400  1
  N  N2  1  0.33674600  0.50097700  0.38727300  1
  O  O1  1  0.11450800  0.66909600  0.46051900  1
  O  O2  1  0.11450400  0.33267200  0.46031700  1
  O  O3  1  0.86363000  0.66379300  0.46531900  1
  O  O4  1  0.86366800  0.33792900  0.46498400  1
  O  O5  1  0.86072900  0.67214100  0.32219200  1
  O  O6  1  0.86050900  0.33124700  0.32181600  1
  O  O7  1  0.10597000  0.66605400  0.31732400  1
  O  O8  1  0.10567900  0.33646300  0.31712100  1
