# generated using pymatgen
data_Zn2H13C27N7O16
_symmetry_space_group_name_H-M   'P 1'
_cell_length_a   12.36485700
_cell_length_b   14.25179900
_cell_length_c   6.56535100
_cell_angle_alpha   90.00000000
_cell_angle_beta   80.14144900
_cell_angle_gamma   90.00000000
_symmetry_Int_Tables_number   1
_chemical_formula_structural   Zn2H13C27N7O16
_chemical_formula_sum   'Zn2 H13 C27 N7 O16'
_cell_volume   1139.87146695
_cell_formula_units_Z   1
loop_
 _symmetry_equiv_pos_site_id
 _symmetry_equiv_pos_as_xyz
  1  'x, y, z'
loop_
 _atom_site_type_symbol
 _atom_site_label
 _atom_site_symmetry_multiplicity
 _atom_site_fract_x
 _atom_site_fract_y
 _atom_site_fract_z
 _atom_site_occupancy
  Zn  Zn1  1  0.49546300  0.10354600  0.48547900  1
  Zn  Zn2  1  0.50111600  0.89346300  0.51333500  1
  H  H1  1  0.14928900  0.94425600  0.47346500  1
  H  H2  1  0.21846700  0.04509300  0.60280800  1
  H  H3  1  0.85472800  0.04127800  0.52462900  1
  H  H4  1  0.97628200  0.95150000  0.35317200  1
  H  H5  1  0.84363700  0.97486200  0.25993200  1
  H  H6  1  0.65425700  0.56729500  0.30164000  1
  H  H7  1  0.62570800  0.41528100  0.21832800  1
  H  H8  1  0.53641400  0.40190700  0.79059800  1
  H  H9  1  0.49393000  0.55727300  0.82904900  1
  H  H10  1  0.65143600  0.42423300  0.58540300  1
  H  H11  1  0.63063800  0.57705200  0.68514000  1
  H  H12  1  0.48964300  0.43982600  0.16441500  1
  H  H13  1  0.53958300  0.59363200  0.17238900  1
  C  C1  1  0.24481000  0.98263000  0.18425800  1
  C  C2  1  0.14804400  0.96289200  0.31448900  1
  C  C3  1  0.04948000  0.96793300  0.24527500  1
  C  C4  1  0.24353500  0.00358400  0.97924700  1
  C  C5  1  0.14406700  0.01014700  0.91061000  1
  C  C6  1  0.04675900  0.99345600  0.04310700  1
  C  C7  1  0.94866500  0.00009700  0.96868800  1
  C  C8  1  0.84901900  0.98693900  0.09685900  1
  C  C9  1  0.75203200  0.99372900  0.02187600  1
  C  C10  1  0.14222100  0.03178600  0.70665300  1
  C  C11  1  0.95010500  0.02169100  0.76343000  1
  C  C12  1  0.85280900  0.02717600  0.68703000  1
  C  C13  1  0.75326200  0.01293700  0.81529900  1
  C  C14  1  0.34423800  0.98829000  0.27464800  1
  C  C15  1  0.34417700  0.00333700  0.82532700  1
  C  C16  1  0.65338000  0.00842600  0.72364500  1
  C  C17  1  0.65141300  0.99381600  0.17352400  1
  C  C18  1  0.54640700  0.45051200  0.27602900  1
  C  C19  1  0.56579300  0.55449600  0.30158500  1
  C  C20  1  0.56379600  0.44010500  0.64366700  1
  C  C21  1  0.54957700  0.54463300  0.68035400  1
  C  C22  1  0.49582700  0.41004000  0.48375200  1
  C  C23  1  0.50015200  0.58682700  0.50568300  1
  C  C24  1  0.38280200  0.55325000  0.52099900  1
  C  C25  1  0.38030100  0.44759600  0.54531500  1
  C  C26  1  0.50237500  0.68931500  0.51728500  1
  C  C27  1  0.49360600  0.30753200  0.47292300  1
  N  N1  1  0.04619500  0.03690700  0.63651400  1
  N  N2  1  0.50350000  0.77043900  0.52347000  1
  N  N3  1  0.49258100  0.22638200  0.46833800  1
  N  N4  1  0.33922900  0.42345400  0.75913000  1
  N  N5  1  0.31450500  0.59612500  0.69819100  1
  N  N6  1  0.30933900  0.40714800  0.41408700  1
  N  N7  1  0.34200700  0.57882600  0.33422100  1
  O  O1  1  0.38242500  0.91052200  0.34162400  1
  O  O2  1  0.37914000  0.07197100  0.31625600  1
  O  O3  1  0.37831600  0.08277600  0.73540500  1
  O  O4  1  0.38429800  0.92127800  0.75977500  1
  O  O5  1  0.61428700  0.08628100  0.65790400  1
  O  O6  1  0.61744500  0.92510600  0.68313900  1
  O  O7  1  0.61814200  0.91418200  0.26395200  1
  O  O8  1  0.61212300  0.07592500  0.23959800  1
  O  O9  1  0.25116800  0.37260900  0.80556500  1
  O  O10  1  0.39043600  0.45262300  0.90438500  1
  O  O11  1  0.23174900  0.64835100  0.67219400  1
  O  O12  1  0.33517500  0.58151500  0.88316700  1
  O  O13  1  0.32986300  0.42102300  0.21551500  1
  O  O14  1  0.22446400  0.35775800  0.49540700  1
  O  O15  1  0.39104200  0.54791800  0.15585000  1
  O  O16  1  0.25632100  0.63264800  0.34518000  1
