# generated using pymatgen
data_Zn6H36C65O29
_symmetry_space_group_name_H-M   'P 1'
_cell_length_a   30.71502400
_cell_length_b   21.88497400
_cell_length_c   21.88947800
_cell_angle_alpha   90.00000000
_cell_angle_beta   134.55501500
_cell_angle_gamma   90.00000000
_symmetry_Int_Tables_number   1
_chemical_formula_structural   Zn6H36C65O29
_chemical_formula_sum   'Zn12 H72 C130 O58'
_cell_volume   10484.89698755
_cell_formula_units_Z   2
loop_
 _symmetry_equiv_pos_site_id
 _symmetry_equiv_pos_as_xyz
  1  'x, y, z'
loop_
 _atom_site_type_symbol
 _atom_site_label
 _atom_site_symmetry_multiplicity
 _atom_site_fract_x
 _atom_site_fract_y
 _atom_site_fract_z
 _atom_site_occupancy
  Zn  Zn1  1  0.00673100  0.50363900  0.08429500  1
  Zn  Zn2  1  0.50776400  0.99759900  0.08486900  1
  Zn  Zn3  1  0.01355500  0.50204500  0.95296500  1
  Zn  Zn4  1  0.51360100  0.99970300  0.95253900  1
  Zn  Zn5  1  0.94585700  0.00635700  0.95885700  1
  Zn  Zn6  1  0.44637300  0.49491800  0.95846100  1
  Zn  Zn7  1  0.08389200  0.99963600  0.09278000  1
  Zn  Zn8  1  0.58439000  0.50202900  0.09298200  1
  Zn  Zn9  1  0.51522100  0.56972200  0.52626700  1
  Zn  Zn10  1  0.50467500  0.43175300  0.51445300  1
  Zn  Zn11  1  0.00461500  0.06869000  0.51520500  1
  Zn  Zn12  1  0.01630600  0.93081900  0.52772200  1
  H  H1  1  0.09163700  0.69323000  0.05517900  1
  H  H2  1  0.08675500  0.30850600  0.02420500  1
  H  H3  1  0.58520800  0.19304000  0.02043200  1
  H  H4  1  0.59149500  0.80829800  0.05373900  1
  H  H5  1  0.09712500  0.80504100  0.06285900  1
  H  H6  1  0.08786800  0.19600300  0.02770500  1
  H  H7  1  0.58629600  0.30552400  0.02381100  1
  H  H8  1  0.59703000  0.69648600  0.06140700  1
  H  H9  1  0.86318400  0.81541000  0.88897500  1
  H  H10  1  0.89738600  0.19821000  0.98737000  1
  H  H11  1  0.40130000  0.30333600  0.99558800  1
  H  H12  1  0.36323500  0.68600900  0.88848300  1
  H  H13  1  0.89142000  0.69945900  0.99167100  1
  H  H14  1  0.96104800  0.31089800  0.10613600  1
  H  H15  1  0.46690400  0.19070900  0.11409900  1
  H  H16  1  0.39183000  0.80191500  0.99147100  1
  H  H17  1  0.20614600  0.59268600  0.15995400  1
  H  H18  1  0.70734800  0.92748400  0.13951900  1
  H  H19  1  0.31869600  0.59218700  0.27504200  1
  H  H20  1  0.81983200  0.92692300  0.25490800  1
  H  H21  1  0.31166300  0.42311500  0.43867300  1
  H  H22  1  0.31041600  0.37495300  0.36599900  1
  H  H23  1  0.81183500  0.10485500  0.40594900  1
  H  H24  1  0.81222100  0.03729100  0.45993900  1
  H  H25  1  0.20059100  0.42657100  0.32881500  1
  H  H26  1  0.19950600  0.37899400  0.25584200  1
  H  H27  1  0.70080900  0.10224600  0.29407500  1
  H  H28  1  0.70116700  0.03535300  0.34883300  1
  H  H29  1  0.70162700  0.42565900  0.63552500  1
  H  H30  1  0.20182100  0.07676200  0.63732400  1
  H  H31  1  0.70283000  0.54100600  0.84402800  1
  H  H32  1  0.70645400  0.60880000  0.79442300  1
  H  H33  1  0.20738800  0.89259500  0.79551300  1
  H  H34  1  0.20381800  0.95982000  0.84588900  1
  H  H35  1  0.81374000  0.53699600  0.95576300  1
  H  H36  1  0.81745500  0.60483100  0.90679100  1
  H  H37  1  0.31838000  0.89670600  0.90754800  1
  H  H38  1  0.31475100  0.96398300  0.95732200  1
  H  H39  1  0.07566700  0.92799900  0.89172500  1
  H  H40  1  0.58379300  0.56641100  0.89821000  1
  H  H41  1  0.57979800  0.56874700  0.78215100  1
  H  H42  1  0.07214700  0.92532400  0.77615500  1
  H  H43  1  0.44855700  0.36766500  0.65575900  1
  H  H44  1  0.38688700  0.42791200  0.59550300  1
  H  H45  1  0.89389300  0.08551700  0.60188400  1
  H  H46  1  0.96195300  0.13832700  0.66893900  1
  H  H47  1  0.89399900  0.08514800  0.71306000  1
  H  H48  1  0.96238500  0.13765800  0.78045700  1
  H  H49  1  0.45000100  0.36852600  0.76837400  1
  H  H50  1  0.38774400  0.42817000  0.70729000  1
  H  H51  1  0.10662900  0.96450200  0.31153800  1
  H  H52  1  0.60547100  0.53899000  0.31022500  1
  H  H53  1  0.60240200  0.54125900  0.41944000  1
  H  H54  1  0.10401700  0.96177400  0.42119700  1
  H  H55  1  0.36961500  0.49301500  0.18722400  1
  H  H56  1  0.39980800  0.41224400  0.21570400  1
  H  H57  1  0.89860700  0.08629400  0.21597500  1
  H  H58  1  0.87026300  0.00485300  0.18901300  1
  H  H59  1  0.89827500  0.08473000  0.10437800  1
  H  H60  1  0.87032700  0.00336800  0.07812400  1
  H  H61  1  0.37002900  0.49506800  0.07670000  1
  H  H62  1  0.39980900  0.41436800  0.10443900  1
  H  H63  1  0.87107200  0.40134500  0.79500800  1
  H  H64  1  0.37127900  0.10120000  0.79643000  1
  H  H65  1  0.93262600  0.79779400  0.08331000  1
  H  H66  1  0.01201500  0.16886900  0.16884900  1
  H  H67  1  0.51837800  0.33268600  0.17526400  1
  H  H68  1  0.43333100  0.70356700  0.08310700  1
  H  H69  1  0.79890700  0.70425200  0.81946600  1
  H  H70  1  0.86185100  0.35272500  0.96954700  1
  H  H71  1  0.36629000  0.14899500  0.97979800  1
  H  H72  1  0.29889600  0.79718700  0.81933600  1
  C  C1  1  0.12922200  0.51226600  0.13953500  1
  C  C2  1  0.62982200  0.98878400  0.13881200  1
  C  C3  1  0.00092000  0.62198200  0.00638300  1
  C  C4  1  0.01959600  0.38380000  0.03097100  1
  C  C5  1  0.52055400  0.11766900  0.03178900  1
  C  C6  1  0.50099800  0.87954000  0.00565900  1
  C  C7  1  0.89095800  0.49236800  0.89771100  1
  C  C8  1  0.39149500  0.00957100  0.89864500  1
  C  C9  1  0.95549000  0.72406100  0.98241200  1
  C  C10  1  0.98849500  0.28387400  0.04143400  1
  C  C11  1  0.49110300  0.21761500  0.04524000  1
  C  C12  1  0.45552500  0.77739700  0.98148600  1
  C  C13  1  0.00248600  0.68862500  0.00717400  1
  C  C14  1  0.02265900  0.31722500  0.03471700  1
  C  C15  1  0.52380100  0.18425600  0.03586400  1
  C  C16  1  0.50245900  0.81287600  0.00609900  1
  C  C17  1  0.05334400  0.71907600  0.03496000  1
  C  C18  1  0.05863900  0.28458100  0.02932900  1
  C  C19  1  0.55829700  0.21692900  0.02776100  1
  C  C20  1  0.55324500  0.78243600  0.03362500  1
  C  C21  1  0.05651400  0.78265200  0.03983400  1
  C  C22  1  0.05958000  0.22076400  0.03188400  1
  C  C23  1  0.55923000  0.28074400  0.03021800  1
  C  C24  1  0.55644300  0.71885400  0.03849300  1
  C  C25  1  0.00791700  0.81679700  0.01438400  1
  C  C26  1  0.02230400  0.18902500  0.03555600  1
  C  C27  1  0.52337100  0.31247600  0.03653500  1
  C  C28  1  0.50793800  0.68467000  0.01327400  1
  C  C29  1  0.95789800  0.78478400  0.98505700  1
  C  C30  1  0.98711800  0.22326800  0.03973000  1
  C  C31  1  0.48968400  0.27823000  0.04348400  1
  C  C32  1  0.45794900  0.71666500  0.98409000  1
  C  C33  1  0.89652600  0.79240000  0.95222300  1
  C  C34  1  0.94150100  0.21883200  0.04477500  1
  C  C35  1  0.44588200  0.28272300  0.05189800  1
  C  C36  1  0.39672700  0.70901200  0.95171900  1
  C  C37  1  0.89324600  0.72127200  0.94778400  1
  C  C38  1  0.94259600  0.29010900  0.04561700  1
  C  C39  1  0.44697400  0.21144200  0.05277300  1
  C  C40  1  0.39342100  0.78014300  0.94732400  1
  C  C41  1  0.22808700  0.47286900  0.27310000  1
  C  C42  1  0.72870800  0.01564200  0.28313300  1
  C  C43  1  0.19573600  0.51506400  0.20844900  1
  C  C44  1  0.69642300  0.98505200  0.20736300  1
  C  C45  1  0.22940900  0.55832600  0.20964300  1
  C  C46  1  0.73031200  0.95266600  0.19786200  1
  C  C47  1  0.29324600  0.55817500  0.27517600  1
  C  C48  1  0.79413200  0.95197700  0.26353500  1
  C  C49  1  0.32396200  0.51272400  0.33739700  1
  C  C50  1  0.82468400  0.98607500  0.33751300  1
  C  C51  1  0.28857400  0.47063000  0.33253300  1
  C  C52  1  0.78922800  0.01744500  0.34351500  1
  C  C53  1  0.29177600  0.41441500  0.37338500  1
  C  C54  1  0.79266600  0.05968100  0.39969500  1
  C  C55  1  0.22050500  0.41684200  0.30286300  1
  C  C56  1  0.72137600  0.05806500  0.32819900  1
  C  C57  1  0.79014900  0.51937000  0.83824400  1
  C  C58  1  0.29081700  0.98254300  0.83973600  1
  C  C59  1  0.82415900  0.48764000  0.82977400  1
  C  C60  1  0.32467000  0.01449500  0.83115400  1
  C  C61  1  0.79153100  0.45217000  0.75545600  1
  C  C62  1  0.29185500  0.05022300  0.75701300  1
  C  C63  1  0.72737700  0.45275100  0.69312200  1
  C  C64  1  0.22769100  0.04957000  0.69485900  1
  C  C65  1  0.69569700  0.48888000  0.70327500  1
  C  C66  1  0.19616300  0.01312200  0.70500900  1
  C  C67  1  0.72978100  0.52147600  0.77759300  1
  C  C68  1  0.23043600  0.98037100  0.77924800  1
  C  C69  1  0.72448500  0.56331200  0.82533400  1
  C  C70  1  0.22538400  0.93797400  0.82680700  1
  C  C71  1  0.79569500  0.56078500  0.89707200  1
  C  C72  1  0.29659600  0.94059200  0.89834300  1
  C  C73  1  0.01514700  0.00512800  0.90671100  1
  C  C74  1  0.51622500  0.49597200  0.90716500  1
  C  C75  1  0.01075000  0.88347400  0.01943700  1
  C  C76  1  0.01907400  0.12243600  0.03206300  1
  C  C77  1  0.51993400  0.37905300  0.03270900  1
  C  C78  1  0.51091400  0.61798800  0.01863100  1
  C  C79  1  0.01451700  0.00053800  0.14498000  1
  C  C80  1  0.51444000  0.50123700  0.14429600  1
  C  C81  1  0.51017400  0.50330100  0.40128000  1
  C  C82  1  0.01117600  0.99748600  0.40287100  1
  C  C83  1  0.39057800  0.50805100  0.40292800  1
  C  C84  1  0.89119800  0.99136800  0.40359500  1
  C  C85  1  0.51017500  0.49819900  0.64005300  1
  C  C86  1  0.01012100  0.00203400  0.64061800  1
  C  C87  1  0.62921300  0.49341500  0.63755100  1
  C  C88  1  0.12968000  0.00811300  0.63914400  1
  C  C89  1  0.98002100  0.04398500  0.77206000  1
  C  C90  1  0.47758100  0.45966400  0.76938100  1
  C  C91  1  0.01406800  0.00364900  0.83912500  1
  C  C92  1  0.51544000  0.49681600  0.83982000  1
  C  C93  1  0.04815900  0.96108500  0.84040100  1
  C  C94  1  0.55324200  0.53579200  0.84430000  1
  C  C95  1  0.55065000  0.53741900  0.77812200  1
  C  C96  1  0.04580200  0.95934700  0.77445800  1
  C  C97  1  0.51246300  0.49790700  0.70888400  1
  C  C98  1  0.01171800  0.00214600  0.70881000  1
  C  C99  1  0.47738700  0.45897200  0.70861500  1
  C  C100  1  0.98024400  0.04441500  0.71169700  1
  C  C101  1  0.43027600  0.41053500  0.65763900  1
  C  C102  1  0.93882000  0.09780100  0.66590500  1
  C  C103  1  0.93890800  0.09747200  0.73731200  1
  C  C104  1  0.43091300  0.41098700  0.72958200  1
  C  C105  1  0.96502300  0.01652100  0.19629300  1
  C  C106  1  0.46490900  0.48394400  0.19532400  1
  C  C107  1  0.01512700  0.99901300  0.21227100  1
  C  C108  1  0.51474800  0.50263600  0.21128800  1
  C  C109  1  0.06592000  0.97951300  0.29503100  1
  C  C110  1  0.56500700  0.52304700  0.29377100  1
  C  C111  1  0.56328000  0.52462600  0.35579000  1
  C  C112  1  0.06446600  0.97766800  0.35732000  1
  C  C113  1  0.51241200  0.50345400  0.33701700  1
  C  C114  1  0.01325800  0.99760200  0.33845900  1
  C  C115  1  0.46453600  0.48284700  0.25547000  1
  C  C116  1  0.96483400  0.01730600  0.25662100  1
  C  C117  1  0.40132100  0.45914100  0.19806700  1
  C  C118  1  0.90111600  0.03954200  0.19907100  1
  C  C119  1  0.90116000  0.03861600  0.12782200  1
  C  C120  1  0.40158700  0.46042900  0.12704200  1
  C  C121  1  0.82283100  0.41120500  0.74311200  1
  C  C122  1  0.32300200  0.09143800  0.74464900  1
  C  C123  1  0.90035400  0.81707000  0.01929300  1
  C  C124  1  0.96898700  0.19330900  0.12859700  1
  C  C125  1  0.47540900  0.30833100  0.13666200  1
  C  C126  1  0.40089900  0.68430000  0.01908900  1
  C  C127  1  0.84722700  0.69923400  0.85739000  1
  C  C128  1  0.88449900  0.31739700  0.96554100  1
  C  C129  1  0.38809700  0.18414400  0.97403400  1
  C  C130  1  0.34716400  0.80220900  0.85695500  1
  O  O1  1  0.09816700  0.50833700  0.16013500  1
  O  O2  1  0.59908000  0.99251400  0.15993300  1
  O  O3  1  0.10371200  0.51168500  0.06024300  1
  O  O4  1  0.60385600  0.98975300  0.05927900  1
  O  O5  1  0.99906800  0.59393400  0.05756400  1
  O  O6  1  0.01212000  0.41228200  0.07581100  1
  O  O7  1  0.51343600  0.08898600  0.07693100  1
  O  O8  1  0.49959400  0.90739900  0.05739600  1
  O  O9  1  0.00731400  0.59334600  0.96050300  1
  O  O10  1  0.02242400  0.41189300  0.98085200  1
  O  O11  1  0.52287200  0.08976100  0.98105200  1
  O  O12  1  0.50716500  0.90837400  0.95962900  1
  O  O13  1  0.91651700  0.49516600  0.97688000  1
  O  O14  1  0.41745100  0.00646600  0.97800600  1
  O  O15  1  0.92220700  0.49617100  0.87729800  1
  O  O16  1  0.42237000  0.00583800  0.87762900  1
  O  O17  1  0.96305200  0.00950200  0.88485400  1
  O  O18  1  0.46402000  0.49157100  0.88499800  1
  O  O19  1  0.06817500  0.99971900  0.98615600  1
  O  O20  1  0.56911200  0.50158600  0.98671400  1
  O  O21  1  0.95954300  0.91468800  0.97198300  1
  O  O22  1  0.96497500  0.09687200  0.98151600  1
  O  O23  1  0.46574300  0.40446900  0.98171300  1
  O  O24  1  0.45978400  0.58663000  0.97114100  1
  O  O25  1  0.06479800  0.90913400  0.07087900  1
  O  O26  1  0.07019400  0.09126900  0.07881100  1
  O  O27  1  0.57098000  0.41035200  0.07952300  1
  O  O28  1  0.56503400  0.59246200  0.07043600  1
  O  O29  1  0.96154000  0.00538900  0.06544500  1
  O  O30  1  0.46160400  0.49616300  0.06467600  1
  O  O31  1  0.06666300  0.99717400  0.16681000  1
  O  O32  1  0.56671300  0.50471500  0.16648000  1
  O  O33  1  0.51682000  0.55552100  0.43642700  1
  O  O34  1  0.50334900  0.45069500  0.42254600  1
  O  O35  1  0.00377000  0.04991700  0.42373400  1
  O  O36  1  0.01822400  0.94522100  0.43823300  1
  O  O37  1  0.42327000  0.55836000  0.43344400  1
  O  O38  1  0.41469000  0.45330200  0.42840300  1
  O  O39  1  0.91480700  0.04633900  0.42903100  1
  O  O40  1  0.92427300  0.94133200  0.43427900  1
  O  O41  1  0.51530600  0.55090300  0.61700800  1
  O  O42  1  0.50465200  0.44583600  0.60595600  1
  O  O43  1  0.00441500  0.05444000  0.60649800  1
  O  O44  1  0.01569800  0.94946300  0.61782100  1
  O  O45  1  0.60519500  0.54824400  0.61397400  1
  O  O46  1  0.59661400  0.44300800  0.60567200  1
  O  O47  1  0.09665500  0.05825500  0.60685700  1
  O  O48  1  0.10608800  0.95309900  0.61569800  1
  O  O49  1  0.79399900  0.38572100  0.67446000  1
  O  O50  1  0.29402100  0.11721800  0.67614700  1
  O  O51  1  0.86762300  0.85942700  0.00244900  1
  O  O52  1  0.94329900  0.20023200  0.15223600  1
  O  O53  1  0.45145600  0.30160100  0.16290800  1
  O  O54  1  0.36827100  0.64191300  0.00248700  1
  O  O55  1  0.86372000  0.67544200  0.82605100  1
  O  O56  1  0.86314700  0.30117900  0.89569500  1
  O  O57  1  0.36515300  0.20013500  0.90327000  1
  O  O58  1  0.36340700  0.82603800  0.82530400  1
