# generated using pymatgen
data_FeH10C22NO8
_symmetry_space_group_name_H-M   'P 1'
_cell_length_a   15.04493900
_cell_length_b   16.97899200
_cell_length_c   11.81726600
_cell_angle_alpha   71.88769000
_cell_angle_beta   100.93239700
_cell_angle_gamma   108.88961700
_symmetry_Int_Tables_number   1
_chemical_formula_structural   FeH10C22NO8
_chemical_formula_sum   'Fe2 H20 C44 N2 O16'
_cell_volume   2701.26840493
_cell_formula_units_Z   2
loop_
 _symmetry_equiv_pos_site_id
 _symmetry_equiv_pos_as_xyz
  1  'x, y, z'
loop_
 _atom_site_type_symbol
 _atom_site_label
 _atom_site_symmetry_multiplicity
 _atom_site_fract_x
 _atom_site_fract_y
 _atom_site_fract_z
 _atom_site_occupancy
  Fe  Fe1  1  0.49962000  0.00278100  0.75155700  1
  Fe  Fe2  1  0.49675200  0.99732600  0.25500800  1
  H  H1  1  0.78283000  0.98429900  0.29310800  1
  H  H2  1  0.84258100  0.00457600  0.88926700  1
  H  H3  1  0.04852300  0.98371700  0.75994500  1
  H  H4  1  0.20575500  0.99180000  0.72285800  1
  H  H5  1  0.15479600  0.00214000  0.11534500  1
  H  H6  1  0.50044500  0.73080600  0.41517700  1
  H  H7  1  0.49164700  0.56712700  0.77205400  1
  H  H8  1  0.49290700  0.68532000  0.84440000  1
  H  H9  1  0.50928900  0.43472000  0.23541500  1
  H  H10  1  0.50784200  0.31672700  0.16262500  1
  H  H11  1  0.49823100  0.27006500  0.59168000  1
  H  H12  1  0.39562000  0.47212700  0.65735800  1
  H  H13  1  0.39963800  0.35426800  0.58633400  1
  H  H14  1  0.60454100  0.52926100  0.35023900  1
  H  H15  1  0.60033900  0.64712600  0.42111300  1
  H  H16  1  0.06028400  0.09919200  0.20939100  1
  H  H17  1  0.18287100  0.07620900  0.37512300  1
  H  H18  1  0.14980000  0.94651100  0.54479200  1
  H  H19  1  0.99233800  0.84178800  0.55177100  1
  H  H20  1  0.86967000  0.86342100  0.38586100  1
  C  C1  1  0.79662400  0.98975600  0.20407100  1
  C  C2  1  0.88479300  0.99204700  0.18447300  1
  C  C3  1  0.90228300  0.99692700  0.07160100  1
  C  C4  1  0.83029700  0.99985900  0.97849500  1
  C  C5  1  0.74075800  0.99636500  0.99816800  1
  C  C6  1  0.72444300  0.99125500  0.11290400  1
  C  C7  1  0.10596800  0.98888700  0.83023000  1
  C  C8  1  0.19429800  0.99264500  0.80980800  1
  C  C9  1  0.26932400  0.00202100  0.89660900  1
  C  C10  1  0.25478800  0.00391000  0.00876300  1
  C  C11  1  0.16514800  0.00016100  0.02851500  1
  C  C12  1  0.09073500  0.99373400  0.93857600  1
  C  C13  1  0.48388500  0.12737300  0.54437500  1
  C  C14  1  0.36225100  0.01405100  0.86233300  1
  C  C15  1  0.66700700  0.99940400  0.89563700  1
  C  C16  1  0.50066500  0.84800800  0.72223500  1
  C  C17  1  0.49854600  0.15365800  0.28384400  1
  C  C18  1  0.32998800  0.00578800  0.10957200  1
  C  C19  1  0.63193100  0.98235000  0.14519700  1
  C  C20  1  0.51389800  0.87348100  0.46200700  1
  C  C21  1  0.50287900  0.78965300  0.55053300  1
  C  C22  1  0.49909300  0.72056200  0.50983000  1
  C  C23  1  0.49555800  0.64018900  0.58805000  1
  C  C24  1  0.49287800  0.62881800  0.70827900  1
  C  C25  1  0.49491700  0.69694200  0.74959700  1
  C  C26  1  0.50054500  0.77827600  0.67213000  1
  C  C27  1  0.44273500  0.48530600  0.59094600  1
  C  C28  1  0.44523400  0.41810200  0.55061800  1
  C  C29  1  0.50266300  0.43285000  0.46317900  1
  C  C30  1  0.55738900  0.51604600  0.41662000  1
  C  C31  1  0.55482800  0.58325600  0.45688400  1
  C  C32  1  0.49739600  0.56849800  0.54430300  1
  C  C33  1  0.50751900  0.37285400  0.29899200  1
  C  C34  1  0.50533300  0.30482700  0.25738000  1
  C  C35  1  0.49891000  0.22324400  0.33443900  1
  C  C36  1  0.49584900  0.21146700  0.45606400  1
  C  C37  1  0.50001000  0.28054700  0.49706500  1
  C  C38  1  0.50432300  0.36118600  0.41918600  1
  C  C39  1  0.95718400  0.98214800  0.28581500  1
  C  C40  1  0.04498200  0.04227600  0.28407400  1
  C  C41  1  0.11389700  0.02966000  0.37738500  1
  C  C42  1  0.09523600  0.95725500  0.47290900  1
  C  C43  1  0.00703900  0.89840500  0.47657000  1
  C  C44  1  0.93798400  0.91098700  0.38348600  1
  N  N1  1  0.99286700  0.99600500  0.05549000  1
  N  N2  1  0.99922900  0.99292800  0.95369400  1
  O  O1  1  0.54446400  0.11830700  0.64002600  1
  O  O2  1  0.43051700  0.08467500  0.86800900  1
  O  O3  1  0.40594800  0.06484300  0.53675800  1
  O  O4  1  0.37292100  0.96078800  0.80920800  1
  O  O5  1  0.58295000  0.00272700  0.90577200  1
  O  O6  1  0.68567900  0.99956100  0.79150200  1
  O  O7  1  0.50169000  0.92577800  0.65386000  1
  O  O8  1  0.49733600  0.83159100  0.83767600  1
  O  O9  1  0.49693000  0.07572600  0.35197800  1
  O  O10  1  0.50174300  0.17021900  0.16834400  1
  O  O11  1  0.41194500  0.99678700  0.10186600  1
  O  O12  1  0.31306800  0.01127900  0.21136200  1
  O  O13  1  0.59236100  0.93586000  0.46745200  1
  O  O14  1  0.62268200  0.03777100  0.19559200  1
  O  O15  1  0.45169600  0.88247700  0.36813300  1
  O  O16  1  0.56273200  0.91188300  0.14201900  1
