# generated using pymatgen
data_Cu2H18C25(NO4)2
_symmetry_space_group_name_H-M   'P 1'
_cell_length_a   10.84554800
_cell_length_b   11.05416200
_cell_length_c   9.53778500
_cell_angle_alpha   90.02057900
_cell_angle_beta   90.01107200
_cell_angle_gamma   90.00276700
_symmetry_Int_Tables_number   1
_chemical_formula_structural   Cu2H18C25(NO4)2
_chemical_formula_sum   'Cu2 H18 C25 N2 O8'
_cell_volume   1143.47011186
_cell_formula_units_Z   1
loop_
 _symmetry_equiv_pos_site_id
 _symmetry_equiv_pos_as_xyz
  1  'x, y, z'
loop_
 _atom_site_type_symbol
 _atom_site_label
 _atom_site_symmetry_multiplicity
 _atom_site_fract_x
 _atom_site_fract_y
 _atom_site_fract_z
 _atom_site_occupancy
  Cu  Cu1  1  0.49792500  0.49781900  0.63696000  1
  Cu  Cu2  1  0.49463200  0.50294500  0.35640200  1
  H  H1  1  0.10716500  0.88938800  0.34049100  1
  H  H2  1  0.22336600  0.29112200  0.58830500  1
  H  H3  1  0.11146100  0.11458900  0.65986500  1
  H  H4  1  0.88560500  0.11132800  0.65329100  1
  H  H5  1  0.77180300  0.28446600  0.57433100  1
  H  H6  1  0.76937300  0.70948600  0.40476900  1
  H  H7  1  0.88131800  0.88605000  0.33349200  1
  H  H8  1  0.22089600  0.71614800  0.41928600  1
  H  H9  1  0.50507500  0.88216800  0.28863700  1
  H  H10  1  0.51184300  0.90772700  0.60837700  1
  H  H11  1  0.45440500  0.09425300  0.58767400  1
  H  H12  1  0.34312000  0.39140400  0.86864300  1
  H  H13  1  0.58040200  0.51643000  0.89719400  1
  H  H14  1  0.38337200  0.35427300  0.12802400  1
  H  H15  1  0.51380600  0.58489100  0.09549100  1
  H  H16  1  0.59663700  0.04090800  0.17724800  1
  H  H17  1  0.49003500  0.16391900  0.19183000  1
  H  H18  1  0.64449700  0.17508000  0.26739100  1
  C  C1  1  0.49329300  0.26762600  0.49115900  1
  C  C2  1  0.25950500  0.50308400  0.50038200  1
  C  C3  1  0.49946600  0.73274200  0.50211300  1
  C  C4  1  0.73314100  0.49754400  0.49296000  1
  C  C5  1  0.12415500  0.29618800  0.58620600  1
  C  C6  1  0.06121600  0.19401500  0.62661100  1
  C  C7  1  0.93486500  0.19220300  0.62296500  1
  C  C8  1  0.87081400  0.29251600  0.57872100  1
  C  C9  1  0.93296500  0.39731800  0.53937700  1
  C  C10  1  0.06080600  0.39925300  0.54338100  1
  C  C11  1  0.86840800  0.49827200  0.49246000  1
  C  C12  1  0.93188100  0.60135300  0.44994800  1
  C  C13  1  0.05971500  0.60330500  0.45404800  1
  C  C14  1  0.12426500  0.50233800  0.50089000  1
  C  C15  1  0.86857700  0.70442200  0.40703800  1
  C  C16  1  0.93154300  0.80661800  0.36675800  1
  C  C17  1  0.05788500  0.80846600  0.37061700  1
  C  C18  1  0.12189400  0.70812100  0.41483100  1
  C  C19  1  0.50654600  0.92984000  0.38781100  1
  C  C20  1  0.50435900  0.86534500  0.50655300  1
  C  C21  1  0.51758100  0.06321600  0.38176600  1
  C  C22  1  0.48678200  0.13432700  0.49117600  1
  C  C23  1  0.41940100  0.43643500  0.92021400  1
  C  C24  1  0.43070300  0.42724800  0.07479200  1
  C  C25  1  0.56472100  0.11479800  0.24692800  1
  N  N1  1  0.50011900  0.49322700  0.84669600  1
  N  N2  1  0.49073600  0.50629900  0.14665100  1
  O  O1  1  0.49071100  0.32242600  0.61322800  1
  O  O2  1  0.48865400  0.32693000  0.37229100  1
  O  O3  1  0.31838100  0.49658800  0.62044800  1
  O  O4  1  0.31580100  0.50882400  0.37898100  1
  O  O5  1  0.49674400  0.67397200  0.62114100  1
  O  O6  1  0.49302500  0.67835300  0.38045300  1
  O  O7  1  0.67665800  0.49101600  0.61381900  1
  O  O8  1  0.67411700  0.50468800  0.37342800  1
