# Generated by REPEAT Assigner based on pymatgen
data_DB0-m3_o14_o20_f0_nbo.sym.35_sqe
_audit_creation_date              2022-05-24
_audit_creation_method            REPEAT_Assigner
_cell_length_a                    30.742104
_cell_length_b                    30.774096
_cell_length_c                    21.141810
_cell_angle_alpha                 90.000000
_cell_angle_beta                  43.366787
_cell_angle_gamma                 90.000000
_cell_volume                      13734.306428
_symmetry_space_group_name_H-M    P1
_symmetry_Int_Tables_number       1
loop_
    _symmetry_equiv_pos_site_id
    _symmetry_equiv_pos_as_xyz
    1  x,y,z
loop_
    _atom_site_type_symbol
    _atom_site_label
    _atom_site_fract_x
    _atom_site_fract_y
    _atom_site_fract_z
    _atom_type_partial_charge
    O   O1    0.324314  0.762285  0.500057  -0.641918
    O   O2    0.681095  0.222650  0.500084  -0.628181
    O   O3    0.675686  0.762285  0.499943  -0.641951
    O   O4    0.318905  0.222650  0.499916  -0.628190
    O   O5    0.824314  0.262285  0.500057  -0.641933
    O   O6    0.181095  0.722650  0.500084  -0.628185
    O   O7    0.175686  0.262285  0.499943  -0.641966
    O   O8    0.818905  0.722650  0.499916  -0.628204
    O   O9    0.276810  0.815439  0.489551  -0.611822
    O   O10   0.728785  0.169465  0.510308  -0.615651
    O   O11   0.723189  0.815439  0.510449  -0.611828
    O   O12   0.271215  0.169465  0.489692  -0.615668
    O   O13   0.776810  0.315439  0.489551  -0.611830
    O   O14   0.228785  0.669465  0.510308  -0.615643
    O   O15   0.223189  0.315439  0.510449  -0.611822
    O   O16   0.771215  0.669465  0.489692  -0.615662
    C   C1    0.315433  0.803193  0.494009  0.349385
    C   C2    0.689951  0.181780  0.506268  0.352050
    C   C3    0.684567  0.803193  0.505991  0.349447
    C   C4    0.310049  0.181780  0.493732  0.352081
    C   C5    0.815433  0.303193  0.494009  0.349377
    C   C6    0.189951  0.681780  0.506268  0.352074
    C   C7    0.184567  0.303193  0.505991  0.349436
    C   C8    0.810049  0.681780  0.493732  0.352104
    O   O17   0.344838  0.712191  0.366369  -0.695883
    O   O18   0.660686  0.272717  0.633665  -0.688049
    O   O19   0.655162  0.712191  0.633631  -0.695880
    O   O20   0.339314  0.272717  0.366335  -0.688057
    O   O21   0.844838  0.212191  0.366369  -0.695874
    O   O22   0.160686  0.772717  0.633665  -0.688077
    O   O23   0.155162  0.212191  0.633631  -0.695876
    O   O24   0.839314  0.772717  0.366336  -0.688056
    O   O25   0.296734  0.766682  0.359358  -0.672828
    O   O26   0.708692  0.218134  0.640703  -0.686238
    O   O27   0.703266  0.766682  0.640642  -0.672818
    O   O28   0.291308  0.218134  0.359297  -0.686243
    O   O29   0.796734  0.266682  0.359358  -0.672813
    O   O30   0.208692  0.718134  0.640703  -0.686276
    O   O31   0.203266  0.266682  0.640642  -0.672821
    O   O32   0.791308  0.718134  0.359297  -0.686260
    C   C9    0.341966  0.738070  0.320185  0.889204
    C   C10   0.663497  0.246770  0.679852  0.894691
    C   C11   0.658033  0.738070  0.679815  0.889127
    C   C12   0.336503  0.246770  0.320147  0.894683
    C   C13   0.841966  0.238070  0.320185  0.889203
    C   C14   0.163497  0.746770  0.679853  0.894689
    C   C15   0.158033  0.238070  0.679815  0.889189
    C   C16   0.836503  0.746770  0.320148  0.894676
    Zn  Zn1   0.285511  0.707658  0.504135  1.318326
    Zn  Zn2   0.719986  0.277252  0.495910  1.321459
    Zn  Zn3   0.714488  0.707658  0.495865  1.318340
    Zn  Zn4   0.280014  0.277252  0.504090  1.321460
    Zn  Zn5   0.785511  0.207658  0.504135  1.318322
    Zn  Zn6   0.219986  0.777252  0.495910  1.321477
    Zn  Zn7   0.214488  0.207658  0.495865  1.318343
    Zn  Zn8   0.780014  0.777252  0.504090  1.321476
    C   C17   0.390548  0.734683  0.221619  -0.174273
    C   C18   0.614116  0.249556  0.778488  -0.175645
    C   C19   0.609451  0.734683  0.778381  -0.174116
    C   C20   0.385884  0.249556  0.221512  -0.175639
    C   C21   0.890548  0.234683  0.221619  -0.174285
    C   C22   0.114116  0.749556  0.778488  -0.175565
    C   C23   0.109451  0.234683  0.778381  -0.174247
    C   C24   0.885884  0.749556  0.221512  -0.175676
    C   C25   0.431392  0.732645  0.138728  0.029752
    C   C26   0.571878  0.251272  0.861392  0.030018
    C   C27   0.568608  0.732645  0.861272  0.029585
    C   C28   0.428122  0.251272  0.138608  0.030014
    C   C29   0.931392  0.232645  0.138728  0.029747
    C   C30   0.071878  0.751272  0.861392  0.029870
    C   C31   0.068608  0.232645  0.861272  0.029701
    C   C32   0.928122  0.751272  0.138608  0.030136
    C   C33   0.479461  0.731485  0.041502  -0.003794
    C   C34   0.521570  0.252260  0.958542  -0.006951
    C   C35   0.520538  0.731485  0.958498  -0.003644
    C   C36   0.478430  0.252260  0.041458  -0.006948
    C   C37   0.979461  0.231485  0.041502  -0.003759
    C   C38   0.021570  0.752260  0.958542  -0.006713
    C   C39   0.020538  0.231485  0.958498  -0.003712
    C   C40   0.978430  0.752260  0.041458  -0.007164
    C   C41   0.293468  0.814316  0.650230  -0.187890
    C   C42   0.757385  0.123532  0.353659  -0.231035
    C   C43   0.706532  0.814316  0.349770  -0.187939
    C   C44   0.242615  0.123532  0.646341  -0.231033
    C   C45   0.793468  0.314316  0.650230  -0.187881
    C   C46   0.257385  0.623532  0.353659  -0.231044
    C   C47   0.206532  0.314316  0.349770  -0.187896
    C   C48   0.742615  0.623532  0.646341  -0.231043
    H   H1    0.265968  0.790081  0.654839  0.156686
    H   H2    0.784178  0.147911  0.350302  0.172547
    H   H3    0.734032  0.790081  0.345160  0.156707
    H   H4    0.215821  0.147911  0.649698  0.172550
    H   H5    0.765968  0.290081  0.654839  0.156683
    H   H6    0.284178  0.647911  0.350302  0.172543
    H   H7    0.234032  0.290081  0.345160  0.156684
    H   H8    0.715821  0.647911  0.649698  0.172544
    C   C49   0.283781  0.818031  0.724536  -0.108815
    C   C50   0.790920  0.095467  0.280287  -0.121502
    C   C51   0.716219  0.818031  0.275464  -0.108807
    C   C52   0.209080  0.095467  0.719713  -0.121508
    C   C53   0.783781  0.318031  0.724536  -0.108820
    C   C54   0.290920  0.595467  0.280287  -0.121493
    C   C55   0.216219  0.318031  0.275464  -0.108821
    C   C56   0.709080  0.595467  0.719713  -0.121501
    H   H9    0.250581  0.796722  0.783148  0.102586
    H   H10   0.841866  0.098232  0.223247  0.113213
    H   H11   0.749418  0.796722  0.216852  0.102591
    H   H12   0.158133  0.098232  0.776753  0.113213
    H   H13   0.750581  0.296722  0.783148  0.102590
    H   H14   0.341866  0.598232  0.223247  0.113212
    H   H15   0.249418  0.296722  0.216852  0.102592
    H   H16   0.658133  0.598232  0.776753  0.113213
    C   C57   0.316497  0.848536  0.724101  -0.012341
    C   C58   0.759832  0.063820  0.279653  -0.018953
    C   C59   0.683503  0.848536  0.275899  -0.012343
    C   C60   0.240168  0.063820  0.720347  -0.018954
    C   C61   0.816497  0.348536  0.724101  -0.012337
    C   C62   0.259832  0.563820  0.279653  -0.018965
    C   C63   0.183503  0.348536  0.275899  -0.012340
    C   C64   0.740168  0.563820  0.720347  -0.018960
    H   H17   0.309386  0.851072  0.782114  0.096973
    H   H18   0.786334  0.041524  0.222306  0.084613
    H   H19   0.690613  0.851072  0.217886  0.096967
    H   H20   0.213666  0.041523  0.777693  0.084613
    H   H21   0.809386  0.351072  0.782114  0.096974
    H   H22   0.286334  0.541524  0.222306  0.084615
    H   H23   0.190613  0.351072  0.217886  0.096969
    H   H24   0.713666  0.541523  0.777693  0.084612
    C   C65   0.357800  0.876238  0.650419  -0.325295
    C   C66   0.694946  0.060615  0.351541  -0.212830
    C   C67   0.642199  0.876238  0.349581  -0.325289
    C   C68   0.305054  0.060615  0.648459  -0.212826
    C   C69   0.857800  0.376238  0.650419  -0.325306
    C   C70   0.194946  0.560615  0.351541  -0.212809
    C   C71   0.142199  0.376238  0.349581  -0.325293
    C   C72   0.805054  0.560615  0.648459  -0.212810
    H   H25   0.382263  0.899473  0.653810  0.170646
    H   H26   0.673092  0.035088  0.347455  0.118474
    H   H27   0.617737  0.899473  0.346190  0.170655
    H   H28   0.326907  0.035088  0.652545  0.118473
    H   H29   0.882263  0.399473  0.653810  0.170642
    H   H30   0.173092  0.535088  0.347455  0.118471
    H   H31   0.117737  0.399473  0.346190  0.170647
    H   H32   0.826907  0.535088  0.652545  0.118472
    C   C73   0.367120  0.873640  0.575548  0.232536
    C   C74   0.660122  0.089231  0.425528  0.113867
    C   C75   0.632880  0.873640  0.424452  0.232481
    C   C76   0.339878  0.089231  0.574472  0.113870
    C   C77   0.867120  0.373640  0.575548  0.232593
    C   C78   0.160122  0.589231  0.425528  0.113831
    C   C79   0.132880  0.373640  0.424452  0.232513
    C   C80   0.839878  0.589231  0.574472  0.113836
    C   C81   0.336348  0.841276  0.573971  0.029919
    C   C82   0.691866  0.120245  0.427760  0.094606
    C   C83   0.663652  0.841276  0.426029  0.029987
    C   C84   0.308134  0.120245  0.572239  0.094601
    C   C85   0.836348  0.341276  0.573971  0.029865
    C   C86   0.191866  0.620245  0.427760  0.094634
    C   C87   0.163652  0.341276  0.426029  0.029939
    C   C88   0.808134  0.620245  0.572239  0.094629
    C   C89   0.347484  0.836909  0.497526  0.349741
    C   C90   0.657850  0.148187  0.502828  0.289737
    C   C91   0.652515  0.836909  0.502474  0.349672
    C   C92   0.342150  0.148187  0.497172  0.289725
    C   C93   0.847484  0.336909  0.497526  0.349816
    C   C94   0.157850  0.648187  0.502828  0.289705
    C   C95   0.152515  0.336909  0.502474  0.349718
    C   C96   0.842150  0.648187  0.497172  0.289701
    C   C97   0.387527  0.865749  0.425002  -0.596766
    C   C98   0.592592  0.145546  0.573750  -0.503384
    C   C99   0.612472  0.865749  0.574998  -0.596716
    C   C100  0.407408  0.145546  0.426250  -0.503371
    C   C101  0.887528  0.365749  0.425002  -0.596837
    C   C102  0.092592  0.645546  0.573750  -0.503387
    C   C103  0.112472  0.365749  0.574998  -0.596732
    C   C104  0.907408  0.645546  0.426250  -0.503374
    C   C105  0.417542  0.898247  0.426907  -0.172654
    C   C106  0.560939  0.114793  0.571738  -0.231720
    C   C107  0.582457  0.898247  0.573093  -0.172719
    C   C108  0.439061  0.114793  0.428262  -0.231735
    C   C109  0.917542  0.398247  0.426907  -0.172570
    C   C110  0.060939  0.614793  0.571738  -0.231732
    C   C111  0.082457  0.398247  0.573093  -0.172693
    C   C112  0.939061  0.614793  0.428262  -0.231738
    C   C113  0.407593  0.902449  0.501876  -0.087626
    C   C114  0.594276  0.086613  0.497833  0.068015
    C   C115  0.592407  0.902449  0.498123  -0.087565
    C   C116  0.405724  0.086613  0.502167  0.068022
    C   C117  0.907593  0.402449  0.501876  -0.087691
    C   C118  0.094276  0.586613  0.497833  0.068061
    C   C119  0.092407  0.402449  0.498123  -0.087595
    C   C120  0.905724  0.586613  0.502167  0.068058
    O   O33   0.974294  0.524304  0.435089  -0.667310
    O   O34   0.996416  0.437321  0.564935  -0.750762
    O   O35   0.025705  0.524304  0.564911  -0.667314
    O   O36   0.003584  0.437322  0.435065  -0.750781
    O   O37   0.474294  0.024304  0.435089  -0.667315
    O   O38   0.496416  0.937321  0.564935  -0.750794
    O   O39   0.525705  0.024304  0.564911  -0.667318
    O   O40   0.503584  0.937322  0.435065  -0.750821
    O   O41   0.938375  0.553499  0.565456  -0.651164
    O   O42   0.090855  0.466590  0.434568  -0.702851
    O   O43   0.061625  0.553499  0.434544  -0.651161
    O   O44   0.909145  0.466590  0.565432  -0.702841
    O   O45   0.438375  0.053499  0.565456  -0.651149
    O   O46   0.590855  0.966590  0.434568  -0.702865
    O   O47   0.561625  0.053499  0.434544  -0.651155
    O   O48   0.409145  0.966590  0.565432  -0.702851
    C   C121  0.940592  0.553431  0.501112  0.751243
    C   C122  0.058611  0.436676  0.499003  0.861129
    C   C123  0.059408  0.553431  0.498888  0.751253
    C   C124  0.941388  0.436677  0.500997  0.861147
    C   C125  0.440592  0.053431  0.501112  0.751258
    C   C126  0.558611  0.936676  0.499003  0.861152
    C   C127  0.559408  0.053431  0.498888  0.751281
    C   C128  0.441388  0.936677  0.500997  0.861166
    Zn  Zn9   0.045084  0.495425  0.409736  1.246431
    Zn  Zn10  0.954916  0.495425  0.590264  1.246437
    Zn  Zn11  0.545084  0.995425  0.409736  1.246434
    Zn  Zn12  0.454916  0.995425  0.590264  1.246436
    C   C129  0.398046  0.862526  0.345600  1.226218
    O   O49   0.378777  0.891181  0.331040  -0.622196
    O   O50   0.434571  0.830388  0.283745  -0.467962
    C   C130  0.454979  0.831572  0.200645  0.070181
    H   H33   0.485805  0.803110  0.158888  0.079906
    H   H34   0.482798  0.861639  0.163072  0.028292
    H   H35   0.413739  0.830735  0.211750  0.029369
    C   C131  0.556069  0.175776  0.651393  1.160497
    O   O51   0.522388  0.202942  0.661798  -0.603342
    O   O52   0.553926  0.170201  0.716807  -0.456659
    C   C132  0.509535  0.191618  0.799330  0.075416
    H   H36   0.514750  0.181983  0.844064  0.080257
    H   H37   0.461350  0.182590  0.833960  0.027382
    H   H38   0.516197  0.227228  0.787734  0.031633
    C   C133  0.601953  0.862526  0.654400  1.226205
    O   O53   0.621222  0.891181  0.668960  -0.622201
    O   O54   0.565428  0.830388  0.716255  -0.467972
    C   C134  0.545021  0.831572  0.799355  0.070195
    H   H39   0.514194  0.803110  0.841112  0.079902
    H   H40   0.517202  0.861639  0.836928  0.028288
    H   H41   0.586261  0.830735  0.788250  0.029368
    C   C135  0.443931  0.175777  0.348607  1.160500
    O   O55   0.477611  0.202943  0.338204  -0.603353
    O   O56   0.446075  0.170201  0.283193  -0.456652
    C   C136  0.490465  0.191619  0.200671  0.075415
    H   H42   0.485251  0.181984  0.155936  0.080256
    H   H43   0.538650  0.182591  0.166041  0.027381
    H   H44   0.483802  0.227229  0.212267  0.031636
    C   C137  0.898046  0.362526  0.345600  1.226191
    O   O57   0.878777  0.391181  0.331039  -0.622187
    O   O58   0.934571  0.330388  0.283745  -0.467931
    C   C138  0.954979  0.331572  0.200645  0.070130
    H   H45   0.985805  0.303110  0.158888  0.079917
    H   H46   0.982798  0.361639  0.163072  0.028304
    H   H47   0.913739  0.330735  0.211750  0.029382
    C   C139  0.056069  0.675776  0.651393  1.160514
    O   O59   0.022388  0.702942  0.661798  -0.603350
    O   O60   0.053926  0.670201  0.716807  -0.456599
    C   C140  0.009535  0.691618  0.799330  0.075189
    H   H48   0.014750  0.681983  0.844064  0.080299
    H   H49   0.961350  0.682590  0.833960  0.027444
    H   H50   0.016197  0.727228  0.787734  0.031697
    C   C141  0.101953  0.362526  0.654400  1.226170
    O   O61   0.121222  0.391181  0.668960  -0.622186
    O   O62   0.065428  0.330388  0.716255  -0.467951
    C   C142  0.045021  0.331572  0.799355  0.070165
    H   H51   0.014194  0.303110  0.841112  0.079911
    H   H52   0.017202  0.361639  0.836928  0.028293
    H   H53   0.086261  0.330735  0.788250  0.029378
    C   C143  0.943931  0.675777  0.348607  1.160529
    O   O63   0.977611  0.702943  0.338204  -0.603363
    O   O64   0.946075  0.670201  0.283193  -0.456659
    C   C144  0.990465  0.691619  0.200671  0.075414
    H   H54   0.985251  0.681984  0.155936  0.080258
    H   H55   0.038650  0.682591  0.166041  0.027380
    H   H56   0.983802  0.727229  0.212268  0.031634
    C   C145  0.459575  0.928504  0.348960  0.907601
    O   O65   0.448975  0.967431  0.361623  -0.535279
    O   O66   0.508757  0.913162  0.262933  -0.471353
    C   C146  0.547416  0.940800  0.188951  0.176370
    H   H57   0.584589  0.921659  0.125220  0.046126
    H   H58   0.570284  0.964055  0.197744  0.001030
    H   H59   0.519234  0.958723  0.182952  0.025413
    C   C147  0.491563  0.112614  0.648464  0.872793
    O   O67   0.459960  0.117266  0.634090  -0.510878
    O   O68   0.462705  0.106796  0.735241  -0.450069
    C   C148  0.397934  0.105693  0.808128  0.200281
    H   H60   0.384189  0.100587  0.872732  0.033892
    H   H61   0.379117  0.078562  0.799017  -0.022929
    H   H62   0.377872  0.136989  0.812696  0.014247
    C   C149  0.540425  0.928504  0.651040  0.907635
    O   O69   0.551024  0.967431  0.638377  -0.535298
    O   O70   0.491242  0.913162  0.737066  -0.471354
    C   C150  0.452584  0.940800  0.811049  0.176367
    H   H63   0.415411  0.921659  0.874779  0.046127
    H   H64   0.429716  0.964056  0.802256  0.001029
    H   H65   0.480766  0.958723  0.817048  0.025413
    C   C151  0.508437  0.112615  0.351537  0.872817
    O   O71   0.540040  0.117267  0.365911  -0.510887
    O   O72   0.537295  0.106797  0.264760  -0.450067
    C   C152  0.602066  0.105694  0.191873  0.200265
    H   H66   0.615812  0.100588  0.127269  0.033896
    H   H67   0.620883  0.078562  0.200983  -0.022927
    H   H68   0.622128  0.136990  0.187306  0.014251
    C   C153  0.959575  0.428504  0.348960  0.907547
    O   O73   0.948975  0.467431  0.361623  -0.535265
    O   O74   0.008757  0.413162  0.262933  -0.471326
    C   C154  0.047416  0.440800  0.188951  0.176342
    H   H69   0.084589  0.421659  0.125220  0.046131
    H   H70   0.070284  0.464055  0.197744  0.001037
    H   H71   0.019234  0.458723  0.182952  0.025420
    C   C155  0.991563  0.612614  0.648464  0.872779
    O   O75   0.959960  0.617266  0.634090  -0.510871
    O   O76   0.962705  0.606796  0.735241  -0.450057
    C   C156  0.897934  0.605693  0.808128  0.200256
    H   H72   0.884189  0.600587  0.872732  0.033899
    H   H73   0.879117  0.578562  0.799017  -0.022924
    H   H74   0.877872  0.636989  0.812696  0.014252
    C   C157  0.040425  0.428504  0.651040  0.907607
    O   O77   0.051024  0.467431  0.638377  -0.535286
    O   O78   0.991242  0.413162  0.737066  -0.471337
    C   C158  0.952584  0.440800  0.811049  0.176347
    H   H75   0.915411  0.421659  0.874779  0.046132
    H   H76   0.929716  0.464056  0.802256  0.001035
    H   H77   0.980766  0.458723  0.817048  0.025417
    C   C159  0.008437  0.612615  0.351537  0.872793
    O   O79   0.040040  0.617267  0.365911  -0.510880
    O   O80   0.037295  0.606797  0.264760  -0.450067
    C   C160  0.102066  0.605694  0.191873  0.200284
    H   H78   0.115812  0.600588  0.127269  0.033891
    H   H79   0.120883  0.578563  0.200984  -0.022934
    H   H80   0.122128  0.636990  0.187306  0.014248
