# Generated by REPEAT Assigner based on pymatgen
data_DB0-m3_o22_o26_f0_pcu.sym.82
_audit_creation_date              2022-05-24
_audit_creation_method            REPEAT_Assigner
_cell_length_a                    9.606557
_cell_length_b                    10.785153
_cell_length_c                    17.499614
_cell_angle_alpha                 89.999819
_cell_angle_beta                  86.246753
_cell_angle_gamma                 90.061960
_cell_volume                      1809.213399
_symmetry_space_group_name_H-M    P1
_symmetry_Int_Tables_number       1
loop_
    _symmetry_equiv_pos_site_id
    _symmetry_equiv_pos_as_xyz
    1  x,y,z
loop_
    _atom_site_type_symbol
    _atom_site_label
    _atom_site_fract_x
    _atom_site_fract_y
    _atom_site_fract_z
    _atom_type_partial_charge
    O   O1   0.372623  0.683763  0.501454  -0.669569
    O   O2   0.613052  0.684170  0.498226  -0.736650
    C   C1   0.492766  0.742286  0.500295  0.702062
    O   O3   0.364017  0.498829  0.614810  -0.618639
    O   O4   0.605288  0.499504  0.612550  -0.638694
    C   C2   0.481437  0.498925  0.649440  0.687146
    Zn  Zn1  0.337409  0.498428  0.500918  1.038081
    Zn  Zn2  0.654947  0.500043  0.498184  1.019290
    O   O5   0.378990  0.314323  0.500704  -0.682020
    O   O6   0.619648  0.314745  0.498742  -0.757368
    O   O7   0.387855  0.499895  0.386673  -0.633222
    O   O8   0.627403  0.497990  0.384392  -0.514944
    C   C3   0.499308  0.256579  0.499398  0.624114
    C   C4   0.510734  0.498348  0.349654  0.609384
    C   C5   0.473582  0.498822  0.733447  -0.088316
    C   C6   0.592240  0.516615  0.772653  -0.139462
    C   C7   0.584483  0.518223  0.851667  -0.191614
    C   C8   0.457651  0.499900  0.892716  0.266711
    C   C9   0.339351  0.482931  0.853151  -0.273120
    C   C10  0.346922  0.482317  0.774241  0.044305
    C   C11  0.413719  0.535363  0.147463  -0.228283
    C   C12  0.406165  0.535707  0.226486  -0.070808
    C   C13  0.636754  0.454390  0.225294  0.072375
    C   C14  0.643962  0.452816  0.146396  -0.290364
    C   C15  0.532773  0.492606  0.106623  0.259160
    C   C16  0.441565  0.501970  0.977204  -0.257702
    C   C17  0.548714  0.490947  0.022121  -0.203742
    C   C18  0.517940  0.496106  0.265775  -0.085700
    H   H1   0.692302  0.531689  0.742169  0.133519
    H   H2   0.312834  0.570343  0.257059  0.091921
    H   H3   0.724010  0.420020  0.254852  0.027855
    H   H4   0.652696  0.474388  0.996953  0.132321
    H   H5   0.239255  0.469574  0.883992  0.123853
    H   H6   0.325897  0.571755  0.119406  0.126197
    H   H7   0.252323  0.468158  0.745212  0.058467
    H   H8   0.336052  0.507206  0.002378  0.149238
    H   H9   0.679083  0.536839  0.879553  0.123711
    H   H10  0.737784  0.419247  0.115751  0.128913
    C   C19  0.386639  0.930582  0.448144  0.022763
    H   H11  0.280567  0.895651  0.464444  -0.054952
    H   H12  0.414908  0.899128  0.388820  -0.000397
    C   C20  0.386400  0.070949  0.449605  -0.066131
    H   H13  0.407146  0.106479  0.390473  -0.010836
    H   H14  0.281895  0.102922  0.471892  0.004756
    H   H15  0.365270  0.110206  0.604152  -0.081998
    C   C21  0.468370  0.931600  0.582471  -0.034242
    C   C22  0.635934  0.927690  0.470214  -0.213432
    C   C23  0.493417  0.881501  0.500918  0.090696
    H   H16  0.718977  0.894519  0.506285  0.081361
    H   H17  0.657562  0.894276  0.410908  0.091496
    C   C24  0.498094  0.117983  0.500043  0.328095
    C   C25  0.466774  0.072585  0.581328  0.026114
    C   C26  0.638954  0.068094  0.470139  -0.113250
    H   H18  0.663905  0.101639  0.410894  0.010190
    H   H19  0.721580  0.098996  0.507268  0.032964
    H   H20  0.558797  0.902869  0.614514  0.016526
    H   H21  0.548296  0.107382  0.617948  -0.009651
    C   C27  0.916509  0.615474  0.532993  0.137007
    H   H22  0.887635  0.614712  0.595417  0.003138
    H   H23  0.871004  0.700374  0.510062  -0.009880
    C   C28  0.073819  0.621401  0.520767  -0.153800
    H   H24  0.102833  0.686661  0.473389  0.078097
    H   H25  0.117555  0.655396  0.573784  0.105979
    H   H26  0.849546  0.401283  0.602225  0.020360
    H   H27  0.077991  0.443254  0.616476  0.099474
    C   C29  0.908207  0.400666  0.545583  0.168019
    C   C30  0.931624  0.481924  0.421778  -0.013972
    N   N1   0.863664  0.503003  0.498349  -0.015318
    H   H28  0.890492  0.394481  0.398618  0.048603
    N   N2   0.128771  0.498850  0.502593  0.119814
    C   C31  0.063477  0.411334  0.557263  -0.299148
    C   C32  0.087507  0.465892  0.426855  0.041755
    H   H29  0.141637  0.527121  0.383969  -0.008074
    H   H30  0.116828  0.368345  0.413798  0.019084
    H   H31  0.888470  0.310731  0.517593  0.020878
    H   H32  0.112106  0.318681  0.549469  0.108800
    C   C33  0.341421  0.880280  0.625715  0.248130
    C   C34  0.205170  0.913843  0.616520  -0.115664
    C   C35  0.128066  0.853523  0.672659  -0.374806
    C   C36  0.221788  0.786892  0.711988  -0.007076
    O   O9   0.351989  0.803415  0.684105  -0.168187
    H   H33  0.166038  0.978374  0.575922  0.148495
    H   H34  0.016305  0.857986  0.684427  0.177321
    H   H35  0.193800  0.728790  0.760933  0.115460
    C   C37  0.906855  0.580939  0.363718  0.110087
    C   C38  0.951136  0.568865  0.287670  -0.027952
    C   C39  0.907544  0.672704  0.252874  -0.227430
    C   C40  0.838763  0.740869  0.309666  -0.198616
    O   O10  0.837000  0.685263  0.377313  -0.002625
    H   H36  0.008197  0.492271  0.260944  0.091686
    H   H37  0.923078  0.696509  0.192915  0.143225
    H   H38  0.790873  0.829698  0.300388  0.158658
