# generated using pymatgen
data_ZnH11C16NO5
_symmetry_space_group_name_H-M   'P 1'
_cell_length_a   10.04313600
_cell_length_b   11.45016300
_cell_length_c   17.50477700
_cell_angle_alpha   90.76600200
_cell_angle_beta   77.31694500
_cell_angle_gamma   92.41250600
_symmetry_Int_Tables_number   1
_chemical_formula_structural   ZnH11C16NO5
_chemical_formula_sum   'Zn2 H22 C32 N2 O10'
_cell_volume   1962.09567412
_cell_formula_units_Z   2
loop_
 _symmetry_equiv_pos_site_id
 _symmetry_equiv_pos_as_xyz
  1  'x, y, z'
loop_
 _atom_site_type_symbol
 _atom_site_label
 _atom_site_symmetry_multiplicity
 _atom_site_fract_x
 _atom_site_fract_y
 _atom_site_fract_z
 _atom_site_occupancy
  Zn  Zn1  1  0.35070800  0.51688300  0.50279500  1
  Zn  Zn2  1  0.65707800  0.48637700  0.47082000  1
  H  H1  1  0.70276600  0.48772900  0.71200100  1
  H  H2  1  0.30512100  0.51636700  0.26163300  1
  H  H3  1  0.73655200  0.47445200  0.22056900  1
  H  H4  1  0.27103800  0.52795200  0.75303300  1
  H  H5  1  0.64074100  0.44195400  0.97252900  1
  H  H6  1  0.36684100  0.56137300  0.00106100  1
  H  H7  1  0.25902300  0.53585900  0.89272100  1
  H  H8  1  0.74849300  0.46663900  0.08088800  1
  H  H9  1  0.31663000  0.50618800  0.12305100  1
  H  H10  1  0.69114200  0.49797500  0.85061600  1
  H  H11  1  0.33347000  0.11959900  0.48242900  1
  H  H12  1  0.67970800  0.88452000  0.46013000  1
  H  H13  1  0.12694000  0.44203000  0.42908100  1
  H  H14  1  0.88099600  0.56187500  0.54424700  1
  H  H15  1  0.09622300  0.58572700  0.57147900  1
  H  H16  1  0.91137000  0.41674700  0.40249700  1
  H  H17  1  0.64755900  0.02558900  0.62736900  1
  H  H18  1  0.90910500  0.09888000  0.59908600  1
  H  H19  1  0.96512000  0.18763900  0.45677600  1
  H  H20  1  0.28834300  0.98190500  0.64447500  1
  H  H21  1  0.03470800  0.90688700  0.64145400  1
  H  H22  1  0.04683000  0.81313300  0.50170800  1
  C  C1  1  0.54642300  0.72932000  0.48305900  1
  C  C2  1  0.46131600  0.27403500  0.49056400  1
  C  C3  1  0.49499800  0.50311600  0.63749300  1
  C  C4  1  0.51277800  0.50010700  0.33612300  1
  C  C5  1  0.48777900  0.50602900  0.72213400  1
  C  C6  1  0.51997100  0.49721000  0.25148400  1
  C  C7  1  0.60431800  0.49712300  0.75111000  1
  C  C8  1  0.40349400  0.50661100  0.22251900  1
  C  C9  1  0.59706500  0.50158400  0.83076000  1
  C  C10  1  0.41069300  0.50217700  0.14287500  1
  C  C11  1  0.47250000  0.51439900  0.88262000  1
  C  C12  1  0.53515700  0.48891600  0.09100000  1
  C  C13  1  0.35681600  0.52472300  0.85324800  1
  C  C14  1  0.65077800  0.47811700  0.12036500  1
  C  C15  1  0.36391700  0.52000500  0.77379300  1
  C  C16  1  0.64372300  0.48277800  0.19981800  1
  C  C17  1  0.45786900  0.52186900  0.96824000  1
  C  C18  1  0.54975300  0.48149500  0.00537600  1
  C  C19  1  0.57328100  0.85714700  0.47955900  1
  C  C20  1  0.43473600  0.14643600  0.48939600  1
  C  C21  1  0.47880800  0.93901300  0.49961500  1
  C  C22  1  0.52310300  0.06448900  0.49775200  1
  C  C23  1  0.93003700  0.51041700  0.49434700  1
  C  C24  1  0.07781200  0.49311500  0.47915200  1
  C  C25  1  0.66083100  0.09562500  0.50917700  1
  C  C26  1  0.70575000  0.06811600  0.57511100  1
  C  C27  1  0.83902900  0.10510600  0.56059500  1
  C  C28  1  0.86661300  0.15111600  0.48642700  1
  C  C29  1  0.33237800  0.90809400  0.52507100  1
  C  C30  1  0.25433300  0.93749000  0.59687200  1
  C  C31  1  0.12514000  0.89956400  0.59523200  1
  C  C32  1  0.13308500  0.85102600  0.52223000  1
  N  N1  1  0.85860100  0.46481100  0.44852900  1
  N  N2  1  0.14918900  0.53846700  0.52508500  1
  O  O1  1  0.42075900  0.68574000  0.49610600  1
  O  O2  1  0.58704500  0.31748600  0.47786800  1
  O  O3  1  0.65291300  0.66321300  0.47162200  1
  O  O4  1  0.35489000  0.34006900  0.50119200  1
  O  O5  1  0.38156500  0.51363800  0.61325000  1
  O  O6  1  0.62609800  0.48885300  0.36037100  1
  O  O7  1  0.61403500  0.49156200  0.58944900  1
  O  O8  1  0.39386500  0.51243100  0.38415400  1
  O  O9  1  0.75866100  0.14465900  0.45436900  1
  O  O10  1  0.25908800  0.85674000  0.47882800  1
