# generated using pymatgen
data_Zn2H24C41(NO4)2
_symmetry_space_group_name_H-M   'P 1'
_cell_length_a   12.06270300
_cell_length_b   8.55501800
_cell_length_c   15.09177400
_cell_angle_alpha   90.00000000
_cell_angle_beta   109.34755400
_cell_angle_gamma   90.00000000
_symmetry_Int_Tables_number   1
_chemical_formula_structural   Zn2H24C41(NO4)2
_chemical_formula_sum   'Zn2 H24 C41 N2 O8'
_cell_volume   1469.46710902
_cell_formula_units_Z   1
loop_
 _symmetry_equiv_pos_site_id
 _symmetry_equiv_pos_as_xyz
  1  'x, y, z'
loop_
 _atom_site_type_symbol
 _atom_site_label
 _atom_site_symmetry_multiplicity
 _atom_site_fract_x
 _atom_site_fract_y
 _atom_site_fract_z
 _atom_site_occupancy
  Zn  Zn1  1  0.87939100  0.50009800  0.46800100  1
  Zn  Zn2  1  0.14149900  0.50075000  0.52418300  1
  H  H1  1  0.05693800  0.00051300  0.56938900  1
  H  H2  1  0.00486300  0.25144800  0.79361000  1
  H  H3  1  0.99897900  0.74988300  0.79179800  1
  H  H4  1  0.89960500  0.20350400  0.88837200  1
  H  H5  1  0.90593900  0.20467300  0.05040800  1
  H  H6  1  0.12326000  0.79716200  0.10444900  1
  H  H7  1  0.11694200  0.79600800  0.94237300  1
  H  H8  1  0.02395300  0.25093000  0.20091700  1
  H  H9  1  0.01804300  0.74939000  0.19934700  1
  H  H10  1  0.96385600  0.00076900  0.42262500  1
  H  H11  1  0.30829000  0.50247200  0.70175000  1
  H  H12  1  0.70212900  0.50536200  0.72674100  1
  H  H13  1  0.52291400  0.50557700  0.75783300  1
  H  H14  1  0.29742800  0.50663700  0.42344000  1
  H  H15  1  0.38800700  0.45502600  0.33579200  1
  H  H16  1  0.49562500  0.45156600  0.23328300  1
  H  H17  1  0.81012400  0.50221800  0.62486900  1
  H  H18  1  0.69389600  0.36650800  0.22524800  1
  H  H19  1  0.80600500  0.50318700  0.27441900  1
  H  H20  1  0.58671900  0.44207700  0.07456200  1
  H  H21  1  0.48760300  0.64301200  0.96022500  1
  H  H22  1  0.49586900  0.91866400  0.00816700  1
  H  H23  1  0.60357600  0.99310200  0.17151500  1
  H  H24  1  0.70276700  0.79245500  0.28679400  1
  C  C1  1  0.02472900  0.13982700  0.67409000  1
  C  C2  1  0.02402400  0.86113900  0.67375900  1
  C  C3  1  0.00930700  0.14072800  0.76062200  1
  C  C4  1  0.00906800  0.86012400  0.76039000  1
  C  C5  1  0.00759700  0.00024700  0.80630600  1
  C  C6  1  0.03945600  0.00047500  0.63459100  1
  C  C7  1  0.95050800  0.11507600  0.93551200  1
  C  C8  1  0.95457400  0.11607100  0.02787400  1
  C  C9  1  0.01565600  0.00156300  0.08939200  1
  C  C10  1  0.07242100  0.88563400  0.05730700  1
  C  C11  1  0.06836200  0.88464700  0.96493500  1
  C  C12  1  0.00729700  0.99918700  0.90342700  1
  C  C13  1  0.01355700  0.14075400  0.23225800  1
  C  C14  1  0.01329900  0.86016200  0.23217600  1
  C  C15  1  0.99784900  0.13994300  0.31860600  1
  C  C16  1  0.99714400  0.86119400  0.31845000  1
  C  C17  1  0.98191000  0.00066300  0.35765100  1
  C  C18  1  0.01520500  0.00056500  0.18647200  1
  C  C19  1  0.01904200  0.71912400  0.61895600  1
  C  C20  1  0.02014500  0.28197400  0.61940100  1
  C  C21  1  0.00163800  0.71907700  0.37320600  1
  C  C22  1  0.00276500  0.28210600  0.37330200  1
  C  C23  1  0.47551900  0.50372900  0.68321800  1
  C  C24  1  0.66269000  0.48634500  0.33795100  1
  C  C25  1  0.54295800  0.46942000  0.30708300  1
  C  C26  1  0.48078900  0.47314500  0.36706100  1
  C  C27  1  0.53853300  0.49237300  0.46172500  1
  C  C28  1  0.66202300  0.49909700  0.49412500  1
  C  C29  1  0.47481600  0.49836900  0.52466100  1
  C  C30  1  0.53512000  0.50217900  0.61967000  1
  C  C31  1  0.65522800  0.50342500  0.65204700  1
  C  C32  1  0.71785000  0.50290400  0.59102900  1
  C  C33  1  0.35187600  0.50134700  0.49576300  1
  C  C34  1  0.35503800  0.50209300  0.65179500  1
  C  C35  1  0.71258100  0.48330200  0.25872300  1
  C  C36  1  0.65193900  0.60450200  0.18828700  1
  C  C37  1  0.59098700  0.56281600  0.09656200  1
  C  C38  1  0.53511300  0.67573900  0.03199000  1
  C  C39  1  0.53975500  0.83027300  0.05883600  1
  C  C40  1  0.60019200  0.87198400  0.15036500  1
  C  C41  1  0.65616600  0.75925200  0.21500600  1
  N  N1  1  0.29533400  0.50154700  0.55922200  1
  N  N2  1  0.72457600  0.49864700  0.43230100  1
  O  O1  1  0.11717700  0.66986100  0.60893300  1
  O  O2  1  0.11819000  0.33134700  0.60921200  1
  O  O3  1  0.91504000  0.66448100  0.56947200  1
  O  O4  1  0.91618500  0.33642600  0.56989500  1
  O  O5  1  0.90370400  0.67002700  0.38371400  1
  O  O6  1  0.90489800  0.33120600  0.38364100  1
  O  O7  1  0.10550400  0.66368400  0.42207500  1
  O  O8  1  0.10653500  0.33753100  0.42227400  1
