# generated using pymatgen
data_ZnH7C12(NO)4
_symmetry_space_group_name_H-M   'P 1'
_cell_length_a   12.76895900
_cell_length_b   14.42752500
_cell_length_c   8.55868300
_cell_angle_alpha   90.00000000
_cell_angle_beta   93.29437700
_cell_angle_gamma   90.00000000
_symmetry_Int_Tables_number   1
_chemical_formula_structural   ZnH7C12(NO)4
_chemical_formula_sum   'Zn2 H14 C24 N8 O8'
_cell_volume   1574.11329481
_cell_formula_units_Z   2
loop_
 _symmetry_equiv_pos_site_id
 _symmetry_equiv_pos_as_xyz
  1  'x, y, z'
loop_
 _atom_site_type_symbol
 _atom_site_label
 _atom_site_symmetry_multiplicity
 _atom_site_fract_x
 _atom_site_fract_y
 _atom_site_fract_z
 _atom_site_occupancy
  Zn  Zn1  1  0.51237900  0.10431100  0.50156000  1
  Zn  Zn2  1  0.48761600  0.89569700  0.49843100  1
  H  H1  1  0.34297200  0.40175400  0.50549100  1
  H  H2  1  0.65702300  0.59825800  0.49455500  1
  H  H3  1  0.67491300  0.42848600  0.49709300  1
  H  H4  1  0.32508200  0.57152600  0.50295500  1
  H  H5  1  0.57079200  0.95502800  0.00077800  1
  H  H6  1  0.42917900  0.04498900  0.99918700  1
  H  H7  1  0.89615100  0.07939500  0.31922700  1
  H  H8  1  0.91746700  0.96387000  0.33510300  1
  H  H9  1  0.10373500  0.92051400  0.68092600  1
  H  H10  1  0.08263300  0.03606100  0.66469300  1
  H  H11  1  0.85445800  0.95701600  0.67689400  1
  H  H12  1  0.83174500  0.07209900  0.69211600  1
  H  H13  1  0.14564300  0.04293200  0.32322900  1
  H  H14  1  0.16823700  0.92784900  0.30777800  1
  C  C1  1  0.70287900  0.98334600  0.15509600  1
  C  C2  1  0.29710100  0.01664800  0.84489600  1
  C  C3  1  0.80879400  0.00118900  0.16830800  1
  C  C4  1  0.19119100  0.99876500  0.83170300  1
  C  C5  1  0.86615600  0.00361600  0.03609500  1
  C  C6  1  0.13382800  0.99638800  0.96392300  1
  C  C7  1  0.81367000  0.99898800  0.88831100  1
  C  C8  1  0.18632300  0.00104300  0.11169900  1
  C  C9  1  0.70687100  0.98186700  0.87711100  1
  C  C10  1  0.29312500  0.01815500  0.12287900  1
  C  C11  1  0.65386800  0.96867900  0.01040400  1
  C  C12  1  0.34611200  0.03134200  0.98957400  1
  C  C13  1  0.48057900  0.69433200  0.49747800  1
  C  C14  1  0.51941500  0.30567500  0.50252500  1
  C  C15  1  0.40190900  0.54016500  0.50161100  1
  C  C16  1  0.59808400  0.45984700  0.49841700  1
  C  C17  1  0.58799300  0.55502000  0.49690100  1
  C  C18  1  0.41200100  0.44499200  0.50312600  1
  C  C19  1  0.63854200  0.98890500  0.28985000  1
  C  C20  1  0.36144100  0.01110000  0.71013700  1
  C  C21  1  0.35585600  0.01217600  0.27098700  1
  C  C22  1  0.64414000  0.98783700  0.72900300  1
  C  C23  1  0.48997800  0.59519700  0.49844900  1
  C  C24  1  0.51001500  0.40481300  0.50156500  1
  N  N1  1  0.97632800  0.01412700  0.05683200  1
  N  N2  1  0.02365500  0.98587100  0.94319400  1
  N  N3  1  0.52407700  0.22558100  0.50296100  1
  N  N4  1  0.47592000  0.77442700  0.49703100  1
  N  N5  1  0.85961700  0.01466100  0.31902100  1
  N  N6  1  0.14038400  0.98519900  0.68099500  1
  N  N7  1  0.86671700  0.01493200  0.74877300  1
  N  N8  1  0.13329500  0.98507100  0.25124500  1
  O  O1  1  0.59527800  0.91199000  0.33792800  1
  O  O2  1  0.40472000  0.08801600  0.66207300  1
  O  O3  1  0.38356300  0.92793300  0.65772400  1
  O  O4  1  0.61643000  0.07207500  0.34226600  1
  O  O5  1  0.40101600  0.08756900  0.32631500  1
  O  O6  1  0.59897800  0.91244200  0.67367900  1
  O  O7  1  0.61988700  0.07029600  0.67459400  1
  O  O8  1  0.38011200  0.92971400  0.32539000  1
