# generated using pymatgen
data_Zn3H28C34(NO3)4
_symmetry_space_group_name_H-M   'P 1'
_cell_length_a   31.33987900
_cell_length_b   31.16463800
_cell_length_c   24.83157300
_cell_angle_alpha   90.00000000
_cell_angle_beta   129.11231100
_cell_angle_gamma   90.00000000
_symmetry_Int_Tables_number   1
_chemical_formula_structural   Zn3H28C34(NO3)4
_chemical_formula_sum   'Zn12 H112 C136 N16 O48'
_cell_volume   18818.08707678
_cell_formula_units_Z   4
loop_
 _symmetry_equiv_pos_site_id
 _symmetry_equiv_pos_as_xyz
  1  'x, y, z'
loop_
 _atom_site_type_symbol
 _atom_site_label
 _atom_site_symmetry_multiplicity
 _atom_site_fract_x
 _atom_site_fract_y
 _atom_site_fract_z
 _atom_site_occupancy
  Zn  Zn1  1  0.78665900  0.71214300  0.50168100  1
  Zn  Zn2  1  0.21334100  0.71214300  0.49831900  1
  Zn  Zn3  1  0.28665900  0.21214300  0.50168100  1
  Zn  Zn4  1  0.71334100  0.21214300  0.49831900  1
  Zn  Zn5  1  0.71266300  0.77670700  0.49780400  1
  Zn  Zn6  1  0.28733700  0.77670700  0.50219700  1
  Zn  Zn7  1  0.21266300  0.27670700  0.49780400  1
  Zn  Zn8  1  0.78733700  0.27670700  0.50219700  1
  Zn  Zn9  1  0.46340500  0.49378100  0.42166000  1
  Zn  Zn10  1  0.53659500  0.49378100  0.57834000  1
  Zn  Zn11  1  0.96340500  0.99378100  0.42166000  1
  Zn  Zn12  1  0.03659500  0.99378100  0.57834000  1
  H  H1  1  0.60681900  0.79671700  0.27704300  1
  H  H2  1  0.39318100  0.79671700  0.72295700  1
  H  H3  1  0.10681900  0.29671700  0.27704300  1
  H  H4  1  0.89318100  0.29671700  0.72295700  1
  H  H5  1  0.54543400  0.79519400  0.15138300  1
  H  H6  1  0.45456600  0.79519400  0.84861700  1
  H  H7  1  0.04543400  0.29519400  0.15138300  1
  H  H8  1  0.95456600  0.29519400  0.84861700  1
  H  H9  1  0.60299200  0.66958000  0.15680600  1
  H  H10  1  0.39700800  0.66958000  0.84319400  1
  H  H11  1  0.10299200  0.16958000  0.15680600  1
  H  H12  1  0.89700800  0.16958000  0.84319400  1
  H  H13  1  0.66589800  0.67172500  0.28307600  1
  H  H14  1  0.33410200  0.67172500  0.71692500  1
  H  H15  1  0.16589800  0.17172500  0.28307600  1
  H  H16  1  0.83410200  0.17172500  0.71692500  1
  H  H17  1  0.85254700  0.89525300  0.38641900  1
  H  H18  1  0.14745300  0.89525300  0.61358200  1
  H  H19  1  0.35254700  0.39525300  0.38641900  1
  H  H20  1  0.64745300  0.39525300  0.61358200  1
  H  H21  1  0.92000400  0.88709400  0.54370700  1
  H  H22  1  0.07999600  0.88709400  0.45629300  1
  H  H23  1  0.42000400  0.38709400  0.54370700  1
  H  H24  1  0.57999600  0.38709400  0.45629300  1
  H  H25  1  0.83942500  0.86835100  0.51679000  1
  H  H26  1  0.16057500  0.86835100  0.48321100  1
  H  H27  1  0.33942500  0.36835100  0.51679000  1
  H  H28  1  0.66057500  0.36835100  0.48321100  1
  H  H29  1  0.79872100  0.78088400  0.71783100  1
  H  H30  1  0.20127900  0.78088400  0.28216900  1
  H  H31  1  0.29872100  0.28088400  0.71783100  1
  H  H32  1  0.70127900  0.28088400  0.28216900  1
  H  H33  1  0.86053600  0.78224500  0.84354100  1
  H  H34  1  0.13946400  0.78224500  0.15645900  1
  H  H35  1  0.36053600  0.28224500  0.84354100  1
  H  H36  1  0.63946400  0.28224500  0.15645900  1
  H  H37  1  0.98927900  0.73117000  0.84771800  1
  H  H38  1  0.01072100  0.73117000  0.15228300  1
  H  H39  1  0.48927900  0.23117000  0.84771800  1
  H  H40  1  0.51072100  0.23117000  0.15228300  1
  H  H41  1  0.92675100  0.72870200  0.72160900  1
  H  H42  1  0.07324900  0.72870200  0.27839100  1
  H  H43  1  0.42675100  0.22870200  0.72160900  1
  H  H44  1  0.57324900  0.22870200  0.27839100  1
  H  H45  1  0.58838900  0.59217400  0.45813000  1
  H  H46  1  0.41161100  0.59217400  0.54187000  1
  H  H47  1  0.08838900  0.09217400  0.45813000  1
  H  H48  1  0.91161100  0.09217400  0.54187000  1
  H  H49  1  0.63683500  0.68790000  0.54634400  1
  H  H50  1  0.36316500  0.68790000  0.45365600  1
  H  H51  1  0.13683500  0.18790000  0.54634400  1
  H  H52  1  0.86316500  0.18790000  0.45365600  1
  H  H53  1  0.68541500  0.61369100  0.51995300  1
  H  H54  1  0.31458500  0.61369100  0.48004700  1
  H  H55  1  0.18541500  0.11369100  0.51995300  1
  H  H56  1  0.81458500  0.11369100  0.48004700  1
  H  H57  1  0.63234700  0.59269200  0.64198600  1
  H  H58  1  0.65627000  0.68808200  0.65257900  1
  H  H59  1  0.70664400  0.64593100  0.67986100  1
  H  H60  1  0.67392200  0.65038700  0.71836800  1
  H  H61  1  0.55563100  0.67001500  0.56236300  1
  H  H62  1  0.57182900  0.64764500  0.64059200  1
  H  H63  1  0.53501300  0.61599800  0.56270200  1
  H  H64  1  0.36765300  0.59269200  0.35801400  1
  H  H65  1  0.34373000  0.68808200  0.34742100  1
  H  H66  1  0.29335600  0.64593100  0.32013900  1
  H  H67  1  0.32607800  0.65038700  0.28163200  1
  H  H68  1  0.44436900  0.67001500  0.43763700  1
  H  H69  1  0.42817100  0.64764500  0.35940800  1
  H  H70  1  0.46498700  0.61599800  0.43729900  1
  H  H71  1  0.13234700  0.09269200  0.64198600  1
  H  H72  1  0.15627000  0.18808200  0.65257900  1
  H  H73  1  0.20664400  0.14593100  0.67986100  1
  H  H74  1  0.17392200  0.15038700  0.71836800  1
  H  H75  1  0.05563100  0.17001500  0.56236300  1
  H  H76  1  0.07182900  0.14764500  0.64059200  1
  H  H77  1  0.03501300  0.11599800  0.56270200  1
  H  H78  1  0.86765300  0.09269200  0.35801400  1
  H  H79  1  0.84373000  0.18808200  0.34742100  1
  H  H80  1  0.79335600  0.14593100  0.32013900  1
  H  H81  1  0.82607800  0.15038700  0.28163200  1
  H  H82  1  0.94436900  0.17001500  0.43763700  1
  H  H83  1  0.92817100  0.14764500  0.35940800  1
  H  H84  1  0.96498700  0.11599800  0.43729900  1
  H  H85  1  0.81246700  0.83270300  0.33424800  1
  H  H86  1  0.79212800  0.75179700  0.37689000  1
  H  H87  1  0.86314600  0.77084600  0.43260500  1
  H  H88  1  0.82565400  0.76293600  0.34092600  1
  H  H89  1  0.72547900  0.80723200  0.34798000  1
  H  H90  1  0.72081500  0.80513200  0.27206400  1
  H  H91  1  0.72736800  0.85621800  0.31100200  1
  H  H92  1  0.18753300  0.83270300  0.66575200  1
  H  H93  1  0.20787200  0.75179700  0.62311100  1
  H  H94  1  0.13685400  0.77084600  0.56739500  1
  H  H95  1  0.17434600  0.76293600  0.65907400  1
  H  H96  1  0.27452200  0.80723200  0.65202100  1
  H  H97  1  0.27918500  0.80513200  0.72793700  1
  H  H98  1  0.27263200  0.85621800  0.68899900  1
  H  H99  1  0.31246700  0.33270300  0.33424800  1
  H  H100  1  0.29212800  0.25179700  0.37689000  1
  H  H101  1  0.36314600  0.27084600  0.43260500  1
  H  H102  1  0.32565400  0.26293600  0.34092600  1
  H  H103  1  0.22547900  0.30723200  0.34798000  1
  H  H104  1  0.22081500  0.30513200  0.27206400  1
  H  H105  1  0.22736800  0.35621800  0.31100200  1
  H  H106  1  0.68753300  0.33270300  0.66575200  1
  H  H107  1  0.70787200  0.25179700  0.62311100  1
  H  H108  1  0.63685400  0.27084600  0.56739500  1
  H  H109  1  0.67434600  0.26293600  0.65907400  1
  H  H110  1  0.77452200  0.30723200  0.65202100  1
  H  H111  1  0.77918500  0.30513200  0.72793700  1
  H  H112  1  0.77263200  0.35621800  0.68899900  1
  C  C1  1  0.79683100  0.80742200  0.48497300  1
  C  C2  1  0.20316900  0.80742200  0.51502800  1
  C  C3  1  0.29683100  0.30742200  0.48497300  1
  C  C4  1  0.70316900  0.30742200  0.51502800  1
  C  C5  1  0.67912100  0.73633900  0.36463500  1
  C  C6  1  0.32087900  0.73633900  0.63536500  1
  C  C7  1  0.17912100  0.23633900  0.36463500  1
  C  C8  1  0.82087900  0.23633900  0.63536500  1
  C  C9  1  0.70190200  0.68141700  0.51334700  1
  C  C10  1  0.29809800  0.68141700  0.48665300  1
  C  C11  1  0.20190200  0.18141700  0.51334700  1
  C  C12  1  0.79809800  0.18141700  0.48665300  1
  C  C13  1  0.82006700  0.75237600  0.63496300  1
  C  C14  1  0.17993300  0.75237600  0.36503700  1
  C  C15  1  0.32006700  0.25237600  0.63496300  1
  C  C16  1  0.67993300  0.25237600  0.36503700  1
  C  C17  1  0.60600800  0.76848500  0.25115100  1
  C  C18  1  0.39399200  0.76848500  0.74884900  1
  C  C19  1  0.10600800  0.26848500  0.25115100  1
  C  C20  1  0.89399200  0.26848500  0.74884900  1
  C  C21  1  0.57152400  0.76778900  0.17974100  1
  C  C22  1  0.42847600  0.76778900  0.82025900  1
  C  C23  1  0.07152400  0.26778900  0.17974100  1
  C  C24  1  0.92847600  0.26778900  0.82025900  1
  C  C25  1  0.56982200  0.73224700  0.14522700  1
  C  C26  1  0.43017800  0.73224700  0.85477300  1
  C  C27  1  0.06982200  0.23224700  0.14522700  1
  C  C28  1  0.93017800  0.23224700  0.85477300  1
  C  C29  1  0.60335300  0.69752700  0.18284700  1
  C  C30  1  0.39664700  0.69752700  0.81715300  1
  C  C31  1  0.10335300  0.19752700  0.18284700  1
  C  C32  1  0.89664700  0.19752700  0.81715300  1
  C  C33  1  0.63926300  0.69884100  0.25442100  1
  C  C34  1  0.36073700  0.69884100  0.74557900  1
  C  C35  1  0.13926300  0.19884100  0.25442100  1
  C  C36  1  0.86073700  0.19884100  0.74557900  1
  C  C37  1  0.64045900  0.73423600  0.28881700  1
  C  C38  1  0.35954100  0.73423600  0.71118300  1
  C  C39  1  0.14045900  0.23423600  0.28881700  1
  C  C40  1  0.85954100  0.23423600  0.71118300  1
  C  C41  1  0.46671300  0.73192900  0.93069500  1
  C  C42  1  0.53328700  0.73192900  0.06930500  1
  C  C43  1  0.96671300  0.23192900  0.93069500  1
  C  C44  1  0.03328700  0.23192900  0.06930500  1
  C  C45  1  0.86308900  0.88324300  0.43441400  1
  C  C46  1  0.13691100  0.88324300  0.56558600  1
  C  C47  1  0.36308900  0.38324300  0.43441400  1
  C  C48  1  0.63691100  0.38324300  0.56558600  1
  C  C49  1  0.90645700  0.89988700  0.49461000  1
  C  C50  1  0.09354300  0.89988700  0.50539000  1
  C  C51  1  0.40645700  0.39988700  0.49461000  1
  C  C52  1  0.59354300  0.39988700  0.50539000  1
  C  C53  1  0.83135300  0.84664800  0.43080500  1
  C  C54  1  0.16864800  0.84664800  0.56919500  1
  C  C55  1  0.33135300  0.34664800  0.43080500  1
  C  C56  1  0.66864800  0.34664800  0.56919500  1
  C  C57  1  0.82525500  0.84259900  0.47976700  1
  C  C58  1  0.17474500  0.84259900  0.52023400  1
  C  C59  1  0.32525500  0.34259900  0.47976700  1
  C  C60  1  0.67474500  0.34259900  0.52023400  1
  C  C61  1  0.84061100  0.77012900  0.74584900  1
  C  C62  1  0.15938900  0.77012900  0.25415100  1
  C  C63  1  0.34061100  0.27012900  0.74584900  1
  C  C64  1  0.65938900  0.27012900  0.25415100  1
  C  C65  1  0.87561400  0.77054200  0.81734100  1
  C  C66  1  0.12438600  0.77054200  0.18265900  1
  C  C67  1  0.37561400  0.27054200  0.81734100  1
  C  C68  1  0.62438600  0.27054200  0.18265900  1
  C  C69  1  0.92931600  0.75680700  0.85461200  1
  C  C70  1  0.07068500  0.75680700  0.14538800  1
  C  C71  1  0.42931600  0.25680700  0.85461200  1
  C  C72  1  0.57068500  0.25680700  0.14538800  1
  C  C73  1  0.94755400  0.74237300  0.81961200  1
  C  C74  1  0.05244600  0.74237300  0.18038800  1
  C  C75  1  0.44755400  0.24237300  0.81961200  1
  C  C76  1  0.55244600  0.24237300  0.18038800  1
  C  C77  1  0.91200000  0.74071400  0.74804700  1
  C  C78  1  0.08800000  0.74071400  0.25195300  1
  C  C79  1  0.41200000  0.24071400  0.74804700  1
  C  C80  1  0.58800000  0.24071400  0.25195300  1
  C  C81  1  0.85842900  0.75477100  0.71085400  1
  C  C82  1  0.14157100  0.75477100  0.28914600  1
  C  C83  1  0.35842900  0.25477100  0.71085400  1
  C  C84  1  0.64157100  0.25477100  0.28914600  1
  C  C85  1  0.03368100  0.75710000  0.06936500  1
  C  C86  1  0.96631900  0.75710000  0.93063500  1
  C  C87  1  0.53368100  0.25710000  0.06936500  1
  C  C88  1  0.46631900  0.25710000  0.93063500  1
  C  C89  1  0.61975700  0.62011200  0.55284400  1
  C  C90  1  0.38024300  0.62011200  0.44715600  1
  C  C91  1  0.11975700  0.12011200  0.55284400  1
  C  C92  1  0.88024300  0.12011200  0.44715600  1
  C  C93  1  0.59209300  0.58910800  0.50439300  1
  C  C94  1  0.40790700  0.58910800  0.49560700  1
  C  C95  1  0.09209300  0.08910800  0.50439300  1
  C  C96  1  0.90790700  0.08910800  0.49560700  1
  C  C97  1  0.64368800  0.65499700  0.53950700  1
  C  C98  1  0.35631200  0.65499700  0.46049300  1
  C  C99  1  0.14368800  0.15499700  0.53950700  1
  C  C100  1  0.85631200  0.15499700  0.46049300  1
  C  C101  1  0.67581400  0.64660100  0.52285300  1
  C  C102  1  0.32418600  0.64660100  0.47714800  1
  C  C103  1  0.17581400  0.14660100  0.52285300  1
  C  C104  1  0.82418600  0.14660100  0.47714800  1
  C  C105  1  0.43972700  0.55387200  0.49654900  1
  C  C106  1  0.56027400  0.55387200  0.50345200  1
  C  C107  1  0.93972700  0.05387200  0.49654900  1
  C  C108  1  0.06027400  0.05387200  0.50345200  1
  C  C109  1  0.93939800  0.93422400  0.49660500  1
  C  C110  1  0.06060300  0.93422400  0.50339500  1
  C  C111  1  0.43939800  0.43422400  0.49660500  1
  C  C112  1  0.56060300  0.43422400  0.50339500  1
  C  C113  1  0.62199900  0.62389400  0.61525300  1
  C  C114  1  0.66756100  0.65417800  0.66934100  1
  C  C115  1  0.56758900  0.64040400  0.59370300  1
  C  C116  1  0.37800100  0.62389400  0.38474700  1
  C  C117  1  0.33243900  0.65417800  0.33065900  1
  C  C118  1  0.43241100  0.64040400  0.40629700  1
  C  C119  1  0.12199900  0.12389400  0.61525300  1
  C  C120  1  0.16756100  0.15417800  0.66934100  1
  C  C121  1  0.06758900  0.14040400  0.59370300  1
  C  C122  1  0.87800100  0.12389400  0.38474700  1
  C  C123  1  0.83243900  0.15417800  0.33065900  1
  C  C124  1  0.93241100  0.14040400  0.40629700  1
  C  C125  1  0.80223600  0.81936300  0.36621100  1
  C  C126  1  0.82210200  0.77323700  0.38069200  1
  C  C127  1  0.74007500  0.82205600  0.32186000  1
  C  C128  1  0.19776400  0.81936300  0.63378900  1
  C  C129  1  0.17789800  0.77323700  0.61930800  1
  C  C130  1  0.25992500  0.82205600  0.67814000  1
  C  C131  1  0.30223600  0.31936300  0.36621100  1
  C  C132  1  0.32210200  0.27323700  0.38069200  1
  C  C133  1  0.24007500  0.32205600  0.32186000  1
  C  C134  1  0.69776400  0.31936300  0.63378900  1
  C  C135  1  0.67789800  0.27323700  0.61930800  1
  C  C136  1  0.75992500  0.32205600  0.67814000  1
  N  N1  1  0.51662100  0.69457000  0.03430900  1
  N  N2  1  0.48338000  0.69457000  0.96569100  1
  N  N3  1  0.01662100  0.19457000  0.03430900  1
  N  N4  1  0.98338000  0.19457000  0.96569100  1
  N  N5  1  0.48367500  0.76922800  0.96575100  1
  N  N6  1  0.51632600  0.76922800  0.03424900  1
  N  N7  1  0.98367500  0.26922800  0.96575100  1
  N  N8  1  0.01632600  0.26922800  0.03424900  1
  N  N9  1  0.02113900  0.75697500  0.96706800  1
  N  N10  1  0.97886100  0.75697500  0.03293200  1
  N  N11  1  0.52113900  0.25697500  0.96706800  1
  N  N12  1  0.47886100  0.25697500  0.03293200  1
  N  N13  1  0.05443100  0.75722200  0.03565400  1
  N  N14  1  0.94556900  0.75722200  0.96434600  1
  N  N15  1  0.55443100  0.25722200  0.03565400  1
  N  N16  1  0.44556900  0.25722200  0.96434600  1
  O  O1  1  0.81279400  0.76783100  0.48903900  1
  O  O2  1  0.18720600  0.76783100  0.51096100  1
  O  O3  1  0.31279400  0.26783100  0.48903900  1
  O  O4  1  0.68720600  0.26783100  0.51096100  1
  O  O5  1  0.75907400  0.81754100  0.49043300  1
  O  O6  1  0.24092600  0.81754100  0.50956700  1
  O  O7  1  0.25907400  0.31754100  0.49043300  1
  O  O8  1  0.74092600  0.31754100  0.50956700  1
  O  O9  1  0.72338500  0.71231900  0.39823600  1
  O  O10  1  0.27661500  0.71231900  0.60176400  1
  O  O11  1  0.22338500  0.21231900  0.39823600  1
  O  O12  1  0.77661500  0.21231900  0.60176400  1
  O  O13  1  0.66897700  0.76364700  0.39552200  1
  O  O14  1  0.33102300  0.76364700  0.60447800  1
  O  O15  1  0.16897700  0.26364700  0.39552200  1
  O  O16  1  0.83102300  0.26364700  0.60447800  1
  O  O17  1  0.74079500  0.67131200  0.51000900  1
  O  O18  1  0.25920500  0.67131200  0.48999100  1
  O  O19  1  0.24079500  0.17131200  0.51000900  1
  O  O20  1  0.75920500  0.17131200  0.48999100  1
  O  O21  1  0.68615600  0.72105100  0.50993400  1
  O  O22  1  0.31384400  0.72105100  0.49006600  1
  O  O23  1  0.18615600  0.22105100  0.50993400  1
  O  O24  1  0.81384400  0.22105100  0.49006600  1
  O  O25  1  0.83065600  0.72553900  0.60396800  1
  O  O26  1  0.16934400  0.72553900  0.39603200  1
  O  O27  1  0.33065600  0.22553900  0.60396800  1
  O  O28  1  0.66934400  0.22553900  0.39603200  1
  O  O29  1  0.77557300  0.77606100  0.60131400  1
  O  O30  1  0.22442700  0.77606100  0.39868700  1
  O  O31  1  0.27557300  0.27606100  0.60131400  1
  O  O32  1  0.72442700  0.27606100  0.39868700  1
  O  O33  1  0.42721200  0.53975600  0.43840500  1
  O  O34  1  0.57278800  0.53975600  0.56159600  1
  O  O35  1  0.92721200  0.03975600  0.43840500  1
  O  O36  1  0.07278800  0.03975600  0.56159600  1
  O  O37  1  0.48075400  0.53827800  0.55742000  1
  O  O38  1  0.51924600  0.53827800  0.44258000  1
  O  O39  1  0.98075400  0.03827800  0.55742000  1
  O  O40  1  0.01924600  0.03827800  0.44258000  1
  O  O41  1  0.92698100  0.94792500  0.43822100  1
  O  O42  1  0.07301900  0.94792500  0.56177900  1
  O  O43  1  0.42698100  0.44792500  0.43822100  1
  O  O44  1  0.57301900  0.44792500  0.56177900  1
  O  O45  1  0.98107700  0.94904200  0.55759600  1
  O  O46  1  0.01892300  0.94904200  0.44240500  1
  O  O47  1  0.48107700  0.44904200  0.55759600  1
  O  O48  1  0.51892300  0.44904200  0.44240500  1
