# generated using pymatgen
data_FeH10C30NO10
_symmetry_space_group_name_H-M   'P 1'
_cell_length_a   13.10472000
_cell_length_b   9.39242100
_cell_length_c   28.08740000
_cell_angle_alpha   83.82295800
_cell_angle_beta   97.11407600
_cell_angle_gamma   112.25859000
_symmetry_Int_Tables_number   1
_chemical_formula_structural   FeH10C30NO10
_chemical_formula_sum   'Fe2 H20 C60 N2 O20'
_cell_volume   3167.95404731
_cell_formula_units_Z   2
loop_
 _symmetry_equiv_pos_site_id
 _symmetry_equiv_pos_as_xyz
  1  'x, y, z'
loop_
 _atom_site_type_symbol
 _atom_site_label
 _atom_site_symmetry_multiplicity
 _atom_site_fract_x
 _atom_site_fract_y
 _atom_site_fract_z
 _atom_site_occupancy
  Fe  Fe1  1  0.48661600  0.00154700  0.09980400  1
  Fe  Fe2  1  0.50844600  0.99607600  0.90139200  1
  H  H1  1  0.10913700  0.94225600  0.88404200  1
  H  H2  1  0.92829100  0.94189700  0.87648600  1
  H  H3  1  0.77646300  0.96495900  0.91002000  1
  H  H4  1  0.21856700  0.03232800  0.09131000  1
  H  H5  1  0.06681000  0.05570200  0.12483400  1
  H  H6  1  0.88613100  0.05591400  0.11724700  1
  H  H7  1  0.51347800  0.75216900  0.74251800  1
  H  H8  1  0.27297200  0.58298800  0.60437200  1
  H  H9  1  0.48670000  0.70372800  0.23612600  1
  H  H10  1  0.27982700  0.60862600  0.36621200  1
  H  H11  1  0.28254000  0.61975000  0.44922300  1
  H  H12  1  0.26377200  0.57425500  0.52097000  1
  H  H13  1  0.51162600  0.29528400  0.76507900  1
  H  H14  1  0.73256000  0.43080600  0.63416900  1
  H  H15  1  0.70667400  0.37044200  0.48116500  1
  H  H16  1  0.69998500  0.36764600  0.39768600  1
  H  H17  1  0.47374700  0.24089200  0.25778600  1
  H  H18  1  0.73252200  0.42559400  0.55105700  1
  H  H19  1  0.50050800  0.53595800  0.88379800  1
  H  H20  1  0.49447900  0.46190700  0.11721200  1
  C  C1  1  0.21540800  0.96805500  0.94942000  1
  C  C2  1  0.11797700  0.95735600  0.92212200  1
  C  C3  1  0.03152200  0.96860400  0.94260400  1
  C  C4  1  0.93607200  0.96012600  0.91432900  1
  C  C5  1  0.84959400  0.97469100  0.93383500  1
  C  C6  1  0.22439900  0.98538600  0.99851800  1
  C  C7  1  0.13674500  0.99737100  0.01913300  1
  C  C8  1  0.04075500  0.99045800  0.99082200  1
  C  C9  1  0.95434300  0.00718100  0.01049500  1
  C  C10  1  0.85833600  0.00021100  0.98218800  1
  C  C11  1  0.77070100  0.01228600  0.00279800  1
  C  C12  1  0.14546300  0.02276200  0.06749300  1
  C  C13  1  0.05902600  0.03747100  0.08699100  1
  C  C14  1  0.96360800  0.02912600  0.05870800  1
  C  C15  1  0.87722700  0.04063700  0.07917700  1
  C  C16  1  0.77979900  0.02999500  0.05188300  1
  C  C17  1  0.68724100  0.02895000  0.07693900  1
  C  C18  1  0.48792700  0.72770400  0.13971700  1
  C  C19  1  0.32978500  0.01019000  0.02742200  1
  C  C20  1  0.48085900  0.19819200  0.16603000  1
  C  C21  1  0.51100300  0.79826400  0.83450500  1
  C  C22  1  0.66529800  0.98745100  0.97389300  1
  C  C23  1  0.50860000  0.27065300  0.86152100  1
  C  C24  1  0.30808000  0.96950300  0.92436800  1
  C  C25  1  0.42607600  0.54129300  0.66861200  1
  C  C26  1  0.58609900  0.48326000  0.67932500  1
  C  C27  1  0.51154000  0.39754700  0.77938000  1
  C  C28  1  0.50793500  0.40181800  0.82819200  1
  C  C29  1  0.50571600  0.65709200  0.81506500  1
  C  C30  1  0.51055700  0.65296400  0.76653000  1
  C  C31  1  0.51063300  0.52204500  0.74841900  1
  C  C32  1  0.50182600  0.50553700  0.59963700  1
  C  C33  1  0.42217800  0.53675000  0.61935200  1
  C  C34  1  0.33796000  0.56142000  0.58985000  1
  C  C35  1  0.58423400  0.47851900  0.63011100  1
  C  C36  1  0.50243200  0.53063700  0.84570600  1
  C  C37  1  0.49188700  0.46667900  0.15528200  1
  C  C38  1  0.41624700  0.53442900  0.47005400  1
  C  C39  1  0.57377200  0.45677600  0.48131400  1
  C  C40  1  0.49364200  0.49361500  0.45114300  1
  C  C41  1  0.34108300  0.57793500  0.43821200  1
  C  C42  1  0.33980400  0.57422900  0.38942200  1
  C  C43  1  0.41392500  0.52881300  0.37086400  1
  C  C44  1  0.49084000  0.48951000  0.40157100  1
  C  C45  1  0.56498000  0.44605000  0.38208000  1
  C  C46  1  0.56165900  0.44276800  0.33279600  1
  C  C47  1  0.41151800  0.52311600  0.32165800  1
  C  C48  1  0.48434600  0.60017900  0.22178600  1
  C  C49  1  0.48771800  0.59601600  0.17295000  1
  C  C50  1  0.48618700  0.33897700  0.18569200  1
  C  C51  1  0.47954500  0.34184200  0.23413300  1
  C  C52  1  0.48218700  0.47389100  0.25259100  1
  C  C53  1  0.41623000  0.53217100  0.52001300  1
  C  C54  1  0.49907400  0.50146800  0.55006800  1
  C  C55  1  0.57921500  0.46681600  0.53104200  1
  C  C56  1  0.33446300  0.55854400  0.54094000  1
  C  C57  1  0.66557900  0.44939100  0.61125100  1
  C  C58  1  0.64621000  0.40936700  0.46077600  1
  C  C59  1  0.64201400  0.40504600  0.41189500  1
  C  C60  1  0.66367400  0.44424800  0.56249100  1
  N  N1  1  0.50762000  0.51498300  0.69776800  1
  N  N2  1  0.48501500  0.48026100  0.30334000  1
  O  O1  1  0.59933200  0.04742700  0.05374000  1
  O  O2  1  0.50265600  0.72784900  0.09434100  1
  O  O3  1  0.69030700  0.00215600  0.12381500  1
  O  O4  1  0.47318700  0.84594700  0.15453700  1
  O  O5  1  0.33803500  0.91080300  0.06292400  1
  O  O6  1  0.41424200  0.13943900  0.02040700  1
  O  O7  1  0.53099300  0.20705500  0.12744100  1
  O  O8  1  0.41867800  0.06371900  0.18474300  1
  O  O9  1  0.46359200  0.79020300  0.87384500  1
  O  O10  1  0.57130800  0.93242400  0.81493200  1
  O  O11  1  0.65719900  0.08647800  0.93824800  1
  O  O12  1  0.58069600  0.85849600  0.98105500  1
  O  O13  1  0.30514500  0.99675100  0.87750800  1
  O  O14  1  0.52207400  0.15156100  0.84661100  1
  O  O15  1  0.39588600  0.95067700  0.94754900  1
  O  O16  1  0.49445100  0.27091900  0.90694800  1
  O  O17  1  0.34671900  0.56859000  0.68773800  1
  O  O18  1  0.33364300  0.55626100  0.29202600  1
  O  O19  1  0.66802700  0.46022500  0.70888900  1
  O  O20  1  0.63722300  0.40594000  0.31403000  1
