# generated using pymatgen
data_V4H22C43O20
_symmetry_space_group_name_H-M   'P 1'
_cell_length_a   6.33997600
_cell_length_b   13.24324200
_cell_length_c   17.33799600
_cell_angle_alpha   111.71100100
_cell_angle_beta   88.44643700
_cell_angle_gamma   89.99251700
_symmetry_Int_Tables_number   1
_chemical_formula_structural   V4H22C43O20
_chemical_formula_sum   'V4 H22 C43 O20'
_cell_volume   1351.88472942
_cell_formula_units_Z   1
loop_
 _symmetry_equiv_pos_site_id
 _symmetry_equiv_pos_as_xyz
  1  'x, y, z'
loop_
 _atom_site_type_symbol
 _atom_site_label
 _atom_site_symmetry_multiplicity
 _atom_site_fract_x
 _atom_site_fract_y
 _atom_site_fract_z
 _atom_site_occupancy
  V  V1  1  0.93277500  0.49525300  0.48805300  1
  V  V2  1  0.43054700  0.50360500  0.50805300  1
  V  V3  1  0.33029300  0.17626100  0.85537700  1
  V  V4  1  0.83229800  0.16446400  0.83500700  1
  H  H1  1  0.39712500  0.70530700  0.09961300  1
  H  H2  1  0.32004000  0.53181000  0.00144600  1
  H  H3  1  0.04964600  0.62520500  0.07806300  1
  H  H4  1  0.47059900  0.95747100  0.32029600  1
  H  H5  1  0.41297300  0.14794100  0.41158400  1
  H  H6  1  0.97394200  0.23534000  0.31176100  1
  H  H7  1  0.03352100  0.04466100  0.22168600  1
  H  H8  1  0.19851800  0.98827900  0.11604800  1
  H  H9  1  0.26467400  0.08124300  0.01923200  1
  H  H10  1  0.87222400  0.93092600  0.95771100  1
  H  H11  1  0.80963000  0.84204500  0.05817400  1
  H  H12  1  0.25609000  0.66204600  0.22576600  1
  H  H13  1  0.34776300  0.56299700  0.31553700  1
  H  H14  1  0.85301200  0.78096800  0.41356600  1
  H  H15  1  0.75952800  0.88095500  0.32485500  1
  H  H16  1  0.44144900  0.48235600  0.88966100  1
  H  H17  1  0.29088700  0.38762400  0.80591400  1
  H  H18  1  0.31444000  0.52521000  0.81719600  1
  H  H19  1  0.96524700  0.49994300  0.86193600  1
  H  H20  1  0.10541300  0.58937500  0.94697500  1
  H  H21  1  0.13814100  0.41742600  0.99632400  1
  H  H22  1  0.96467900  0.35554600  0.91824400  1
  C  C1  1  0.65144500  0.31843500  0.41860800  1
  C  C2  1  0.66426500  0.60119100  0.41808800  1
  C  C3  1  0.16977800  0.68138600  0.58424900  1
  C  C4  1  0.13270300  0.39949400  0.58115300  1
  C  C5  1  0.12928100  0.34954800  0.64142100  1
  C  C6  1  0.11772700  0.30864100  0.69270900  1
  C  C7  1  0.14493400  0.87894500  0.70089700  1
  C  C8  1  0.15385600  0.78859400  0.64794600  1
  C  C9  1  0.52468300  0.64737400  0.07453600  1
  C  C10  1  0.48047600  0.54563900  0.01771800  1
  C  C11  1  0.63808800  0.46776500  0.98412600  1
  C  C12  1  0.84368100  0.49875500  0.00732300  1
  C  C13  1  0.88767600  0.60164100  0.06402100  1
  C  C14  1  0.72771100  0.67613400  0.09858000  1
  C  C15  1  0.76675700  0.78509700  0.15615600  1
  C  C16  1  0.77483800  0.87790100  0.20538100  1
  C  C17  1  0.58308500  0.01803800  0.31880200  1
  C  C18  1  0.55001000  0.12531100  0.37010100  1
  C  C19  1  0.68873100  0.20389200  0.36688800  1
  C  C20  1  0.86383600  0.17411600  0.31403300  1
  C  C21  1  0.89761500  0.06670600  0.26321000  1
  C  C22  1  0.75572500  0.98837800  0.26439400  1
  C  C23  1  0.34661200  0.97592200  0.08186700  1
  C  C24  1  0.38361800  0.02766500  0.02715200  1
  C  C25  1  0.57258500  0.01205600  0.98293600  1
  C  C26  1  0.72377700  0.94306700  0.99226500  1
  C  C27  1  0.68839500  0.89318400  0.04850400  1
  C  C28  1  0.50070200  0.91058800  0.09402100  1
  C  C29  1  0.47395400  0.86542300  0.15716600  1
  C  C30  1  0.47067300  0.82661900  0.21003700  1
  C  C31  1  0.38335400  0.69001400  0.26858400  1
  C  C32  1  0.43615400  0.63404600  0.31842300  1
  C  C33  1  0.60652700  0.66567300  0.36958300  1
  C  C34  1  0.71973500  0.75596200  0.37346500  1
  C  C35  1  0.66586400  0.81247500  0.32408700  1
  C  C36  1  0.49957400  0.77876100  0.27088700  1
  C  C37  1  0.61096100  0.07171600  0.92843100  1
  C  C38  1  0.59500100  0.35394200  0.92645000  1
  C  C39  1  0.09309200  0.26196600  0.75460500  1
  C  C40  1  0.13613900  0.98771700  0.76262500  1
  C  C41  1  0.02269500  0.43522200  0.95620400  1
  C  C42  1  0.09391600  0.50305900  0.90480600  1
  C  C43  1  0.29799200  0.47069700  0.85249100  1
  O  O1  1  0.56038600  0.51275800  0.40638600  1
  O  O2  1  0.76306200  0.39171600  0.39986400  1
  O  O3  1  0.96889900  0.37979500  0.53259900  1
  O  O4  1  0.84445100  0.61647900  0.45523800  1
  O  O5  1  0.04586500  0.60477500  0.58957100  1
  O  O6  1  0.47160000  0.34476800  0.46286300  1
  O  O7  1  0.65264100  0.52768400  0.56170300  1
  O  O8  1  0.34358400  0.65705400  0.53908700  1
  O  O9  1  0.24618100  0.48865000  0.59706300  1
  O  O10  1  0.16190900  0.46734900  0.43403700  1
  O  O11  1  0.70453200  0.27608500  0.93531300  1
  O  O12  1  0.49983500  0.16264600  0.94517400  1
  O  O13  1  0.29399700  0.01764000  0.81439500  1
  O  O14  1  0.41905700  0.32901400  0.88574000  1
  O  O15  1  0.21811700  0.18233800  0.75212100  1
  O  O16  1  0.79155300  0.05364100  0.88478200  1
  O  O17  1  0.61006600  0.13426900  0.78183900  1
  O  O18  1  0.91870200  0.28339300  0.79866200  1
  O  O19  1  0.01543800  0.05983700  0.74747000  1
  O  O20  1  0.10090200  0.20296600  0.90900800  1
