# Generated by REPEAT Assigner based on pymatgen
data_DB0-m2_o2_o29_f0_nbo.sym.20
_audit_creation_date              2022-05-24
_audit_creation_method            REPEAT_Assigner
_cell_length_a                    30.077887
_cell_length_b                    30.077887
_cell_length_c                    54.932612
_cell_angle_alpha                 90.000000
_cell_angle_beta                  90.000000
_cell_angle_gamma                 90.000000
_cell_volume                      49696.394902
_symmetry_space_group_name_H-M    P1
_symmetry_Int_Tables_number       1
loop_
    _symmetry_equiv_pos_site_id
    _symmetry_equiv_pos_as_xyz
    1  x,y,z
loop_
    _atom_site_type_symbol
    _atom_site_label
    _atom_site_fract_x
    _atom_site_fract_y
    _atom_site_fract_z
    _atom_type_partial_charge
    O   O1    0.536686  0.936547  0.506612  -0.000528
    O   O2    0.063453  0.536686  0.506612  -0.598650
    O   O3    0.463314  0.063453  0.506612  0.001145
    O   O4    0.936547  0.463314  0.506612  -0.046510
    O   O5    0.536686  0.063453  0.493388  -0.000456
    O   O6    0.063453  0.463314  0.493388  -0.598507
    O   O7    0.463314  0.936547  0.493388  0.001112
    O   O8    0.936547  0.536686  0.493388  -0.046537
    O   O9    0.036686  0.436547  0.006612  -0.503625
    O   O10   0.563453  0.036686  0.006612  -0.001369
    O   O11   0.963314  0.563453  0.006612  -0.006576
    O   O12   0.436547  0.963314  0.006612  -0.001068
    O   O13   0.036686  0.563453  0.993388  -0.503754
    O   O14   0.563453  0.963314  0.993388  -0.001369
    O   O15   0.963314  0.436547  0.993388  -0.006487
    O   O16   0.436547  0.036686  0.993388  -0.000503
    C   C1    0.500000  0.915646  0.500000  -0.004965
    C   C2    0.084354  0.500000  0.500000  0.610682
    C   C3    0.500000  0.084354  0.500000  -0.004983
    C   C4    0.915646  0.500000  0.500000  0.076459
    C   C5    0.000000  0.415646  0.000000  0.242905
    C   C6    0.584354  0.000000  0.000000  -0.021997
    C   C7    0.000000  0.584354  0.000000  0.242982
    C   C8    0.415646  0.000000  0.000000  -0.001830
    O   O17   0.536726  0.012001  0.534751  0.000478
    O   O18   0.987999  0.536726  0.534751  -0.229384
    O   O19   0.463274  0.987999  0.534751  0.003452
    O   O20   0.012001  0.463274  0.534751  -0.458134
    O   O21   0.536726  0.987999  0.465249  0.000564
    O   O22   0.987999  0.463274  0.465249  -0.229498
    O   O23   0.463274  0.012001  0.465249  0.003428
    O   O24   0.012001  0.536726  0.465249  -0.458255
    O   O25   0.036726  0.512001  0.034751  -0.429927
    O   O26   0.487999  0.036726  0.034751  0.006751
    O   O27   0.963274  0.487999  0.034751  -0.009584
    O   O28   0.512001  0.963274  0.034751  0.005304
    O   O29   0.036726  0.487999  0.965249  -0.429853
    O   O30   0.487999  0.963274  0.965249  0.006527
    O   O31   0.963274  0.512001  0.965249  -0.009564
    O   O32   0.512001  0.036726  0.965249  0.005431
    C   C9    0.500000  0.000000  0.546168  -0.008131
    C   C10   0.000000  0.500000  0.546168  0.396927
    C   C11   0.500000  0.000000  0.453832  -0.008137
    C   C12   0.000000  0.500000  0.453832  0.397211
    C   C13   0.000000  0.500000  0.046168  0.117374
    C   C14   0.500000  0.000000  0.046168  -0.014248
    C   C15   0.000000  0.500000  0.953832  0.117245
    C   C16   0.500000  0.000000  0.953832  -0.014448
    Cu  Cu1   0.543443  0.000000  0.500000  0.003044
    Cu  Cu2   0.000000  0.543443  0.500000  0.506294
    Cu  Cu3   0.456557  0.000000  0.500000  0.001284
    Cu  Cu4   0.000000  0.456557  0.500000  0.506267
    Cu  Cu5   0.043443  0.500000  0.000000  0.929293
    Cu  Cu6   0.500000  0.043443  0.000000  0.004191
    Cu  Cu7   0.956557  0.500000  0.000000  -0.040138
    Cu  Cu8   0.500000  0.956557  0.000000  0.004568
    O   O33   0.436429  0.488496  0.520167  0.015222
    O   O34   0.511504  0.436429  0.520167  -0.002402
    O   O35   0.563571  0.511504  0.520167  0.004336
    O   O36   0.488496  0.563571  0.520167  -0.000318
    O   O37   0.436429  0.511504  0.479833  0.015344
    O   O38   0.511504  0.563571  0.479833  -0.002406
    O   O39   0.563571  0.488496  0.479833  0.004391
    O   O40   0.488496  0.436429  0.479833  -0.000191
    O   O41   0.936429  0.988496  0.020167  -0.071544
    O   O42   0.011504  0.936429  0.020167  -0.383295
    O   O43   0.063571  0.011504  0.020167  -0.820269
    O   O44   0.988496  0.063571  0.020167  -0.207307
    O   O45   0.936429  0.011504  0.979833  -0.058213
    O   O46   0.011504  0.063571  0.979833  -0.391774
    O   O47   0.063571  0.988496  0.979833  -0.777058
    O   O48   0.988496  0.936429  0.979833  -0.202350
    C   C17   0.473001  0.970496  0.737313  -0.003131
    C   C18   0.029504  0.473001  0.737313  -0.201534
    C   C19   0.526999  0.029504  0.737313  -0.004888
    C   C20   0.970496  0.526999  0.737313  -0.033461
    C   C21   0.473001  0.029504  0.262687  -0.003094
    C   C22   0.029504  0.526999  0.262687  -0.201580
    C   C23   0.526999  0.970496  0.262687  -0.004747
    C   C24   0.970496  0.473001  0.262687  -0.033384
    C   C25   0.973001  0.470496  0.237313  0.009176
    C   C26   0.529504  0.973001  0.237313  -0.001451
    C   C27   0.026999  0.529504  0.237313  0.184189
    C   C28   0.470496  0.026999  0.237313  0.005227
    C   C29   0.973001  0.529504  0.762687  0.009201
    C   C30   0.529504  0.026999  0.762687  -0.001324
    C   C31   0.026999  0.470496  0.762687  0.184167
    C   C32   0.470496  0.973001  0.762687  0.005412
    C   C33   0.500000  0.000000  0.724768  0.006889
    C   C34   0.000000  0.500000  0.724768  0.172885
    C   C35   0.500000  0.000000  0.275232  0.006833
    C   C36   0.000000  0.500000  0.275232  0.173002
    C   C37   0.000000  0.500000  0.224768  -0.054786
    C   C38   0.500000  0.000000  0.224768  0.002485
    C   C39   0.000000  0.500000  0.775232  -0.054626
    C   C40   0.500000  0.000000  0.775232  0.002309
    C   C41   0.449456  0.938815  0.724089  -0.003388
    C   C42   0.061185  0.449456  0.724089  0.156759
    C   C43   0.550544  0.061185  0.724089  0.008699
    C   C44   0.938815  0.550544  0.724089  0.005928
    C   C45   0.449456  0.061185  0.275911  -0.003470
    C   C46   0.061185  0.550544  0.275911  0.156877
    C   C47   0.550544  0.938815  0.275911  0.008530
    C   C48   0.938815  0.449456  0.275911  0.005803
    C   C49   0.949456  0.438815  0.224089  0.044011
    C   C50   0.561185  0.949456  0.224089  0.001948
    C   C51   0.050544  0.561185  0.224089  -0.150522
    C   C52   0.438815  0.050544  0.224089  -0.007650
    C   C53   0.949456  0.561185  0.775911  0.044044
    C   C54   0.561185  0.050544  0.775911  0.001836
    C   C55   0.050544  0.438815  0.775911  -0.150500
    C   C56   0.438815  0.949456  0.775911  -0.007705
    C   C57   0.451059  0.938070  0.699125  0.000093
    C   C58   0.061930  0.451059  0.699125  -0.371427
    C   C59   0.548941  0.061930  0.699125  -0.008550
    C   C60   0.938070  0.548941  0.699125  -0.025788
    C   C61   0.451059  0.061930  0.300875  0.000297
    C   C62   0.061930  0.548941  0.300875  -0.371780
    C   C63   0.548941  0.938070  0.300875  -0.008349
    C   C64   0.938070  0.451059  0.300875  -0.025783
    C   C65   0.951059  0.438070  0.199125  -0.170465
    C   C66   0.561930  0.951059  0.199125  -0.002771
    C   C67   0.048941  0.561930  0.199125  0.054232
    C   C68   0.438070  0.048941  0.199125  -0.006556
    C   C69   0.951059  0.561930  0.800875  -0.170593
    C   C70   0.561930  0.048941  0.800875  -0.002729
    C   C71   0.048941  0.438070  0.800875  0.053822
    C   C72   0.438070  0.951059  0.800875  -0.006466
    C   C73   0.475648  0.969171  0.686695  0.004767
    C   C74   0.030829  0.475648  0.686695  0.551358
    C   C75   0.524352  0.030829  0.686695  0.006947
    C   C76   0.969171  0.524352  0.686695  0.005609
    C   C77   0.475648  0.030829  0.313305  0.004451
    C   C78   0.030829  0.524352  0.313305  0.551941
    C   C79   0.524352  0.969171  0.313305  0.006829
    C   C80   0.969171  0.475648  0.313305  0.006016
    C   C81   0.975648  0.469171  0.186695  0.268577
    C   C82   0.530829  0.975648  0.186695  0.007582
    C   C83   0.024352  0.530829  0.186695  -0.242002
    C   C84   0.469171  0.024352  0.186695  0.014814
    C   C85   0.975648  0.530829  0.813305  0.269091
    C   C86   0.530829  0.024352  0.813305  0.007460
    C   C87   0.024352  0.469171  0.813305  -0.241314
    C   C88   0.469171  0.975648  0.813305  0.014627
    C   C89   0.500000  0.000000  0.699479  -0.004616
    C   C90   0.000000  0.500000  0.699479  -0.260526
    C   C91   0.500000  0.000000  0.300521  -0.004458
    C   C92   0.000000  0.500000  0.300522  -0.260991
    C   C93   0.000000  0.500000  0.199479  0.007162
    C   C94   0.500000  0.000000  0.199479  -0.007014
    C   C95   0.000000  0.500000  0.800522  0.006637
    C   C96   0.500000  0.000000  0.800521  -0.006829
    C   C97   0.476585  0.968977  0.661524  -0.007588
    C   C98   0.031023  0.476585  0.661524  -0.370956
    C   C99   0.523415  0.031023  0.661524  -0.005459
    C   C100  0.968977  0.523415  0.661524  -0.131870
    C   C101  0.476585  0.031023  0.338476  -0.007390
    C   C102  0.031023  0.523415  0.338476  -0.371321
    C   C103  0.523415  0.968977  0.338476  -0.005420
    C   C104  0.968977  0.476585  0.338476  -0.132227
    C   C105  0.976585  0.468977  0.161524  -0.382772
    C   C106  0.531023  0.976585  0.161524  -0.014656
    C   C107  0.023415  0.531023  0.161524  0.640547
    C   C108  0.468977  0.023415  0.161524  -0.022001
    C   C109  0.976585  0.531023  0.838476  -0.383212
    C   C110  0.531023  0.023415  0.838476  -0.014407
    C   C111  0.023415  0.468977  0.838476  0.639904
    C   C112  0.468977  0.976585  0.838476  -0.021823
    N   N1    0.500000  0.000000  0.649275  0.001318
    N   N2    0.000000  0.500000  0.649275  0.462131
    N   N3    0.500000  0.000000  0.350725  0.001271
    N   N4    0.000000  0.500000  0.350725  0.462431
    N   N5    0.000000  0.500000  0.149275  -0.007549
    N   N6    0.500000  0.000000  0.149275  0.017549
    N   N7    0.000000  0.500000  0.850725  -0.007099
    N   N8    0.500000  0.000000  0.850725  0.017268
    H   H1    0.430511  0.912609  0.732428  0.000690
    H   H2    0.087391  0.430511  0.732428  -0.012586
    H   H3    0.569489  0.087391  0.732428  -0.000527
    H   H4    0.912609  0.569489  0.732428  0.017779
    H   H5    0.430511  0.087391  0.267572  0.000739
    H   H6    0.087391  0.569489  0.267572  -0.012597
    H   H7    0.569489  0.912609  0.267572  -0.000516
    H   H8    0.912609  0.430511  0.267572  0.017829
    H   H9    0.930511  0.412609  0.232428  -0.003800
    H   H10   0.587391  0.930511  0.232428  0.001722
    H   H11   0.069489  0.587391  0.232428  0.057614
    H   H12   0.412609  0.069489  0.232428  0.008660
    H   H13   0.930511  0.587391  0.767572  -0.003792
    H   H14   0.587391  0.069489  0.767572  0.001740
    H   H15   0.069489  0.412609  0.767572  0.057712
    H   H16   0.412609  0.930511  0.767572  0.008599
    H   H17   0.432351  0.912793  0.689632  0.005983
    H   H18   0.087208  0.432351  0.689632  0.164353
    H   H19   0.567649  0.087208  0.689632  0.003658
    H   H20   0.912793  0.567649  0.689632  -0.013857
    H   H21   0.432351  0.087207  0.310368  0.005858
    H   H22   0.087208  0.567649  0.310368  0.164439
    H   H23   0.567649  0.912792  0.310368  0.003575
    H   H24   0.912793  0.432351  0.310368  -0.013884
    H   H25   0.932351  0.412793  0.189632  0.088067
    H   H26   0.587207  0.932351  0.189632  0.005854
    H   H27   0.067649  0.587208  0.189632  0.077416
    H   H28   0.412792  0.067649  0.189632  0.009308
    H   H29   0.932351  0.587208  0.810368  0.088067
    H   H30   0.587208  0.067649  0.810368  0.005880
    H   H31   0.067649  0.412793  0.810368  0.077567
    H   H32   0.412793  0.932351  0.810368  0.009381
    O   O49   0.454793  0.937100  0.649213  0.002519
    O   O50   0.062900  0.454793  0.649213  -0.125340
    O   O51   0.545207  0.062900  0.649213  0.004584
    O   O52   0.937100  0.545207  0.649213  0.087429
    O   O53   0.454793  0.062900  0.350787  0.002541
    O   O54   0.062900  0.545207  0.350787  -0.125328
    O   O55   0.545207  0.937100  0.350787  0.004592
    O   O56   0.937100  0.454793  0.350787  0.087470
    O   O57   0.954793  0.437100  0.149213  0.046106
    O   O58   0.562900  0.954793  0.149213  0.001844
    O   O59   0.045207  0.562900  0.149213  -0.465960
    O   O60   0.437100  0.045207  0.149213  0.012135
    O   O61   0.954793  0.562900  0.850787  0.046163
    O   O62   0.562900  0.045207  0.850787  0.001766
    O   O63   0.045207  0.437100  0.850787  -0.465703
    O   O64   0.437100  0.954793  0.850787  0.012125
    C   C113  0.539628  0.998550  0.610550  0.002920
    C   C114  0.001450  0.539628  0.610550  -0.053771
    C   C115  0.460372  0.001450  0.610550  -0.005161
    C   C116  0.998550  0.460372  0.610550  -0.184000
    C   C117  0.539628  0.001450  0.389450  0.002696
    C   C118  0.001450  0.460372  0.389450  -0.053895
    C   C119  0.460372  0.998550  0.389450  -0.004822
    C   C120  0.998550  0.539628  0.389450  -0.183775
    C   C121  0.039628  0.498550  0.110550  -0.373547
    C   C122  0.501450  0.039628  0.110550  -0.007185
    C   C123  0.960372  0.501450  0.110550  0.329195
    C   C124  0.498550  0.960372  0.110550  0.001935
    C   C125  0.039628  0.501450  0.889450  -0.373532
    C   C126  0.501450  0.960372  0.889450  -0.007272
    C   C127  0.960372  0.498550  0.889450  0.329119
    C   C128  0.498550  0.039628  0.889450  0.002006
    H   H33   0.570903  0.996649  0.620187  -0.000087
    H   H34   0.003351  0.570903  0.620187  -0.014734
    H   H35   0.429098  0.003351  0.620187  0.008844
    H   H36   0.996649  0.429098  0.620187  0.041464
    H   H37   0.570903  0.003351  0.379813  -0.000072
    H   H38   0.003351  0.429098  0.379813  -0.014583
    H   H39   0.429098  0.996649  0.379813  0.008693
    H   H40   0.996649  0.570903  0.379813  0.041455
    H   H41   0.070903  0.496649  0.120187  0.286978
    H   H42   0.503351  0.070902  0.120187  0.002405
    H   H43   0.929098  0.503351  0.120187  -0.067603
    H   H44   0.496649  0.929097  0.120187  0.004367
    H   H45   0.070902  0.503351  0.879813  0.286974
    H   H46   0.503351  0.929098  0.879813  0.002376
    H   H47   0.929098  0.496649  0.879813  -0.067576
    H   H48   0.496649  0.070903  0.879813  0.004446
    C   C129  0.539665  0.999132  0.585464  0.000486
    C   C130  0.000868  0.539665  0.585464  0.066708
    C   C131  0.460335  0.000868  0.585464  -0.012332
    C   C132  0.999132  0.460335  0.585464  0.062464
    C   C133  0.539665  0.000868  0.414536  0.000915
    C   C134  0.000868  0.460335  0.414536  0.066619
    C   C135  0.460335  0.999132  0.414536  -0.012539
    C   C136  0.999132  0.539665  0.414536  0.062517
    C   C137  0.039665  0.499132  0.085464  -0.439509
    C   C138  0.500868  0.039665  0.085464  0.005353
    C   C139  0.960335  0.500868  0.085464  0.070595
    C   C140  0.499132  0.960335  0.085464  -0.000995
    C   C141  0.039665  0.500868  0.914536  -0.439472
    C   C142  0.500868  0.960335  0.914536  0.005220
    C   C143  0.960335  0.499132  0.914536  0.070797
    C   C144  0.499132  0.039665  0.914536  -0.001314
    H   H49   0.571051  0.997915  0.575917  0.000292
    H   H50   0.002085  0.571051  0.575917  -0.011593
    H   H51   0.428949  0.002085  0.575917  0.005210
    H   H52   0.997915  0.428949  0.575917  0.071072
    H   H53   0.571051  0.002085  0.424083  0.000189
    H   H54   0.002085  0.428949  0.424083  -0.011589
    H   H55   0.428949  0.997915  0.424083  0.005333
    H   H56   0.997915  0.571051  0.424083  0.070946
    H   H57   0.071051  0.497915  0.075917  0.310373
    H   H58   0.502085  0.071051  0.075917  0.001364
    H   H59   0.928949  0.502085  0.075917  -0.074475
    H   H60   0.497915  0.928949  0.075917  0.001424
    H   H61   0.071051  0.502085  0.924083  0.310364
    H   H62   0.502085  0.928949  0.924083  0.001455
    H   H63   0.928949  0.497915  0.924083  -0.074536
    H   H64   0.497915  0.071051  0.924083  0.001485
    C   C145  0.500000  0.000000  0.572806  0.012397
    C   C146  0.000000  0.500000  0.572806  -0.105384
    C   C147  0.500000  0.000000  0.427194  0.012152
    C   C148  0.000000  0.500000  0.427194  -0.105371
    C   C149  0.000000  0.500000  0.072806  0.183575
    C   C150  0.500000  0.000000  0.072806  0.005063
    C   C151  0.000000  0.500000  0.927194  0.183560
    C   C152  0.500000  0.000000  0.927194  0.005423
    C   C153  0.415497  0.500000  0.500000  -0.028666
    C   C154  0.500000  0.415497  0.500000  0.016047
    C   C155  0.584503  0.500000  0.500000  -0.023414
    C   C156  0.500000  0.584503  0.500000  0.016338
    C   C157  0.915497  0.000000  0.000000  0.109538
    C   C158  0.000000  0.915497  0.000000  0.118637
    C   C159  0.084503  0.000000  0.000000  1.064012
    C   C160  0.000000  0.084503  0.000000  0.134697
    C   C161  0.500000  0.000000  0.623252  -0.000869
    C   C162  0.000000  0.500000  0.623252  -0.076997
    C   C163  0.500000  0.000000  0.376748  -0.000953
    C   C164  0.000000  0.500000  0.376748  -0.077206
    C   C165  0.000000  0.500000  0.123252  -0.067636
    C   C166  0.500000  0.000000  0.123252  -0.003175
    C   C167  0.000000  0.500000  0.876748  -0.067792
    C   C168  0.500000  0.000000  0.876748  -0.003032
    Cu  Cu9   0.500000  0.500000  0.523830  -0.003562
    Cu  Cu10  0.500000  0.500000  0.476170  -0.003673
    Cu  Cu11  0.000000  0.000000  0.023830  0.561072
    Cu  Cu12  0.000000  0.000000  0.976170  0.535370
    C   C169  0.462984  0.797889  0.492239  0.003769
    C   C170  0.202111  0.462984  0.492239  -0.112670
    C   C171  0.537016  0.202111  0.492239  -0.010461
    C   C172  0.797889  0.537016  0.492239  0.000836
    C   C173  0.462984  0.202111  0.507761  0.003539
    C   C174  0.202111  0.537016  0.507761  -0.113219
    C   C175  0.537016  0.797889  0.507761  -0.010089
    C   C176  0.797889  0.462984  0.507761  0.000709
    C   C177  0.962984  0.297889  0.992239  0.072091
    C   C178  0.702111  0.962984  0.992239  0.018823
    C   C179  0.037016  0.702111  0.992239  -0.167036
    C   C180  0.297889  0.037016  0.992239  -0.114909
    C   C181  0.962984  0.702111  0.007761  0.069903
    C   C182  0.702111  0.037016  0.007761  0.018563
    C   C183  0.037016  0.297889  0.007761  -0.165007
    C   C184  0.297889  0.962984  0.007761  -0.111536
    H   H65   0.433337  0.780483  0.486534  0.000888
    H   H66   0.219517  0.433337  0.486534  0.014343
    H   H67   0.566663  0.219517  0.486534  0.006430
    H   H68   0.780483  0.566663  0.486534  0.000433
    H   H69   0.433337  0.219517  0.513466  0.000894
    H   H70   0.219517  0.566663  0.513466  0.014562
    H   H71   0.566663  0.780483  0.513466  0.006338
    H   H72   0.780483  0.433337  0.513466  0.000463
    H   H73   0.933337  0.280483  0.986534  -0.003850
    H   H74   0.719517  0.933337  0.986534  -0.001557
    H   H75   0.066663  0.719517  0.986534  0.116345
    H   H76   0.280483  0.066663  0.986534  0.052350
    H   H77   0.933337  0.719517  0.013466  -0.003195
    H   H78   0.719517  0.066663  0.013466  -0.001504
    H   H79   0.066663  0.280483  0.013466  0.116151
    H   H80   0.280483  0.933337  0.013466  0.049565
    C   C185  0.462916  0.843712  0.492299  0.003400
    C   C186  0.156288  0.462916  0.492299  -0.017127
    C   C187  0.537085  0.156288  0.492299  -0.004771
    C   C188  0.843712  0.537085  0.492299  0.014895
    C   C189  0.462916  0.156288  0.507701  0.003664
    C   C190  0.156288  0.537085  0.507701  -0.017065
    C   C191  0.537085  0.843712  0.507701  -0.004987
    C   C192  0.843712  0.462916  0.507701  0.014980
    C   C193  0.962916  0.343712  0.992299  0.041032
    C   C194  0.656288  0.962916  0.992299  -0.022461
    C   C195  0.037085  0.656288  0.992299  -0.291873
    C   C196  0.343712  0.037085  0.992299  0.045347
    C   C197  0.962915  0.656288  0.007701  0.041952
    C   C198  0.656288  0.037085  0.007701  -0.022179
    C   C199  0.037085  0.343712  0.007701  -0.292697
    C   C200  0.343712  0.962915  0.007701  0.046209
    H   H81   0.433411  0.860961  0.486251  0.002000
    H   H82   0.139039  0.433411  0.486251  0.112255
    H   H83   0.566589  0.139039  0.486251  0.006961
    H   H84   0.860961  0.566589  0.486251  0.008585
    H   H85   0.433411  0.139039  0.513749  0.001940
    H   H86   0.139039  0.566589  0.513749  0.112368
    H   H87   0.566589  0.860961  0.513749  0.006991
    H   H88   0.860961  0.433411  0.513749  0.008560
    H   H89   0.933411  0.360961  0.986251  -0.031652
    H   H90   0.639039  0.933411  0.986251  0.006432
    H   H91   0.066589  0.639039  0.986251  0.229185
    H   H92   0.360961  0.066589  0.986251  -0.004498
    H   H93   0.933411  0.639039  0.013749  -0.031738
    H   H94   0.639039  0.066589  0.013749  0.006387
    H   H95   0.066589  0.360961  0.013749  0.229164
    H   H96   0.360961  0.933411  0.013749  -0.004632
    C   C201  0.500000  0.866909  0.500000  -0.000800
    C   C202  0.133091  0.500000  0.500000  0.139353
    C   C203  0.500000  0.133091  0.500000  -0.001061
    C   C204  0.866909  0.500000  0.500000  -0.071644
    C   C205  0.000000  0.366909  0.000000  0.064302
    C   C206  0.633091  0.000000  0.000000  0.041020
    C   C207  0.000000  0.633091  0.000000  0.063866
    C   C208  0.366909  0.000000  0.000000  -0.029156
    C   C209  0.500000  0.774661  0.500000  0.004618
    C   C210  0.225339  0.500000  0.500000  0.094321
    C   C211  0.500000  0.225339  0.500000  0.005043
    C   C212  0.774661  0.500000  0.500000  0.012622
    C   C213  0.000000  0.274661  0.000000  0.040415
    C   C214  0.725339  0.000000  0.000000  -0.031173
    C   C215  0.000000  0.725339  0.000000  0.043587
    C   C216  0.274661  0.000000  0.000000  0.153213
    C   C217  0.517976  0.702723  0.519296  -0.000476
    C   C218  0.297277  0.517976  0.519296  -0.037978
    C   C219  0.482024  0.297277  0.519296  -0.000360
    C   C220  0.702723  0.482024  0.519296  0.004815
    C   C221  0.517976  0.297277  0.480704  -0.000890
    C   C222  0.297277  0.482024  0.480704  -0.037574
    C   C223  0.482024  0.702723  0.480704  -0.000309
    C   C224  0.702723  0.517976  0.480704  0.004933
    C   C225  0.017976  0.202723  0.019296  0.038683
    C   C226  0.797277  0.017976  0.019296  0.028613
    C   C227  0.982024  0.797277  0.019296  -0.175751
    C   C228  0.202723  0.982024  0.019296  -0.322919
    C   C229  0.017976  0.797277  0.980704  0.038112
    C   C230  0.797277  0.982024  0.980704  0.030181
    C   C231  0.982024  0.202723  0.980704  -0.173354
    C   C232  0.202723  0.017976  0.980704  -0.347985
    H   H97   0.532151  0.720708  0.534439  -0.000542
    H   H98   0.279292  0.532151  0.534439  0.019190
    H   H99   0.467849  0.279292  0.534439  -0.003233
    H   H100  0.720708  0.467849  0.534439  -0.002792
    H   H101  0.532151  0.279292  0.465561  -0.000420
    H   H102  0.279292  0.467849  0.465561  0.019021
    H   H103  0.467849  0.720708  0.465561  -0.003249
    H   H104  0.720708  0.532151  0.465561  -0.002826
    H   H105  0.032151  0.220708  0.034439  0.066967
    H   H106  0.779292  0.032151  0.034439  -0.021667
    H   H107  0.967849  0.779292  0.034439  0.111633
    H   H108  0.220708  0.967849  0.034439  0.039287
    H   H109  0.032151  0.779292  0.965561  0.067734
    H   H110  0.779292  0.967849  0.965561  -0.021769
    H   H111  0.967849  0.220708  0.965561  0.110641
    H   H112  0.220708  0.032151  0.965561  0.049503
    C   C233  0.518898  0.656822  0.519258  0.006824
    C   C234  0.343178  0.518898  0.519258  0.040641
    C   C235  0.481102  0.343178  0.519258  0.017505
    C   C236  0.656822  0.481102  0.519258  -0.005963
    C   C237  0.518898  0.343178  0.480742  0.007059
    C   C238  0.343178  0.481102  0.480742  0.040631
    C   C239  0.481102  0.656822  0.480742  0.017435
    C   C240  0.656822  0.518898  0.480742  -0.006205
    C   C241  0.018898  0.156822  0.019258  0.275794
    C   C242  0.843178  0.018898  0.019258  0.039225
    C   C243  0.981102  0.843178  0.019258  -0.160020
    C   C244  0.156822  0.981102  0.019258  0.297913
    C   C245  0.018898  0.843178  0.980742  0.281821
    C   C246  0.843178  0.981102  0.980742  0.039061
    C   C247  0.981102  0.156822  0.980742  -0.166460
    C   C248  0.156822  0.018898  0.980742  0.355468
    C   C249  0.500000  0.633387  0.500000  -0.017973
    C   C250  0.366613  0.500000  0.500000  -0.032801
    C   C251  0.500000  0.366613  0.500000  -0.018029
    C   C252  0.633387  0.500000  0.500000  0.021060
    C   C253  0.000000  0.133387  0.000000  -0.022639
    C   C254  0.866613  0.000000  0.000000  -0.170623
    C   C255  0.000000  0.866613  0.000000  -0.021133
    C   C256  0.133387  0.000000  0.000000  -0.156748
    C   C257  0.500000  0.725844  0.500000  -0.002218
    C   C258  0.274156  0.500000  0.500000  0.031151
    C   C259  0.500000  0.274156  0.500000  -0.002188
    C   C260  0.725844  0.500000  0.500000  -0.013646
    C   C261  0.000000  0.225844  0.000000  -0.014948
    C   C262  0.774156  0.000000  0.000000  0.016502
    C   C263  0.000000  0.774156  0.000000  -0.017196
    C   C264  0.225844  0.000000  0.000000  0.131343
    N   N9    0.541243  0.634526  0.538687  -0.013072
    O   O65   0.569934  0.603454  0.533787  0.003324
    O   O66   0.541621  0.652520  0.560207  0.008017
    N   N10   0.365474  0.541243  0.538687  -0.042453
    O   O67   0.396547  0.569934  0.533787  0.009000
    O   O68   0.347480  0.541621  0.560207  0.025478
    N   N11   0.458757  0.365474  0.538687  -0.029107
    O   O69   0.430067  0.396547  0.533787  0.013294
    O   O70   0.458379  0.347480  0.560207  0.014618
    N   N12   0.634526  0.458757  0.538687  -0.006237
    O   O71   0.603454  0.430067  0.533787  0.003331
    O   O72   0.652520  0.458379  0.560207  0.007288
    N   N13   0.541243  0.365474  0.461313  -0.013064
    O   O73   0.569934  0.396547  0.466213  0.003294
    O   O74   0.541621  0.347480  0.439793  0.008029
    N   N14   0.365474  0.458757  0.461313  -0.042744
    O   O75   0.396547  0.430067  0.466213  0.009090
    O   O76   0.347480  0.458379  0.439793  0.025563
    N   N15   0.458757  0.634526  0.461313  -0.029242
    O   O77   0.430067  0.603454  0.466213  0.013278
    O   O78   0.458379  0.652520  0.439793  0.014685
    N   N16   0.634526  0.541243  0.461313  -0.006088
    O   O79   0.603454  0.569934  0.466213  0.003237
    O   O80   0.652520  0.541621  0.439793  0.007287
    N   N17   0.041243  0.134526  0.038687  0.320936
    O   O81   0.069933  0.103453  0.033787  -0.014868
    O   O82   0.041621  0.152520  0.060207  -0.456797
    N   N18   0.865474  0.041243  0.038687  -0.123587
    O   O83   0.896547  0.069933  0.033787  0.093200
    O   O84   0.847480  0.041621  0.060207  0.066607
    N   N19   0.958757  0.865474  0.038687  0.067573
    O   O85   0.930067  0.896547  0.033787  0.116828
    O   O86   0.958379  0.847480  0.060207  -0.034695
    N   N20   0.134526  0.958757  0.038687  0.200639
    O   O87   0.103453  0.930067  0.033787  -0.256259
    O   O88   0.152520  0.958379  0.060207  0.028554
    N   N21   0.041243  0.865474  0.961313  0.308463
    O   O89   0.069933  0.896547  0.966213  -0.011717
    O   O90   0.041621  0.847480  0.939793  -0.454256
    N   N22   0.865474  0.958757  0.961313  -0.129917
    O   O91   0.896547  0.930067  0.966213  0.097252
    O   O92   0.847480  0.958379  0.939793  0.067770
    N   N23   0.958757  0.134526  0.961313  0.077519
    O   O93   0.930067  0.103453  0.966213  0.111543
    O   O94   0.958379  0.152520  0.939793  -0.036240
    N   N24   0.134526  0.041243  0.961313  0.150032
    O   O95   0.103453  0.069933  0.966213  -0.241513
    O   O96   0.152520  0.041621  0.939793  0.029029
