# Generated by REPEAT Assigner based on pymatgen
data_DB0-m2_o13_o15_f0_pcu.sym.8
_audit_creation_date              2022-05-24
_audit_creation_method            REPEAT_Assigner
_cell_length_a                    10.863210
_cell_length_b                    12.975933
_cell_length_c                    11.532840
_cell_angle_alpha                 99.709011
_cell_angle_beta                  94.311556
_cell_angle_gamma                 89.995991
_cell_volume                      1597.721613
_symmetry_space_group_name_H-M    P1
_symmetry_Int_Tables_number       1
loop_
    _symmetry_equiv_pos_site_id
    _symmetry_equiv_pos_as_xyz
    1  x,y,z
loop_
    _atom_site_type_symbol
    _atom_site_label
    _atom_site_fract_x
    _atom_site_fract_y
    _atom_site_fract_z
    _atom_type_partial_charge
    O   O1   0.511747  0.355463  0.584327  -0.560196
    O   O2   0.487855  0.644579  0.414753  -0.563046
    O   O3   0.486441  0.341552  0.382873  -0.532232
    O   O4   0.512253  0.658505  0.617053  -0.532607
    C   C1   0.498693  0.299620  0.478705  0.630059
    C   C2   0.500674  0.700495  0.521097  0.630630
    O   O5   0.328472  0.509755  0.600304  -0.624835
    O   O6   0.670584  0.490020  0.398898  -0.614738
    O   O7   0.312693  0.488995  0.397621  -0.614226
    O   O8   0.686400  0.511703  0.601739  -0.608830
    C   C3   0.262820  0.499297  0.498958  0.860990
    C   C4   0.736173  0.501600  0.500255  0.848578
    Cu  Cu1  0.508496  0.508391  0.617191  0.823834
    Cu  Cu2  0.490749  0.491237  0.382091  0.814186
    H   H1   0.095386  0.160982  0.316048  0.069020
    H   H2   0.905557  0.840031  0.686430  0.070214
    C   C5   0.135530  0.679496  0.599973  -0.224609
    C   C6   0.864170  0.321063  0.400940  -0.219772
    C   C7   0.077210  0.768310  0.649272  0.059353
    C   C8   0.922979  0.232267  0.352099  0.054994
    C   C9   0.951122  0.769500  0.648920  -0.023139
    C   C10  0.049128  0.231337  0.352841  -0.018234
    C   C11  0.882691  0.681779  0.598930  -0.295665
    C   C12  0.117073  0.319431  0.401424  -0.301326
    C   C13  0.940373  0.590336  0.550509  0.229556
    C   C14  0.058998  0.410889  0.448918  0.239394
    C   C15  0.068218  0.589386  0.550499  0.179163
    C   C16  0.931171  0.411692  0.449118  0.170754
    C   C17  0.871580  0.501311  0.499864  -0.383493
    C   C18  0.127645  0.499869  0.499314  -0.392375
    H   H3   0.234685  0.683946  0.602153  0.155937
    H   H4   0.765034  0.315910  0.399868  0.154022
    H   H5   0.783639  0.688499  0.597713  0.174168
    H   H6   0.216017  0.312753  0.401782  0.177106
    C   C19  0.502353  0.814750  0.533372  -0.044437
    C   C20  0.497461  0.185121  0.467513  -0.042203
    C   C21  0.483098  0.015783  0.346387  -0.112820
    C   C22  0.517706  0.983905  0.655150  -0.116477
    C   C23  0.484870  0.123145  0.357276  -0.068975
    C   C24  0.515371  0.876279  0.644134  -0.066494
    C   C25  0.508444  0.138097  0.566998  -0.219875
    C   C26  0.491544  0.861860  0.434323  -0.212936
    C   C27  0.506611  0.030484  0.555922  0.136425
    C   C28  0.493681  0.969349  0.445702  0.127401
    H   H7   0.481479  0.815395  0.347070  0.128473
    H   H8   0.517985  0.184783  0.654133  0.130308
    H   H9   0.524102  0.841332  0.723122  0.077108
    H   H10  0.475928  0.157752  0.278441  0.076655
    H   H11  0.473303  0.968527  0.259360  0.104478
    H   H12  0.528608  0.031747  0.741752  0.103716
    N   N1   0.522423  0.519606  0.792878  -0.035328
    N   N2   0.475895  0.480404  0.206587  -0.024893
    C   C29  0.388297  0.400148  0.019520  -0.086355
    C   C30  0.614081  0.597161  0.979694  -0.095460
    C   C31  0.397342  0.410096  0.140403  -0.010544
    C   C32  0.603361  0.587817  0.858461  -0.004064
    C   C33  0.549394  0.540455  0.156002  -0.086331
    C   C34  0.453707  0.455673  0.843855  -0.076152
    C   C35  0.542054  0.534142  0.034388  0.166421
    C   C36  0.461117  0.462817  0.965381  0.146392
    H   H13  0.392428  0.399756  0.788110  0.126758
    H   H14  0.612160  0.594116  0.212919  0.126071
    H   H15  0.660039  0.636557  0.815886  0.127908
    H   H16  0.338698  0.362151  0.181942  0.128336
    Cl  Cl1  0.281099  0.308345  0.940199  -0.024215
    Cl  Cl2  0.718147  0.691182  0.059941  -0.021922
    Cl  Cl3  0.163860  0.880647  0.710419  -0.095132
    Cl  Cl4  0.836828  0.119828  0.289825  -0.094474
