# Generated by REPEAT Assigner based on pymatgen
data_DB0-m2_o10_o28_f0_pcu.sym.28
_audit_creation_date              2022-05-24
_audit_creation_method            REPEAT_Assigner
_cell_length_a                    23.213190
_cell_length_b                    8.827369
_cell_length_c                    7.454675
_cell_angle_alpha                 103.984371
_cell_angle_beta                  96.135947
_cell_angle_gamma                 90.011022
_cell_volume                      1473.245929
_symmetry_space_group_name_H-M    P1
_symmetry_Int_Tables_number       1
loop_
    _symmetry_equiv_pos_site_id
    _symmetry_equiv_pos_as_xyz
    1  x,y,z
loop_
    _atom_site_type_symbol
    _atom_site_label
    _atom_site_fract_x
    _atom_site_fract_y
    _atom_site_fract_z
    _atom_type_partial_charge
    O   O1   0.500581  0.291933  0.623546  -0.564341
    O   O2   0.497001  0.706921  0.370201  -0.554580
    O   O3   0.492457  0.256640  0.305393  -0.450151
    O   O4   0.505528  0.742380  0.688201  -0.454438
    C   C1   0.495497  0.201588  0.452789  0.702944
    C   C2   0.501032  0.796962  0.539938  0.686726
    O   O5   0.416943  0.525662  0.638971  -0.616232
    O   O6   0.581078  0.474312  0.357141  -0.610667
    O   O7   0.412831  0.477226  0.318828  -0.569363
    O   O8   0.585196  0.521447  0.674363  -0.554006
    C   C3   0.388075  0.502498  0.473811  0.665978
    C   C4   0.610202  0.496489  0.520654  0.671013
    Cu  Cu1  0.501621  0.520212  0.681796  0.825087
    Cu  Cu2  0.496108  0.479510  0.312785  0.840050
    C   C5   0.886773  0.611831  0.630691  0.401955
    C   C6   0.113318  0.389469  0.365022  0.346434
    N   N1   0.854257  0.488285  0.529885  -0.059081
    N   N2   0.146032  0.511440  0.468408  -0.016071
    C   C7   0.878709  0.366810  0.419738  0.316757
    C   C8   0.121913  0.632670  0.579689  0.274990
    C   C9   0.938283  0.364636  0.415092  -0.100649
    C   C10  0.062503  0.635250  0.585464  -0.016719
    C   C11  0.971198  0.495495  0.508846  0.129988
    C   C12  0.029426  0.504850  0.491102  0.005688
    C   C13  0.945401  0.618591  0.618099  -0.150379
    C   C14  0.054964  0.382804  0.379207  -0.058636
    C   C15  0.965143  0.237765  0.311269  0.033915
    C   C16  0.035952  0.762053  0.690469  -0.034396
    C   C17  0.023062  0.250082  0.289123  -0.097212
    C   C18  0.977511  0.751676  0.707735  -0.013166
    O   O9   0.861351  0.733178  0.735432  -0.454168
    O   O10  0.138247  0.269445  0.256064  -0.448636
    O   O11  0.844611  0.250632  0.310474  -0.321639
    O   O12  0.156081  0.749921  0.686037  -0.332526
    H   H1   0.044680  0.152593  0.208817  0.155343
    H   H2   0.956074  0.850684  0.785699  0.136186
    C   C19  0.231114  0.451028  0.301520  -0.165189
    C   C20  0.768097  0.547448  0.693986  -0.142269
    H   H3   0.203121  0.411648  0.172502  0.139056
    H   H4   0.794697  0.585499  0.825472  0.126517
    C   C21  0.290777  0.450441  0.301810  -0.066840
    C   C22  0.708472  0.547040  0.692174  -0.064502
    H   H5   0.311071  0.406540  0.176053  0.102035
    H   H6   0.688826  0.589935  0.819055  0.101701
    C   C23  0.325468  0.504284  0.466185  -0.053671
    C   C24  0.673499  0.494484  0.527375  -0.063579
    C   C25  0.301659  0.557618  0.629926  -0.074705
    C   C26  0.698677  0.443749  0.363807  -0.091999
    H   H7   0.329561  0.597384  0.758587  0.104982
    H   H8   0.672151  0.405502  0.232214  0.109765
    C   C27  0.242571  0.562509  0.629611  -0.132535
    C   C28  0.757960  0.439842  0.365626  -0.113729
    H   H9   0.224288  0.604552  0.759148  0.102806
    H   H10  0.776832  0.399287  0.236551  0.106457
    C   C29  0.207156  0.509131  0.465880  0.152628
    C   C30  0.792910  0.491164  0.530484  0.148756
    C   C31  0.495710  0.030854  0.422702  -0.269416
    C   C32  0.501600  0.966754  0.566722  -0.242233
    H   H11  0.491462  0.955848  0.282237  0.203403
    H   H12  0.506290  0.041016  0.706479  0.195674
    N   N3   0.493823  0.447850  0.036875  -0.012220
    N   N4   0.505058  0.551667  0.958021  0.000933
    C   C33  0.935281  0.086018  0.235175  0.532816
    O   O13  0.895589  0.046738  0.310074  -0.420445
    O   O14  0.957516  0.977854  0.092743  -0.458779
    H   H13  0.934176  0.876329  0.063509  0.341636
    C   C34  0.067213  0.910232  0.779008  0.538681
    O   O15  0.050321  0.994851  0.917053  -0.448580
    O   O16  0.110885  0.964376  0.694263  -0.484317
    H   H14  0.125503  0.071594  0.768791  0.387116
    C   C35  0.460226  0.318207  0.926662  0.509821
    O   O17  0.455993  0.201855  0.985419  -0.437094
    O   O18  0.424350  0.331923  0.771080  -0.302270
    H   H15  0.399247  0.233666  0.725859  0.330848
    C   C36  0.541646  0.678676  0.064767  0.489015
    O   O19  0.546018  0.796601  0.008274  -0.429508
    O   O20  0.575014  0.668053  0.227741  -0.314490
    H   H16  0.598000  0.768268  0.288669  0.347726
