# Generated by REPEAT Assigner based on pymatgen
data_DB0-m3_o470_o6_f0_fsc.sym.8_sqe
_audit_creation_date              2022-05-24
_audit_creation_method            REPEAT_Assigner
_cell_length_a                    11.038700
_cell_length_b                    14.329470
_cell_length_c                    8.569998
_cell_angle_alpha                 90.000000
_cell_angle_beta                  102.412712
_cell_angle_gamma                 90.000000
_cell_volume                      1323.903818
_symmetry_space_group_name_H-M    P1
_symmetry_Int_Tables_number       1
loop_
    _symmetry_equiv_pos_site_id
    _symmetry_equiv_pos_as_xyz
    1  x,y,z
loop_
    _atom_site_type_symbol
    _atom_site_label
    _atom_site_fract_x
    _atom_site_fract_y
    _atom_site_fract_z
    _atom_type_partial_charge
    C   C1   0.255053  0.025237  0.076828  -0.099357
    C   C2   0.744947  0.974763  0.923172  -0.099275
    C   C3   0.318942  0.034027  0.956430  -0.093769
    C   C4   0.681058  0.965973  0.043570  -0.093741
    C   C5   0.261708  0.016466  0.800704  -0.238714
    C   C6   0.738292  0.983534  0.199296  -0.238650
    C   C7   0.137075  0.996187  0.763604  0.313053
    C   C8   0.862925  0.003813  0.236396  0.312687
    C   C9   0.068042  0.999416  0.881398  -0.072784
    C   C10  0.931958  0.000584  0.118602  -0.072458
    C   C11  0.127586  0.012014  0.039564  -0.040513
    C   C12  0.872414  0.987986  0.960437  -0.040704
    C   C13  0.940563  0.987604  0.842163  0.189782
    C   C14  0.059437  0.012396  0.157838  0.189577
    Zn  Zn1  0.482697  0.897805  0.491840  1.083881
    Zn  Zn2  0.517303  0.102195  0.508160  1.083930
    C   C15  0.527114  0.304682  0.514276  0.334507
    C   C16  0.472886  0.695319  0.485725  0.334492
    H   H1   0.417459  0.046556  0.986411  0.130115
    H   H2   0.582541  0.953444  0.013589  0.130135
    C   C17  0.396874  0.443308  0.474060  0.228554
    C   C18  0.603126  0.556692  0.525940  0.228574
    C   C19  0.617153  0.461055  0.533872  0.217704
    C   C20  0.382847  0.538945  0.466128  0.217726
    O   O1   0.645273  0.067440  0.703613  -0.676880
    O   O2   0.354727  0.932560  0.296387  -0.676943
    O   O3   0.385458  0.092079  0.306977  -0.705988
    O   O4   0.614542  0.907921  0.693024  -0.705912
    N   N1   0.466340  0.775914  0.482776  -0.185312
    N   N2   0.533660  0.224086  0.517224  -0.185362
    C   C21  0.670320  0.982940  0.761052  0.834466
    C   C22  0.329680  0.017060  0.238949  0.834602
    O   O5   0.360386  0.927714  0.628188  -0.685826
    O   O6   0.639614  0.072286  0.371813  -0.685845
    O   O7   0.608581  0.913153  0.355195  -0.701032
    O   O8   0.391419  0.086847  0.644805  -0.701001
    C   C23  0.337616  0.010546  0.680559  0.897836
    C   C24  0.662384  0.989454  0.319441  0.897812
    C   C25  0.513953  0.404345  0.508005  -0.210703
    C   C26  0.486047  0.595655  0.491996  -0.210744
    F   F1   0.267826  0.577062  0.433108  -0.121194
    F   F2   0.732174  0.422938  0.566893  -0.121184
    F   F3   0.704534  0.612540  0.551705  -0.119826
    F   F4   0.295466  0.387460  0.448295  -0.119820
    F   F5   0.084167  0.973548  0.611119  -0.162095
    F   F6   0.915833  0.026453  0.388882  -0.161844
    F   F7   0.117125  0.026271  0.312337  -0.115950
    F   F8   0.882875  0.973729  0.687663  -0.116007
