# generated using pymatgen
data_ZnH9C15NO5
_symmetry_space_group_name_H-M   'P 1'
_cell_length_a   12.36505500
_cell_length_b   14.24995100
_cell_length_c   6.61058400
_cell_angle_alpha   90.00000000
_cell_angle_beta   80.20941300
_cell_angle_gamma   90.00000000
_symmetry_Int_Tables_number   1
_chemical_formula_structural   ZnH9C15NO5
_chemical_formula_sum   'Zn2 H18 C30 N2 O10'
_cell_volume   1147.83009861
_cell_formula_units_Z   2
loop_
 _symmetry_equiv_pos_site_id
 _symmetry_equiv_pos_as_xyz
  1  'x, y, z'
loop_
 _atom_site_type_symbol
 _atom_site_label
 _atom_site_symmetry_multiplicity
 _atom_site_fract_x
 _atom_site_fract_y
 _atom_site_fract_z
 _atom_site_occupancy
  Zn  Zn1  1  0.50118400  0.10655500  0.51138000  1
  Zn  Zn2  1  0.49530700  0.89652000  0.48467500  1
  H  H1  1  0.14935700  0.05372400  0.46872900  1
  H  H2  1  0.22108000  0.95590900  0.60311400  1
  H  H3  1  0.04665200  0.94535000  0.47341200  1
  H  H4  1  0.85268100  0.95881500  0.52677700  1
  H  H5  1  0.97693200  0.04827700  0.34752400  1
  H  H6  1  0.84404400  0.02483400  0.25631700  1
  H  H7  1  0.65221800  0.57736000  0.28515500  1
  H  H8  1  0.65241600  0.41938400  0.29210400  1
  H  H9  1  0.50070200  0.43051900  0.82652300  1
  H  H10  1  0.48501900  0.58762400  0.80321900  1
  H  H11  1  0.63512700  0.43308400  0.66648400  1
  H  H12  1  0.62459400  0.59196600  0.66378700  1
  H  H13  1  0.34542800  0.41395000  0.39334000  1
  H  H14  1  0.34364300  0.57233700  0.36499200  1
  H  H15  1  0.33455600  0.42444100  0.66852300  1
  H  H16  1  0.32884700  0.58128100  0.64046300  1
  H  H17  1  0.56684800  0.35782800  0.02157000  1
  H  H18  1  0.57370500  0.62757000  0.99767600  1
  C  C1  1  0.24554800  0.01723400  0.18110800  1
  C  C2  1  0.14848100  0.03627600  0.31000200  1
  C  C3  1  0.05004500  0.03194300  0.24029500  1
  C  C4  1  0.24435400  0.99697600  0.97662500  1
  C  C5  1  0.14500400  0.99044000  0.90800700  1
  C  C6  1  0.04720200  0.00682500  0.03923000  1
  C  C7  1  0.94846200  0.00006800  0.96616800  1
  C  C8  1  0.84898900  0.01286100  0.09446500  1
  C  C9  1  0.75143800  0.00595000  0.02139100  1
  C  C10  1  0.14444600  0.96887500  0.70505400  1
  C  C11  1  0.04663900  0.96292800  0.63243800  1
  C  C12  1  0.94877900  0.97841900  0.76266300  1
  C  C13  1  0.85124900  0.97282700  0.68793600  1
  C  C14  1  0.75205400  0.98707800  0.81571400  1
  C  C15  1  0.34463800  0.01162800  0.27295100  1
  C  C16  1  0.34449800  0.99702900  0.82233800  1
  C  C17  1  0.65254100  0.99168300  0.72313800  1
  C  C18  1  0.65137400  0.00592700  0.17413800  1
  C  C19  1  0.56691900  0.44491500  0.30256600  1
  C  C20  1  0.56718700  0.55110500  0.29281300  1
  C  C21  1  0.54823000  0.45513000  0.67899500  1
  C  C22  1  0.54184100  0.56108800  0.66895100  1
  C  C23  1  0.49996100  0.41323700  0.50409000  1
  C  C24  1  0.49554300  0.58996600  0.48194400  1
  C  C25  1  0.37989000  0.55189500  0.50061800  1
  C  C26  1  0.38235300  0.44601100  0.51834200  1
  C  C27  1  0.49334300  0.69249500  0.47169500  1
  C  C28  1  0.50240400  0.31073800  0.51537300  1
  C  C29  1  0.51874000  0.40527000  0.12949200  1
  C  C30  1  0.52347300  0.58312200  0.10929300  1
  N  N1  1  0.49232900  0.77366200  0.46794400  1
  N  N2  1  0.50366400  0.22959900  0.52100600  1
  O  O1  1  0.37918700  0.92802300  0.31583800  1
  O  O2  1  0.38267200  0.08940100  0.34015200  1
  O  O3  1  0.38429200  0.07899700  0.75590300  1
  O  O4  1  0.37813500  0.91751200  0.73253300  1
  O  O5  1  0.61725300  0.07500200  0.68091800  1
  O  O6  1  0.61386500  0.91383200  0.65674400  1
  O  O7  1  0.61214900  0.92392200  0.24083000  1
  O  O8  1  0.61831400  0.08560000  0.26417600  1
  O  O9  1  0.42483100  0.42464900  0.11146700  1
  O  O10  1  0.43005500  0.56258400  0.09008000  1
