# Generated by REPEAT Assigner based on pymatgen
data_DB0-m29_o80_o87_f0_pts.sym.11
_audit_creation_date              2022-05-24
_audit_creation_method            REPEAT_Assigner
_cell_length_a                    14.264636
_cell_length_b                    8.779392
_cell_length_c                    12.823708
_cell_angle_alpha                 74.831190
_cell_angle_beta                  92.332970
_cell_angle_gamma                 108.651580
_cell_volume                      1466.992848
_symmetry_space_group_name_H-M    P1
_symmetry_Int_Tables_number       1
loop_
    _symmetry_equiv_pos_site_id
    _symmetry_equiv_pos_as_xyz
    1  x,y,z
loop_
    _atom_site_type_symbol
    _atom_site_label
    _atom_site_fract_x
    _atom_site_fract_y
    _atom_site_fract_z
    _atom_type_partial_charge
    H   H1   0.915463  0.247948  0.269943  0.179447
    C   C1   0.705241  0.851384  0.877719  -0.107127
    C   C2   0.745998  0.745592  0.848676  -0.307406
    C   C3   0.841669  0.785124  0.881836  0.517906
    N   N1   0.860759  0.906222  0.933613  -0.548585
    C   C4   0.776615  0.945827  0.931661  0.473773
    C   C5   0.907615  0.721745  0.855900  -0.433029
    C   C6   0.014460  0.792741  0.867102  0.399035
    C   C7   0.086181  0.804514  0.793667  -0.163846
    C   C8   0.176698  0.873591  0.834040  -0.241185
    C   C9   0.156174  0.900155  0.931287  0.350776
    N   N2   0.057108  0.851681  0.950455  -0.426033
    C   C10  0.230440  0.971877  0.002967  -0.304752
    C   C11  0.215566  0.072726  0.057112  0.461878
    C   C12  0.285640  0.161911  0.115127  -0.114258
    C   C13  0.243640  0.262695  0.148395  -0.315857
    C   C14  0.148909  0.226719  0.112734  0.545979
    N   N3   0.131350  0.112053  0.055844  -0.559273
    C   C15  0.082247  0.286718  0.141073  -0.431610
    C   C16  0.976552  0.223945  0.122739  0.424805
    C   C17  0.904182  0.214234  0.194032  -0.270681
    C   C18  0.815106  0.147678  0.151674  -0.206423
    C   C19  0.836434  0.121526  0.054887  0.379279
    N   N4   0.935608  0.167222  0.037956  -0.414241
    C   C20  0.762492  0.050082  0.983197  -0.339163
    H   H2   0.712354  0.658340  0.801398  0.177898
    H   H3   0.882338  0.629100  0.810585  0.203651
    H   H4   0.302390  0.955365  0.004525  0.207419
    H   H5   0.276104  0.345039  0.199178  0.182445
    H   H6   0.104571  0.368220  0.194464  0.186449
    H   H7   0.690346  0.065691  0.982641  0.212591
    H   H8   0.019984  0.849931  0.019300  0.326253
    H   H9   0.973749  0.167132  0.970393  0.324377
    O   O1   0.635269  0.055720  0.162059  -0.674476
    C   C21  0.719623  0.104785  0.208358  0.746813
    O   O2   0.611481  0.785091  0.351290  -0.459866
    O   O3   0.719399  0.117192  0.308013  -0.458951
    O   O4   0.473501  0.843390  0.385711  -0.579987
    C   C22  0.528098  0.744002  0.407325  0.524080
    Fe  Fe1  0.523915  0.035047  0.257627  1.484178
    O   O5   0.403345  0.011440  0.168973  -0.649912
    O   O6   0.445127  0.279968  0.175802  -0.571597
    C   C23  0.383779  0.152966  0.146741  0.649847
    O   O7   0.580186  0.238923  0.312108  -0.662993
    O   O8   0.437831  0.123456  0.416905  -0.520573
    C   C24  0.519946  0.247394  0.383209  1.005262
    C   C25  0.532388  0.410466  0.400966  -0.349775
    C   C26  0.497934  0.426496  0.491487  0.060389
    C   C27  0.497592  0.593569  0.499730  0.024948
    C   C28  0.462759  0.609307  0.590120  -0.307055
    H   H10  0.431536  0.504359  0.658166  0.212218
    H   H11  0.564043  0.515750  0.333202  0.202373
    O   O9   0.588694  0.004072  0.822953  -0.640142
    O   O10  0.545734  0.735300  0.816015  -0.571918
    C   C29  0.607530  0.861833  0.845160  0.638337
    O   O11  0.412660  0.780364  0.677186  -0.655457
    O   O12  0.556583  0.896037  0.575107  -0.489546
    C   C30  0.474158  0.772163  0.607361  0.934908
    O   O13  0.383485  0.236379  0.639663  -0.498507
    O   O14  0.356889  0.962083  0.827848  -0.676568
    C   C31  0.273663  0.917951  0.778716  0.739911
    O   O15  0.520740  0.175681  0.605777  -0.591956
    C   C32  0.466792  0.276114  0.583844  0.537561
    O   O16  0.277285  0.912157  0.677997  -0.378865
    Fe  Fe2  0.468919  0.983057  0.732995  1.472691
    C   C33  0.067945  0.755148  0.689578  0.192513
    C   C34  0.093352  0.597202  0.698875  -0.235349
    H   H12  0.169733  0.612137  0.725950  0.067992
    H   H13  0.040952  0.492684  0.758773  0.033021
    H   H14  0.086720  0.568518  0.619126  0.074105
    H   H15  0.989301  0.731547  0.669687  -0.016178
    H   H16  0.111141  0.857131  0.621520  0.018032
