# Generated by REPEAT Assigner based on pymatgen
data_DB0-m1_o9_o17_f0_pcu_sqe
_audit_creation_date              2022-05-24
_audit_creation_method            REPEAT_Assigner
_cell_length_a                    25.976228
_cell_length_b                    34.320154
_cell_length_c                    21.520720
_cell_angle_alpha                 90.000000
_cell_angle_beta                  127.113000
_cell_angle_gamma                 90.000000
_cell_volume                      15299.737373
_symmetry_space_group_name_H-M    P1
_symmetry_Int_Tables_number       1
loop_
    _symmetry_equiv_pos_site_id
    _symmetry_equiv_pos_as_xyz
    1  x,y,z
loop_
    _atom_site_type_symbol
    _atom_site_label
    _atom_site_fract_x
    _atom_site_fract_y
    _atom_site_fract_z
    _atom_type_partial_charge
    Zn  Zn1   0.075652  0.782972  0.565745  1.398374
    Zn  Zn2   0.924348  0.217028  0.434255  1.398246
    Zn  Zn3   0.924348  0.782972  0.434255  1.398242
    Zn  Zn4   0.075652  0.217028  0.565745  1.398375
    Zn  Zn5   0.575652  0.282972  0.565745  1.398373
    Zn  Zn6   0.424348  0.717028  0.434255  1.398248
    Zn  Zn7   0.424348  0.282972  0.434255  1.398241
    Zn  Zn8   0.575652  0.717028  0.565745  1.398378
    Zn  Zn9   0.010536  0.717399  0.434665  1.423453
    Zn  Zn10  0.989464  0.282601  0.565335  1.423372
    Zn  Zn11  0.989464  0.717399  0.565335  1.423374
    Zn  Zn12  0.010536  0.282601  0.434665  1.423452
    Zn  Zn13  0.510536  0.217399  0.434665  1.423453
    Zn  Zn14  0.489464  0.782601  0.565335  1.423367
    Zn  Zn15  0.489464  0.217399  0.565335  1.423366
    Zn  Zn16  0.510536  0.782601  0.434665  1.423452
    O   O1    -0.000000  0.750151  0.500000  -1.678917
    O   O2    -0.000000  0.249849  0.500000  -1.678918
    O   O3    0.500000  0.250151  0.500000  -1.678909
    O   O4    0.500000  0.749849  0.500000  -1.678914
    O   O5    0.991656  0.662574  0.546089  -0.678728
    O   O6    0.008344  0.337426  0.453911  -0.678641
    O   O7    0.008344  0.662574  0.453911  -0.678651
    O   O8    0.991656  0.337426  0.546089  -0.678718
    O   O9    0.491656  0.162574  0.546089  -0.678719
    O   O10   0.508344  0.837426  0.453911  -0.678634
    O   O11   0.508344  0.162574  0.453911  -0.678645
    O   O12   0.491656  0.837426  0.546089  -0.678709
    O   O13   0.054014  0.837678  0.548212  -0.618742
    O   O14   0.945986  0.162322  0.451788  -0.618795
    O   O15   0.945986  0.837678  0.451788  -0.618781
    O   O16   0.054014  0.162322  0.548212  -0.618748
    O   O17   0.554014  0.337678  0.548212  -0.618738
    O   O18   0.445986  0.662322  0.451788  -0.618809
    O   O19   0.445986  0.337678  0.451788  -0.618787
    O   O20   0.554014  0.662322  0.548212  -0.618755
    O   O21   0.091504  0.727573  0.452372  -0.671766
    O   O22   0.908496  0.272427  0.547628  -0.671635
    O   O23   0.908496  0.727573  0.547628  -0.671634
    O   O24   0.091504  0.272427  0.452372  -0.671767
    O   O25   0.591504  0.227573  0.452372  -0.671770
    O   O26   0.408496  0.772427  0.547628  -0.671638
    O   O27   0.408496  0.227573  0.547628  -0.671634
    O   O28   0.591504  0.772427  0.452372  -0.671772
    O   O29   0.862361  0.774563  0.454408  -0.622049
    O   O30   0.137638  0.225437  0.545592  -0.622186
    O   O31   0.137638  0.774563  0.545592  -0.622184
    O   O32   0.862361  0.225437  0.454408  -0.622050
    O   O33   0.362361  0.274563  0.454408  -0.622045
    O   O34   0.637638  0.725437  0.545592  -0.622189
    O   O35   0.637638  0.274563  0.545592  -0.622189
    O   O36   0.362361  0.725437  0.454408  -0.622051
    O   O37   0.943012  0.726287  0.325028  -0.698224
    O   O38   0.056987  0.273713  0.674972  -0.698095
    O   O39   0.056987  0.726287  0.674972  -0.698095
    O   O40   0.943012  0.273713  0.325028  -0.698225
    O   O41   0.443012  0.226287  0.325028  -0.698226
    O   O42   0.556987  0.773713  0.674972  -0.698096
    O   O43   0.556987  0.226287  0.674972  -0.698094
    O   O44   0.443012  0.773713  0.325028  -0.698227
    O   O45   0.881201  0.773158  0.324821  -0.718547
    O   O46   0.118799  0.226842  0.675179  -0.718578
    O   O47   0.118799  0.773158  0.675179  -0.718580
    O   O48   0.881201  0.226842  0.324821  -0.718546
    O   O49   0.381201  0.273158  0.324821  -0.718550
    O   O50   0.618799  0.726842  0.675179  -0.718577
    O   O51   0.618799  0.273158  0.675179  -0.718578
    O   O52   0.381201  0.726842  0.324821  -0.718545
    C   C1    -0.000000  0.643434  0.500000  0.576187
    C   C2    -0.000000  0.356566  0.500000  0.576172
    C   C3    0.500000  0.143434  0.500000  0.576178
    C   C4    0.500000  0.856566  0.500000  0.576163
    C   C5    -0.000000  0.856788  0.500000  0.474159
    C   C6    -0.000000  0.143212  0.500000  0.474175
    C   C7    0.500000  0.356788  0.500000  0.474154
    C   C8    0.500000  0.643212  0.500000  0.474189
    C   C9    0.139198  0.751809  0.497796  0.529601
    C   C10   0.860801  0.248191  0.502204  0.529394
    C   C11   0.860801  0.751809  0.502204  0.529395
    C   C12   0.139198  0.248191  0.497796  0.529602
    C   C13   0.639198  0.251809  0.497796  0.529608
    C   C14   0.360801  0.748191  0.502204  0.529393
    C   C15   0.360801  0.251809  0.502204  0.529388
    C   C16   0.639198  0.748191  0.497796  0.529608
    C   C17   0.892815  0.749565  0.286670  0.625419
    C   C18   0.107184  0.250435  0.713330  0.625216
    C   C19   0.107184  0.749565  0.713330  0.625217
    C   C20   0.892815  0.250435  0.286670  0.625417
    C   C21   0.392815  0.249565  0.286670  0.625423
    C   C22   0.607184  0.750435  0.713330  0.625217
    C   C23   0.607184  0.249565  0.713330  0.625218
    C   C24   0.392815  0.750435  0.286670  0.625418
    C   C25   0.297470  0.725768  0.160799  -0.337815
    C   C26   0.702530  0.274232  0.839201  -0.337912
    C   C27   0.702530  0.725768  0.839201  -0.337913
    C   C28   0.297470  0.274232  0.160799  -0.337815
    C   C29   0.797470  0.225768  0.160799  -0.337814
    C   C30   0.202530  0.774232  0.839201  -0.337916
    C   C31   0.202530  0.225768  0.839201  -0.337914
    C   C32   0.797470  0.774232  0.160799  -0.337814
    C   C33   0.350074  0.750504  0.201298  0.198518
    C   C34   0.649926  0.249496  0.798701  0.198741
    C   C35   0.649926  0.750504  0.798701  0.198743
    C   C36   0.350074  0.249496  0.201298  0.198516
    C   C37   0.850074  0.250504  0.201298  0.198519
    C   C38   0.149926  0.749496  0.798701  0.198745
    C   C39   0.149926  0.250504  0.798701  0.198745
    C   C40   0.850074  0.749496  0.201298  0.198517
    C   C41   0.362315  0.775093  0.160745  -0.347316
    C   C42   0.637684  0.224907  0.839255  -0.347531
    C   C43   0.637684  0.775093  0.839255  -0.347532
    C   C44   0.362315  0.224907  0.160745  -0.347315
    C   C45   0.862315  0.275093  0.160745  -0.347316
    C   C46   0.137684  0.724907  0.839255  -0.347532
    C   C47   0.137684  0.275093  0.839255  -0.347532
    C   C48   0.862315  0.724907  0.160745  -0.347315
    C   C49   0.322312  0.774874  0.080357  0.215749
    C   C50   0.677688  0.225126  0.919643  0.215830
    C   C51   0.677688  0.774874  0.919643  0.215835
    C   C52   0.322312  0.225126  0.080357  0.215745
    C   C53   0.822312  0.274874  0.080357  0.215746
    C   C54   0.177688  0.725126  0.919643  0.215828
    C   C55   0.177688  0.274874  0.919643  0.215832
    C   C56   0.822312  0.725126  0.080357  0.215741
    C   C57   0.269958  0.750120  0.040193  -0.018567
    C   C58   0.730041  0.249880  0.959807  -0.018605
    C   C59   0.730041  0.750120  0.959807  -0.018606
    C   C60   0.269958  0.249880  0.040193  -0.018567
    C   C61   0.769958  0.250120  0.040193  -0.018567
    C   C62   0.230041  0.749880  0.959807  -0.018606
    C   C63   0.230041  0.250120  0.959807  -0.018605
    C   C64   0.769958  0.749880  0.040193  -0.018566
    C   C65   0.257537  0.725595  0.080423  0.203225
    C   C66   0.742463  0.274405  0.919577  0.203161
    C   C67   0.742463  0.725595  0.919577  0.203158
    C   C68   0.257537  0.274405  0.080423  0.203229
    C   C69   0.757537  0.225595  0.080423  0.203225
    C   C70   0.242463  0.774405  0.919577  0.203166
    C   C71   0.242463  0.225595  0.919577  0.203160
    C   C72   0.757537  0.774405  0.080423  0.203229
    C   C73   0.334725  0.799410  0.040060  -0.218894
    C   C74   0.665275  0.200590  0.959940  -0.218847
    C   C75   0.665275  0.799410  0.959940  -0.218851
    C   C76   0.334725  0.200590  0.040060  -0.218892
    C   C77   0.834725  0.299410  0.040060  -0.218892
    C   C78   0.165275  0.700590  0.959940  -0.218844
    C   C79   0.165275  0.299410  0.959940  -0.218847
    C   C80   0.834725  0.700590  0.040060  -0.218888
    C   C81   0.294856  0.799178  0.959790  -0.214534
    C   C82   0.705144  0.200822  0.040210  -0.214570
    C   C83   0.705144  0.799178  0.040210  -0.214573
    C   C84   0.294856  0.200822  0.959790  -0.214528
    C   C85   0.794856  0.299178  0.959790  -0.214531
    C   C86   0.205144  0.700822  0.040210  -0.214570
    C   C87   0.205144  0.299178  0.040210  -0.214575
    C   C88   0.794856  0.700822  0.959790  -0.214527
    H   H1    0.287237  0.706346  0.191603  0.173435
    H   H2    0.712762  0.293654  0.808396  0.173485
    H   H3    0.712762  0.706346  0.808396  0.173486
    H   H4    0.287237  0.293654  0.191603  0.173435
    H   H5    0.787237  0.206346  0.191603  0.173435
    H   H6    0.212762  0.793654  0.808396  0.173486
    H   H7    0.212762  0.206346  0.808396  0.173486
    H   H8    0.787237  0.793654  0.191603  0.173434
    H   H9    0.403250  0.794588  0.191520  0.172978
    H   H10   0.596750  0.205412  0.808480  0.173081
    H   H11   0.596750  0.794588  0.808480  0.173081
    H   H12   0.403250  0.205412  0.191520  0.172978
    H   H13   0.903250  0.294588  0.191520  0.172979
    H   H14   0.096750  0.705412  0.808480  0.173082
    H   H15   0.096750  0.294588  0.808480  0.173081
    H   H16   0.903250  0.705412  0.191520  0.172979
    H   H17   0.375681  0.818906  0.071108  0.141714
    H   H18   0.624319  0.181094  0.928892  0.141698
    H   H19   0.624319  0.818906  0.928892  0.141700
    H   H20   0.375681  0.181094  0.071108  0.141713
    H   H21   0.875681  0.318906  0.071108  0.141713
    H   H22   0.124319  0.681094  0.928892  0.141697
    H   H23   0.124319  0.318906  0.928892  0.141699
    H   H24   0.875681  0.681094  0.071108  0.141711
    H   H25   0.304925  0.818506  0.928674  0.140237
    H   H26   0.695075  0.181494  0.071325  0.140237
    H   H27   0.695075  0.818506  0.071325  0.140238
    H   H28   0.304925  0.181494  0.928674  0.140234
    H   H29   0.804925  0.318506  0.928674  0.140235
    H   H30   0.195075  0.681494  0.071325  0.140237
    H   H31   0.195075  0.318506  0.071325  0.140239
    H   H32   0.804925  0.681494  0.928674  0.140233
    C   C89   0.444834  0.580356  0.443742  -0.338943
    C   C90   0.555166  0.419644  0.556258  -0.338991
    C   C91   0.555166  0.580356  0.556258  -0.338987
    C   C92   0.444834  0.419644  0.443742  -0.338964
    C   C93   0.944834  0.080356  0.443742  -0.338962
    C   C94   0.055166  0.919644  0.556258  -0.338956
    C   C95   0.055166  0.080356  0.556258  -0.338987
    C   C96   0.944834  0.919644  0.443742  -0.338932
    C   C97   0.500000  0.600582  0.500000  0.288903
    C   C98   0.500000  0.399418  0.500000  0.288932
    C   C99   -0.000000  0.100582  0.500000  0.288916
    C   C100  -0.000000  0.899418  0.500000  0.288899
    C   C101  0.555158  0.540181  0.556158  0.223676
    C   C102  0.444842  0.459819  0.443842  0.223546
    C   C103  0.444842  0.540181  0.443842  0.223523
    C   C104  0.555158  0.459819  0.556158  0.223682
    C   C105  0.055158  0.040181  0.556158  0.223692
    C   C106  0.944842  0.959819  0.443842  0.223548
    C   C107  0.944842  0.040181  0.443842  0.223584
    C   C108  0.055158  0.959819  0.556158  0.223578
    C   C109  0.500000  0.520090  0.500000  -0.056977
    C   C110  0.500000  0.479910  0.500000  -0.056999
    C   C111  -0.000000  0.020090  0.500000  -0.057022
    C   C112  -0.000000  0.979910  0.500000  -0.056939
    C   C113  0.610361  0.520067  0.612338  -0.220982
    C   C114  0.389638  0.479933  0.387661  -0.220929
    C   C115  0.389638  0.520067  0.387661  -0.220920
    C   C116  0.610361  0.479933  0.612338  -0.220972
    C   C117  0.110361  0.020067  0.612338  -0.221039
    C   C118  0.889638  0.979933  0.387661  -0.220961
    C   C119  0.889638  0.020067  0.387661  -0.220980
    C   C120  0.110361  0.979933  0.612338  -0.220845
    H   H33   0.401431  0.595787  0.399142  0.163933
    H   H34   0.598569  0.404213  0.600857  0.163931
    H   H35   0.598569  0.595787  0.600857  0.163937
    H   H36   0.401431  0.404213  0.399143  0.163924
    H   H37   0.901431  0.095787  0.399142  0.163922
    H   H38   0.098569  0.904213  0.600857  0.163935
    H   H39   0.098569  0.095787  0.600857  0.163934
    H   H40   0.901431  0.904213  0.399142  0.163909
    H   H41   0.653825  0.535622  0.656523  0.141701
    H   H42   0.346175  0.464378  0.343476  0.141741
    H   H43   0.346175  0.535622  0.343476  0.141739
    H   H44   0.653825  0.464378  0.656523  0.141701
    H   H45   0.153825  0.035622  0.656523  0.141717
    H   H46   0.846175  0.964378  0.343476  0.141773
    H   H47   0.846175  0.035622  0.343476  0.141774
    H   H48   0.153825  0.964378  0.656523  0.141649
    H   H49   0.825473  0.925919  0.442380  0.113423
    H   H50   0.174526  0.074081  0.557620  0.113469
    H   H51   0.174526  0.925919  0.557620  0.113467
    H   H52   0.825473  0.074081  0.442380  0.113423
    H   H53   0.325473  0.425919  0.442380  0.113426
    H   H54   0.674526  0.574081  0.557620  0.113470
    H   H55   0.674526  0.425919  0.557620  0.113470
    H   H56   0.325473  0.574081  0.442380  0.113422
    C   C121  0.857750  0.876637  0.517806  0.046040
    C   C122  0.142250  0.123363  0.482194  0.045939
    C   C123  0.142250  0.876637  0.482194  0.045921
    C   C124  0.857750  0.123363  0.517806  0.046052
    C   C125  0.357750  0.376637  0.517806  0.046046
    C   C126  0.642250  0.623363  0.482194  0.045944
    C   C127  0.642250  0.376637  0.482194  0.045939
    C   C128  0.357750  0.623363  0.517806  0.046051
    H   H57   0.903911  0.889542  0.562615  0.052787
    H   H58   0.096089  0.110458  0.437385  0.052811
    H   H59   0.096089  0.889542  0.437385  0.052817
    H   H60   0.903911  0.110458  0.562615  0.052783
    H   H61   0.403911  0.389542  0.562615  0.052786
    H   H62   0.596089  0.610458  0.437385  0.052809
    H   H63   0.596089  0.389542  0.437385  0.052809
    H   H64   0.403911  0.610458  0.562615  0.052784
    C   C129  0.842637  0.839934  0.528392  -0.290423
    C   C130  0.157363  0.160066  0.471608  -0.290285
    C   C131  0.157363  0.839934  0.471608  -0.290268
    C   C132  0.842637  0.160066  0.528392  -0.290438
    C   C133  0.342637  0.339934  0.528392  -0.290437
    C   C134  0.657363  0.660066  0.471608  -0.290293
    C   C135  0.657363  0.339934  0.471608  -0.290281
    C   C136  0.342637  0.660066  0.528392  -0.290441
    H   H65   0.876857  0.824455  0.582094  0.131637
    H   H66   0.123143  0.175545  0.417906  0.131593
    H   H67   0.123143  0.824455  0.417906  0.131587
    H   H68   0.876857  0.175545  0.582094  0.131642
    H   H69   0.376857  0.324455  0.582094  0.131641
    H   H70   0.623143  0.675545  0.417906  0.131595
    H   H71   0.623143  0.324455  0.417906  0.131591
    H   H72   0.376857  0.675545  0.582094  0.131642
    C   C137  0.783781  0.823232  0.470995  0.317646
    C   C138  0.216219  0.176768  0.529005  0.317745
    C   C139  0.216219  0.823232  0.529005  0.317736
    C   C140  0.783781  0.176768  0.470995  0.317660
    C   C141  0.283781  0.323232  0.470995  0.317662
    C   C142  0.716219  0.676768  0.529005  0.317754
    C   C143  0.716219  0.323232  0.529005  0.317741
    C   C144  0.283781  0.676768  0.470995  0.317673
    C   C145  0.739682  0.843959  0.403889  -0.210323
    C   C146  0.260318  0.156041  0.596111  -0.210433
    C   C147  0.260318  0.843959  0.596111  -0.210427
    C   C148  0.739682  0.156041  0.403889  -0.210334
    C   C149  0.239682  0.343959  0.403889  -0.210332
    C   C150  0.760318  0.656041  0.596111  -0.210439
    C   C151  0.760318  0.343959  0.596111  -0.210428
    C   C152  0.239682  0.656041  0.403889  -0.210347
    H   H73   0.693281  0.831361  0.358941  0.122943
    H   H74   0.306719  0.168639  0.641059  0.122939
    H   H75   0.306719  0.831361  0.641059  0.122936
    H   H76   0.693281  0.168639  0.358941  0.122946
    H   H77   0.193281  0.331361  0.358941  0.122945
    H   H78   0.806719  0.668639  0.641059  0.122940
    H   H79   0.806719  0.331361  0.641059  0.122937
    H   H80   0.193281  0.668639  0.358941  0.122948
    C   C153  0.754836  0.880687  0.393479  -0.099871
    C   C154  0.245164  0.119313  0.606521  -0.099787
    C   C155  0.245164  0.880687  0.606521  -0.099796
    C   C156  0.754836  0.119313  0.393479  -0.099864
    C   C157  0.254836  0.380687  0.393479  -0.099875
    C   C158  0.745164  0.619313  0.606521  -0.099782
    C   C159  0.745164  0.380687  0.606521  -0.099789
    C   C160  0.254836  0.619313  0.393479  -0.099860
    H   H81   0.720321  0.896737  0.340710  0.107995
    H   H82   0.279679  0.103263  0.659290  0.107986
    H   H83   0.279679  0.896737  0.659290  0.107992
    H   H84   0.720321  0.103263  0.340710  0.107994
    H   H85   0.220321  0.396737  0.340710  0.108000
    H   H86   0.779679  0.603263  0.659290  0.107985
    H   H87   0.779679  0.396737  0.659290  0.107987
    H   H88   0.220321  0.603263  0.340710  0.107997
    C   C161  0.813820  0.897032  0.450416  -0.182947
    C   C162  0.186180  0.102968  0.549584  -0.183015
    C   C163  0.186180  0.897032  0.549584  -0.183006
    C   C164  0.813820  0.102968  0.450416  -0.182950
    C   C165  0.313820  0.397032  0.450416  -0.182942
    C   C166  0.686180  0.602968  0.549584  -0.183017
    C   C167  0.686180  0.397032  0.549584  -0.183017
    C   C168  0.313820  0.602968  0.450416  -0.182951
    C   C169  0.711475  0.782199  0.479222  -0.198043
    C   C170  0.288525  0.217801  0.520777  -0.198127
    C   C171  0.288525  0.782199  0.520777  -0.198132
    C   C172  0.711475  0.217801  0.479222  -0.198037
    C   C173  0.211475  0.282199  0.479222  -0.198036
    C   C174  0.788525  0.717801  0.520777  -0.198121
    C   C175  0.788525  0.282199  0.520777  -0.198127
    C   C176  0.211475  0.717801  0.479222  -0.198032
    H   H89   0.682932  0.808083  0.466299  0.135714
    H   H90   0.317067  0.191917  0.533701  0.135731
    H   H91   0.317067  0.808083  0.533701  0.135732
    H   H92   0.682932  0.191917  0.466299  0.135714
    H   H93   0.182932  0.308083  0.466299  0.135712
    H   H94   0.817067  0.691917  0.533701  0.135729
    H   H95   0.817067  0.308083  0.533701  0.135730
    H   H96   0.182932  0.691917  0.466299  0.135712
    C   C177  0.695158  0.747906  0.496889  0.191261
    C   C178  0.304841  0.252094  0.503111  0.191499
    C   C179  0.304841  0.747906  0.503111  0.191506
    C   C180  0.695158  0.252094  0.496889  0.191255
    C   C181  0.195158  0.247906  0.496889  0.191258
    C   C182  0.804841  0.752094  0.503111  0.191489
    C   C183  0.804841  0.247906  0.503111  0.191496
    C   C184  0.195158  0.752094  0.496889  0.191253
    C   C185  0.733716  0.715162  0.516953  -0.144159
    C   C186  0.266284  0.284838  0.483047  -0.144140
    C   C187  0.266284  0.715162  0.483047  -0.144150
    C   C188  0.733716  0.284838  0.516953  -0.144149
    C   C189  0.233716  0.215162  0.516953  -0.144152
    C   C190  0.766284  0.784838  0.483047  -0.144128
    C   C191  0.766284  0.215162  0.483047  -0.144138
    C   C192  0.233716  0.784838  0.516953  -0.144145
    C   C193  0.491156  0.919574  0.548393  -0.346777
    C   C194  0.508844  0.080426  0.451607  -0.346790
    C   C195  0.508844  0.919574  0.451607  -0.346778
    C   C196  0.491156  0.080426  0.548393  -0.346790
    C   C197  0.991156  0.419574  0.548393  -0.346787
    C   C198  0.008844  0.580426  0.451607  -0.346798
    C   C199  0.008844  0.419574  0.451607  -0.346788
    C   C200  0.991156  0.580426  0.548393  -0.346798
    C   C201  0.500000  0.899287  0.500000  0.215170
    C   C202  0.500000  0.100713  0.500000  0.215176
    C   C203  -0.000000  0.399287  0.500000  0.215176
    C   C204  -0.000000  0.600713  0.500000  0.215181
    C   C205  0.508837  0.959784  0.451657  0.208271
    C   C206  0.491163  0.040216  0.548343  0.208261
    C   C207  0.491163  0.959784  0.548343  0.208253
    C   C208  0.508837  0.040216  0.451657  0.208278
    C   C209  0.008837  0.459784  0.451657  0.208280
    C   C210  0.991163  0.540216  0.548343  0.208265
    C   C211  0.991163  0.459784  0.548343  0.208259
    C   C212  0.008837  0.540216  0.451657  0.208282
    C   C213  0.500000  0.979894  0.500000  -0.018624
    C   C214  0.500000  0.020106  0.500000  -0.018623
    C   C215  -0.000000  0.479894  0.500000  -0.018629
    C   C216  -0.000000  0.520106  0.500000  -0.018624
    C   C217  0.517682  0.979926  0.403285  -0.213145
    C   C218  0.482318  0.020074  0.596715  -0.213146
    C   C219  0.482318  0.979926  0.596715  -0.213135
    C   C220  0.517682  0.020074  0.403285  -0.213154
    C   C221  0.017682  0.479926  0.403285  -0.213151
    C   C222  0.982318  0.520074  0.596715  -0.213148
    C   C223  0.982318  0.479926  0.596715  -0.213138
    C   C224  0.017682  0.520074  0.403285  -0.213154
    H   H97   0.484174  0.904180  0.586576  0.173853
    H   H98   0.515826  0.095820  0.413424  0.173847
    H   H99   0.515826  0.904180  0.413424  0.173838
    H   H100  0.484174  0.095820  0.586576  0.173861
    H   H101  0.984174  0.404180  0.586576  0.173858
    H   H102  0.015826  0.595820  0.413424  0.173850
    H   H103  0.015826  0.404180  0.413424  0.173843
    H   H104  0.984174  0.595820  0.586576  0.173866
    H   H105  0.524646  0.964387  0.365192  0.137421
    H   H106  0.475354  0.035613  0.634808  0.137413
    H   H107  0.475354  0.964387  0.634808  0.137412
    H   H108  0.524646  0.035613  0.365192  0.137421
    H   H109  0.024646  0.464387  0.365192  0.137422
    H   H110  0.975354  0.535613  0.634808  0.137412
    H   H111  0.975354  0.464387  0.634808  0.137412
    H   H112  0.024646  0.535613  0.365192  0.137421
