data_DB0-m29_o96_o110_f0_pts.sym.60_repeat
_audit_creation_date              2024-02-23
_audit_creation_method            'Materials Studio'
_symmetry_space_group_name_H-M    'P1'
_symmetry_Int_Tables_number       1
_symmetry_cell_setting            triclinic
loop_
_symmetry_equiv_pos_as_xyz
  x,y,z
_cell_length_a                    17.4034
_cell_length_b                    14.2385
_cell_length_c                    16.7320
_cell_angle_alpha                 91.6799
_cell_angle_beta                  91.0626
_cell_angle_gamma                 99.3615
loop_
_atom_site_label
_atom_site_type_symbol
_atom_site_fract_x
_atom_site_fract_y
_atom_site_fract_z
_atom_site_U_iso_or_equiv
_atom_site_adp_type
_atom_site_occupancy
C1     C     0.22051   0.99754   0.12005   0.00000  Uiso   1.00
C2     C     0.17080   0.96434   0.17818   0.00000  Uiso   1.00
C3     C     0.09636   0.96524   0.14933   0.00000  Uiso   1.00
N1     N     0.09899   0.99478   0.07323   0.00000  Uiso   1.00
C4     C     0.17536   0.01364   0.05492   0.00000  Uiso   1.00
C5     C     0.03214   0.94549   0.19258   0.00000  Uiso   1.00
C6     C     0.95391   0.96067   0.16641   0.00000  Uiso   1.00
C7     C     0.89472   0.97929   0.21605   0.00000  Uiso   1.00
C8     C     0.83123   0.98375   0.16837   0.00000  Uiso   1.00
C9     C     0.85287   0.96892   0.09022   0.00000  Uiso   1.00
N2     N     0.92743   0.95339   0.08990   0.00000  Uiso   1.00
C10    C     0.80258   0.96905   0.01850   0.00000  Uiso   1.00
C11    C     0.82993   0.99026   0.94581   0.00000  Uiso   1.00
C12    C     0.78451   0.00053   0.87917   0.00000  Uiso   1.00
C13    C     0.83409   0.03131   0.82018   0.00000  Uiso   1.00
C14    C     0.90869   0.03557   0.85030   0.00000  Uiso   1.00
N3     N     0.90631   0.01106   0.92780   0.00000  Uiso   1.00
C15    C     0.97296   0.05561   0.80708   0.00000  Uiso   1.00
C16    C     0.05217   0.04754   0.83499   0.00000  Uiso   1.00
C17    C     0.11229   0.03324   0.78570   0.00000  Uiso   1.00
C18    C     0.17566   0.02860   0.83310   0.00000  Uiso   1.00
C19    C     0.15314   0.04039   0.91136   0.00000  Uiso   1.00
N4     N     0.07786   0.05339   0.91173   0.00000  Uiso   1.00
C20    C     0.20296   0.03755   0.98291   0.00000  Uiso   1.00
H1     H     0.03873   0.92356   0.25306   0.00000  Uiso   1.00
H2     H     0.74037   0.95935   0.02693   0.00000  Uiso   1.00
H3     H     0.96628   0.07059   0.74469   0.00000  Uiso   1.00
H4     H     0.26509   0.04586   0.97433   0.00000  Uiso   1.00
H5     H     0.95733   0.93234   0.04100   0.00000  Uiso   1.00
H6     H     0.04666   0.07085   0.96086   0.00000  Uiso   1.00
C21    C     0.11460   0.02353   0.70396   0.00000  Uiso   1.00
C22    C     0.18425   0.01050   0.67028   0.00000  Uiso   1.00
C23    C     0.25009   0.00594   0.71791   0.00000  Uiso   1.00
C24    C     0.24574   0.01407   0.80097   0.00000  Uiso   1.00
C25    C     0.30007   0.01134   0.13230   0.00000  Uiso   1.00
C26    C     0.32766   0.98599   0.20523   0.00000  Uiso   1.00
C27    C     0.27638   0.94705   0.26289   0.00000  Uiso   1.00
C28    C     0.19708   0.93770   0.25049   0.00000  Uiso   1.00
C29    C     0.89290   0.99431   0.29782   0.00000  Uiso   1.00
C30    C     0.82234   0.00685   0.33072   0.00000  Uiso   1.00
C31    C     0.75640   0.00882   0.28265   0.00000  Uiso   1.00
C32    C     0.76116   0.99931   0.19981   0.00000  Uiso   1.00
C33    C     0.70492   0.98422   0.86633   0.00000  Uiso   1.00
C34    C     0.67731   0.00449   0.79176   0.00000  Uiso   1.00
C35    C     0.72850   0.04022   0.73297   0.00000  Uiso   1.00
C36    C     0.80775   0.05225   0.74614   0.00000  Uiso   1.00
H7     H     0.06412   0.02664   0.66631   0.00000  Uiso   1.00
H8     H     0.29608   0.01127   0.83902   0.00000  Uiso   1.00
H9     H     0.34006   0.04121   0.08759   0.00000  Uiso   1.00
H10    H     0.29797   0.92771   0.32003   0.00000  Uiso   1.00
H11    H     0.15825   0.91010   0.29691   0.00000  Uiso   1.00
H12    H     0.71078   0.00050   0.16140   0.00000  Uiso   1.00
H13    H     0.66498   0.95734   0.91211   0.00000  Uiso   1.00
H14    H     0.70682   0.05581   0.67474   0.00000  Uiso   1.00
H15    H     0.84648   0.07808   0.69910   0.00000  Uiso   1.00
H16    H     0.18656   0.00403   0.60590   0.00000  Uiso   1.00
H17    H     0.81773   0.01194   0.39488   0.00000  Uiso   1.00
O1     O     0.61836   0.02020   0.27901   0.00000  Uiso   1.00
C37    C     0.68169   0.01464   0.32144   0.00000  Uiso   1.00
O2     O     0.54926   0.82779   0.32808   0.00000  Uiso   1.00
O3     O     0.67661   0.00627   0.39913   0.00000  Uiso   1.00
O4     O     0.51380   0.90956   0.43416   0.00000  Uiso   1.00
C38    C     0.52447   0.82792   0.40166   0.00000  Uiso   1.00
Fe1    Fe    0.52520   0.00078   0.34651   0.00000  Uiso   1.00
O5     O     0.43457   0.94411   0.27524   0.00000  Uiso   1.00
O6     O     0.45219   0.08698   0.21521   0.00000  Uiso   1.00
C39    C     0.41034   0.00317   0.22595   0.00000  Uiso   1.00
O7     O     0.52897   0.13129   0.39670   0.00000  Uiso   1.00
O8     O     0.39801   0.08088   0.39644   0.00000  Uiso   1.00
C40    C     0.45826   0.14692   0.41361   0.00000  Uiso   1.00
C41    C     0.38959   0.28147   0.40049   0.00000  Uiso   1.00
C42    C     0.44553   0.24216   0.44027   0.00000  Uiso   1.00
C43    C     0.49395   0.29806   0.49597   0.00000  Uiso   1.00
C44    C     0.53380   0.25749   0.55505   0.00000  Uiso   1.00
C45    C     0.59140   0.31480   0.59890   0.00000  Uiso   1.00
C46    C     0.38967   0.37778   0.40628   0.00000  Uiso   1.00
C47    C     0.45014   0.43794   0.44630   0.00000  Uiso   1.00
C48    C     0.49877   0.39692   0.49620   0.00000  Uiso   1.00
C49    C     0.55065   0.45425   0.54782   0.00000  Uiso   1.00
C50    C     0.43247   0.58161   0.37534   0.00000  Uiso   1.00
C51    C     0.46125   0.53745   0.44030   0.00000  Uiso   1.00
C52    C     0.50721   0.59442   0.49792   0.00000  Uiso   1.00
C53    C     0.44399   0.67929   0.37339   0.00000  Uiso   1.00
C54    C     0.48692   0.73596   0.43136   0.00000  Uiso   1.00
C55    C     0.60208   0.41171   0.59332   0.00000  Uiso   1.00
C56    C     0.54945   0.55215   0.55382   0.00000  Uiso   1.00
C57    C     0.58937   0.60875   0.61523   0.00000  Uiso   1.00
C58    C     0.51331   0.69376   0.49832   0.00000  Uiso   1.00
C59    C     0.54867   0.74750   0.56394   0.00000  Uiso   1.00
C60    C     0.58701   0.70426   0.62082   0.00000  Uiso   1.00
H18    H     0.34125   0.40326   0.37810   0.00000  Uiso   1.00
H19    H     0.42305   0.71317   0.32223   0.00000  Uiso   1.00
H20    H     0.64929   0.45112   0.62895   0.00000  Uiso   1.00
H21    H     0.61808   0.58061   0.66442   0.00000  Uiso   1.00
H22    H     0.62458   0.28413   0.64361   0.00000  Uiso   1.00
H23    H     0.34753   0.23783   0.36101   0.00000  Uiso   1.00
H24    H     0.61333   0.74525   0.67256   0.00000  Uiso   1.00
O9     O     0.57130   0.04836   0.72193   0.00000  Uiso   1.00
O10    O     0.55155   0.90568   0.78252   0.00000  Uiso   1.00
C61    C     0.59461   0.98859   0.77118   0.00000  Uiso   1.00
O11    O     0.46858   0.86361   0.60357   0.00000  Uiso   1.00
O12    O     0.59948   0.91035   0.59774   0.00000  Uiso   1.00
C62    C     0.53781   0.84529   0.58382   0.00000  Uiso   1.00
O13    O     0.48656   0.17961   0.67212   0.00000  Uiso   1.00
O14    O     0.38594   0.98403   0.72032   0.00000  Uiso   1.00
C63    C     0.32401   0.99739   0.67871   0.00000  Uiso   1.00
O15    O     0.49304   0.08506   0.56279   0.00000  Uiso   1.00
C64    C     0.49910   0.17105   0.59539   0.00000  Uiso   1.00
O16    O     0.32951   0.00846   0.60134   0.00000  Uiso   1.00
Fe2    Fe    0.47847   0.99595   0.65190   0.00000  Uiso   1.00
O17    O     0.95691   0.99234   0.34408   0.00000  Uiso   1.00
C65    C     0.97528   0.04556   0.41201   0.00000  Uiso   1.00
O18    O     0.94594   0.11631   0.42592   0.00000  Uiso   1.00
C66    C     0.03705   0.02212   0.46710   0.00000  Uiso   1.00
H25    H     0.05944   0.95867   0.44299   0.00000  Uiso   1.00
H26    H     0.01214   0.00671   0.52669   0.00000  Uiso   1.00
H27    H     0.08538   0.08336   0.47263   0.00000  Uiso   1.00
O19    O     0.39931   0.53076   0.31072   0.00000  Uiso   1.00
C67    C     0.41630   0.55248   0.23425   0.00000  Uiso   1.00
O20    O     0.47563   0.60645   0.21868   0.00000  Uiso   1.00
C68    C     0.36548   0.50353   0.16796   0.00000  Uiso   1.00
H28    H     0.31618   0.45506   0.19329   0.00000  Uiso   1.00
H29    H     0.39977   0.46174   0.12959   0.00000  Uiso   1.00
H30    H     0.34264   0.55732   0.13171   0.00000  Uiso   1.00
