# Generated by REPEAT Assigner based on pymatgen
data_DB0-m2_o11_o28_f0_pcu.sym.19
_audit_creation_date              2022-05-24
_audit_creation_method            REPEAT_Assigner
_cell_length_a                    23.347202
_cell_length_b                    11.039190
_cell_length_c                    9.537436
_cell_angle_alpha                 90.020551
_cell_angle_beta                  90.003855
_cell_angle_gamma                 90.011427
_cell_volume                      2458.123232
_symmetry_space_group_name_H-M    P1
_symmetry_Int_Tables_number       1
loop_
    _symmetry_equiv_pos_site_id
    _symmetry_equiv_pos_as_xyz
    1  x,y,z
loop_
    _atom_site_type_symbol
    _atom_site_label
    _atom_site_fract_x
    _atom_site_fract_y
    _atom_site_fract_z
    _atom_type_partial_charge
    O   O1   0.501051  0.328348  0.614132  -0.618702
    O   O2   0.499161  0.324222  0.372536  -0.581136
    C   C1   0.500034  0.269447  0.494360  0.710133
    O   O3   0.416641  0.509321  0.607369  -0.582376
    O   O4   0.418496  0.497473  0.365667  -0.569522
    C   C2   0.390702  0.504111  0.485669  0.607413
    Cu  Cu1  0.499580  0.502911  0.630839  1.014104
    Cu  Cu2  0.502378  0.501271  0.350259  0.943342
    O   O5   0.502201  0.680256  0.608115  -0.636069
    O   O6   0.500257  0.676379  0.367329  -0.648896
    O   O7   0.583091  0.507234  0.614704  -0.620769
    O   O8   0.584927  0.495226  0.375097  -0.616080
    C   C3   0.501171  0.734651  0.487168  0.791226
    C   C4   0.610931  0.500977  0.495861  0.705592
    C   C5   0.881409  0.603205  0.536774  0.495903
    N   N1   0.853041  0.501894  0.499281  -0.220144
    C   C6   0.881893  0.402249  0.457633  0.449882
    C   C7   0.941170  0.402490  0.453850  -0.075085
    C   C8   0.970718  0.505177  0.492304  0.060860
    C   C9   0.940652  0.606153  0.533728  -0.073980
    C   C10  0.970941  0.300334  0.412881  -0.076083
    C   C11  0.029861  0.301605  0.409410  -0.063748
    C   C12  0.059456  0.404949  0.447280  -0.093909
    C   C13  0.029887  0.506743  0.489369  0.062091
    C   C14  0.059671  0.609740  0.528148  -0.219596
    C   C15  0.029075  0.712060  0.570364  0.398866
    C   C16  0.969924  0.709632  0.571528  -0.278829
    C   C17  0.118580  0.406594  0.444695  0.499734
    N   N2   0.147380  0.507307  0.482157  -0.269130
    C   C18  0.119314  0.608278  0.522564  0.537910
    O   O9   0.851765  0.702397  0.574293  -0.498630
    O   O10  0.852764  0.301664  0.422265  -0.487265
    H   H1   0.948870  0.218086  0.383581  0.130244
    H   H2   0.052227  0.220403  0.377395  0.127425
    O   O11  0.147729  0.306604  0.408004  -0.502712
    O   O12  0.149828  0.708018  0.553602  -0.475835
    H   H3   0.947051  0.790278  0.602946  0.194265
    C   C19  0.238016  0.528455  0.604882  -0.190174
    H   H4   0.215003  0.547147  0.700824  0.147534
    C   C20  0.297034  0.525976  0.606515  -0.088423
    H   H5   0.318925  0.543165  0.703821  0.112836
    C   C21  0.327480  0.504455  0.484465  -0.005126
    C   C22  0.297897  0.484979  0.361224  -0.119044
    H   H6   0.321415  0.469354  0.265365  0.120752
    C   C23  0.238545  0.485493  0.359790  -0.155677
    H   H7   0.215537  0.471835  0.262339  0.135730
    C   C24  0.208498  0.506686  0.482126  0.255208
    C   C25  0.761763  0.520693  0.621991  -0.157895
    H   H8   0.784515  0.536314  0.719095  0.131809
    C   C26  0.702638  0.518652  0.621327  -0.100890
    H   H9   0.679895  0.534316  0.718772  0.126113
    C   C27  0.673396  0.499497  0.497299  -0.039566
    C   C28  0.703661  0.481711  0.374037  -0.120089
    H   H10  0.682330  0.467254  0.274692  0.132859
    C   C29  0.762612  0.482939  0.375939  -0.146245
    H   H11  0.786270  0.471454  0.279652  0.130639
    C   C30  0.791893  0.501467  0.499455  0.254212
    C   C31  0.500881  0.934982  0.376431  -0.009940
    C   C32  0.501953  0.866701  0.491932  -0.318434
    H   H12  0.499745  0.892042  0.274396  0.111604
    H   H13  0.503310  0.905370  0.595631  0.173049
    C   C33  0.500996  0.069247  0.379969  -0.006744
    C   C34  0.500769  0.136306  0.497854  -0.296344
    H   H14  0.500795  0.114767  0.279598  0.100053
    H   H15  0.500829  0.095630  0.601030  0.165289
    C   C35  0.471474  0.427788  0.913139  0.093710
    N   N3   0.497875  0.507894  0.840346  -0.331050
    H   H16  0.448468  0.358334  0.859059  0.099046
    H   H17  0.506192  0.589545  0.887637  0.252364
    C   C36  0.466815  0.437877  0.066959  0.080169
    N   N4   0.503294  0.497011  0.140323  -0.305599
    H   H18  0.431443  0.392290  0.116933  0.120053
    H   H19  0.540761  0.518268  0.087902  0.246516
    O   O13  0.056199  0.817302  0.607873  -0.364776
    C   C37  0.057691  0.816034  0.754283  0.433468
    H   H20  0.069343  0.724209  0.791856  -0.083265
    H   H21  0.015085  0.841393  0.796534  -0.065777
    C   C38  0.101924  0.906293  0.805478  -0.233125
    H   H22  0.090644  0.998269  0.767859  0.060020
    H   H23  0.102980  0.906060  0.921670  0.044012
    H   H24  0.144751  0.881106  0.764758  0.090643
