# generated using pymatgen
data_ZnH17C21(NO)4
_symmetry_space_group_name_H-M   'P 1'
_cell_length_a   19.47997500
_cell_length_b   18.26896300
_cell_length_c   11.13310700
_cell_angle_alpha   90.00000000
_cell_angle_beta   90.00738300
_cell_angle_gamma   90.00000000
_symmetry_Int_Tables_number   1
_chemical_formula_structural   ZnH17C21(NO)4
_chemical_formula_sum   'Zn2 H34 C42 N8 O8'
_cell_volume   3962.03831318
_cell_formula_units_Z   2
loop_
 _symmetry_equiv_pos_site_id
 _symmetry_equiv_pos_as_xyz
  1  'x, y, z'
loop_
 _atom_site_type_symbol
 _atom_site_label
 _atom_site_symmetry_multiplicity
 _atom_site_fract_x
 _atom_site_fract_y
 _atom_site_fract_z
 _atom_site_occupancy
  Zn  Zn1  1  0.50000500  0.58530500  0.49998300  1
  Zn  Zn2  1  0.50000500  0.41863700  0.49998300  1
  H  H1  1  0.50334700  0.39076800  0.88931700  1
  H  H2  1  0.49666700  0.39076700  0.11064800  1
  H  H3  1  0.49114900  0.55789500  0.90624100  1
  H  H4  1  0.50886000  0.55789500  0.09372400  1
  H  H5  1  0.71677100  0.40348700  0.40328700  1
  H  H6  1  0.28324000  0.40348600  0.59667600  1
  H  H7  1  0.84081600  0.40262000  0.39730100  1
  H  H8  1  0.15919500  0.40261800  0.60266300  1
  H  H9  1  0.84474100  0.59570700  0.61528800  1
  H  H10  1  0.15526900  0.59570600  0.38467700  1
  H  H11  1  0.93842100  0.61639000  0.49849700  1
  H  H12  1  0.06158900  0.61639000  0.50146700  1
  H  H13  1  0.06165000  0.38198000  0.49441900  1
  H  H14  1  0.93835900  0.38198100  0.50555000  1
  H  H15  1  0.53164800  0.70201300  0.68070900  1
  H  H16  1  0.46836100  0.70201400  0.31925600  1
  H  H17  1  0.53171700  0.83527800  0.68365000  1
  H  H18  1  0.46829200  0.83527800  0.31631500  1
  H  H19  1  0.55028600  0.93526600  0.32964300  1
  H  H20  1  0.44972300  0.93526600  0.67032300  1
  H  H21  1  0.58002900  0.16749300  0.62986700  1
  H  H22  1  0.41998100  0.16749400  0.37010000  1
  H  H23  1  0.52195700  0.10806500  0.26149700  1
  H  H24  1  0.59770000  0.11083200  0.33840400  1
  H  H25  1  0.47805300  0.10806500  0.73846800  1
  H  H26  1  0.40231000  0.11083200  0.66156200  1
  H  H27  1  0.63927200  0.29483800  0.62722000  1
  H  H28  1  0.57938200  0.29421700  0.73708500  1
  H  H29  1  0.36073900  0.29483900  0.37274800  1
  H  H30  1  0.42062800  0.29421700  0.26288200  1
  H  H31  1  0.72871900  0.60902200  0.72025400  1
  H  H32  1  0.72820500  0.66226000  0.59595700  1
  H  H33  1  0.27129100  0.60902200  0.27971200  1
  H  H34  1  0.27180400  0.66226000  0.40401200  1
  C  C1  1  0.36561000  0.50205700  0.49424100  1
  C  C2  1  0.63440000  0.50205700  0.50572400  1
  C  C3  1  0.50286900  0.50208100  0.26502200  1
  C  C4  1  0.49714100  0.50208100  0.73494400  1
  C  C5  1  0.50017100  0.44351800  0.93342900  1
  C  C6  1  0.49984200  0.44351800  0.06653600  1
  C  C7  1  0.49586300  0.50426500  0.86649200  1
  C  C8  1  0.50414800  0.50426500  0.13347400  1
  C  C9  1  0.74463300  0.44592900  0.45018000  1
  C  C10  1  0.25537700  0.44592700  0.54978300  1
  C  C11  1  0.81540400  0.44525700  0.44766700  1
  C  C12  1  0.18460700  0.44525500  0.55229600  1
  C  C13  1  0.85260400  0.49946100  0.50527200  1
  C  C14  1  0.14740600  0.49945900  0.49469300  1
  C  C15  1  0.81742700  0.55419200  0.56541300  1
  C  C16  1  0.18258300  0.55419100  0.43455200  1
  C  C17  1  0.74660700  0.55584100  0.56580200  1
  C  C18  1  0.25340300  0.55584000  0.43416300  1
  C  C19  1  0.70973000  0.50163600  0.50749300  1
  C  C20  1  0.29028000  0.50163500  0.49247100  1
  C  C21  1  0.96463200  0.56432100  0.50070000  1
  C  C22  1  0.03537800  0.56432000  0.49926400  1
  C  C23  1  0.07162400  0.49918500  0.49739400  1
  C  C24  1  0.92838600  0.49918500  0.50257200  1
  C  C25  1  0.03540600  0.43399700  0.49825300  1
  C  C26  1  0.96460400  0.43399700  0.50171500  1
  C  C27  1  0.51724200  0.73153600  0.60055400  1
  C  C28  1  0.48276700  0.73153600  0.39941100  1
  C  C29  1  0.51695600  0.80701300  0.60237000  1
  C  C30  1  0.48305300  0.80701300  0.39759600  1
  C  C31  1  0.50000400  0.84555500  0.49998300  1
  C  C32  1  0.52731600  0.96412000  0.40424600  1
  C  C33  1  0.47269300  0.96412000  0.59571900  1
  C  C34  1  0.52780300  0.03960000  0.40400700  1
  C  C35  1  0.47220600  0.03960000  0.59595900  1
  C  C36  1  0.50000500  0.07802100  0.49998300  1
  C  C37  1  0.50000500  0.92593400  0.49998300  1
  C  C38  1  0.54450600  0.19661900  0.57254900  1
  C  C39  1  0.45550400  0.19661900  0.42741700  1
  C  C40  1  0.54367300  0.27213700  0.57225300  1
  C  C41  1  0.45633800  0.27213700  0.42771400  1
  C  C42  1  0.50000500  0.15833100  0.49998300  1
  N  N1  1  0.50000500  0.69484900  0.49998300  1
  N  N2  1  0.50000500  0.30902700  0.49998300  1
  N  N3  1  0.55903400  0.07672500  0.30542700  1
  N  N4  1  0.44097600  0.07672500  0.69453800  1
  N  N5  1  0.58936700  0.31087200  0.64909200  1
  N  N6  1  0.41064300  0.31087300  0.35087500  1
  N  N7  1  0.71233300  0.61204500  0.63109300  1
  N  N8  1  0.28767600  0.61204500  0.36887400  1
  O  O1  1  0.39777300  0.56519200  0.49515400  1
  O  O2  1  0.60223700  0.56519300  0.50481100  1
  O  O3  1  0.39773600  0.43889400  0.49703000  1
  O  O4  1  0.60227400  0.43889400  0.50293500  1
  O  O5  1  0.50271700  0.56510500  0.32120200  1
  O  O6  1  0.49729300  0.56510500  0.67876300  1
  O  O7  1  0.50173900  0.43876100  0.32084400  1
  O  O8  1  0.49827100  0.43876100  0.67912100  1
