# Generated by REPEAT Assigner based on pymatgen
data_DB0-m2_o11_o14_f0_pcu
_audit_creation_date              2022-05-24
_audit_creation_method            REPEAT_Assigner
_cell_length_a                    15.371642
_cell_length_b                    15.464037
_cell_length_c                    9.552922
_cell_angle_alpha                 90.000000
_cell_angle_beta                  90.016528
_cell_angle_gamma                 90.000000
_cell_volume                      2270.802419
_symmetry_space_group_name_H-M    P1
_symmetry_Int_Tables_number       1
loop_
    _symmetry_equiv_pos_site_id
    _symmetry_equiv_pos_as_xyz
    1  x,y,z
loop_
    _atom_site_type_symbol
    _atom_site_label
    _atom_site_fract_x
    _atom_site_fract_y
    _atom_site_fract_z
    _atom_type_partial_charge
    O   O1   0.550504  0.412128  0.150138  -0.627041
    O   O2   0.562980  0.588224  0.131039  -0.630340
    O   O3   0.062977  0.911780  0.131051  -0.630339
    O   O4   0.050499  0.087873  0.150154  -0.627051
    O   O5   0.057423  0.913465  0.892401  -0.642118
    O   O6   0.062868  0.088837  0.913332  -0.630028
    O   O7   0.562872  0.411162  0.913316  -0.630115
    O   O8   0.557421  0.586538  0.892388  -0.642132
    C   C1   0.092143  0.884989  0.009181  0.788295
    C   C2   0.088715  0.116569  0.036817  0.766151
    C   C3   0.588719  0.383432  0.036801  0.766039
    C   C4   0.592140  0.615018  0.009167  0.788699
    Cu  Cu1  0.467156  0.506514  0.157818  0.966471
    Cu  Cu2  0.967150  0.993486  0.157827  0.966236
    Cu  Cu3  0.469139  0.495594  0.882292  0.938137
    Cu  Cu4  0.969137  0.004404  0.882302  0.938399
    O   O9   0.874158  0.078537  0.145548  -0.570089
    O   O10  0.883866  0.900705  0.128585  -0.612659
    O   O11  0.383873  0.599294  0.128581  -0.612546
    O   O12  0.374161  0.421467  0.145541  -0.569957
    O   O13  0.378419  0.584768  0.891114  -0.588242
    O   O14  0.383548  0.403202  0.909623  -0.607250
    O   O15  0.883546  0.096796  0.909628  -0.607243
    O   O16  0.878420  0.915229  0.891116  -0.588233
    C   C5   0.851281  0.119835  0.031362  0.695708
    C   C6   0.853635  0.876087  0.006460  0.715353
    C   C7   0.353638  0.623913  0.006459  0.715094
    C   C8   0.351281  0.380168  0.031358  0.695633
    H   H1   0.706991  0.871983  0.860929  0.123015
    H   H2   0.733555  0.157093  0.840492  0.118209
    H   H3   0.233544  0.342910  0.840499  0.118252
    H   H4   0.207013  0.628046  0.860874  0.122999
    C   C9   0.884825  0.711637  0.139655  -0.269379
    C   C10  0.848428  0.248703  0.254086  -0.268665
    C   C11  0.348437  0.251297  0.254073  -0.268672
    C   C12  0.384815  0.788346  0.139717  -0.269527
    H   H5   0.938884  0.755842  0.134351  0.165216
    H   H6   0.906327  0.209957  0.247094  0.158761
    H   H7   0.406338  0.290041  0.247070  0.158737
    H   H8   0.438877  0.744145  0.134403  0.165262
    C   C13  0.898787  0.635392  0.209964  -0.086575
    C   C14  0.843216  0.302315  0.368069  -0.086965
    C   C15  0.343230  0.197685  0.368057  -0.086991
    C   C16  0.398775  0.864583  0.210048  -0.086365
    H   H9   0.960623  0.623601  0.260390  0.096931
    H   H10  0.893269  0.300663  0.447535  0.097748
    H   H11  0.393287  0.199336  0.447516  0.097759
    H   H12  0.460611  0.876369  0.260481  0.096889
    C   C17  0.275904  0.140486  0.378909  -0.025156
    C   C18  0.335356  0.926805  0.212460  -0.058872
    C   C19  0.835367  0.573171  0.212369  -0.058834
    C   C20  0.775896  0.359521  0.378905  -0.025185
    H   H13  0.272510  0.097122  0.467497  0.079963
    H   H14  0.347543  0.987478  0.264732  0.102212
    H   H15  0.847554  0.512493  0.264625  0.102240
    H   H16  0.772500  0.402889  0.467488  0.079950
    C   C21  0.215485  0.134310  0.273420  -0.269075
    C   C22  0.257686  0.913109  0.144498  -0.311372
    C   C23  0.757694  0.586875  0.144420  -0.311381
    C   C24  0.715484  0.365699  0.273407  -0.269027
    H   H17  0.168987  0.083527  0.286609  0.157434
    H   H18  0.212035  0.965754  0.142912  0.176144
    H   H19  0.712041  0.534231  0.142827  0.175941
    H   H20  0.668991  0.416487  0.286586  0.157514
    C   C25  0.741595  0.664327  0.075586  0.218725
    C   C26  0.717838  0.310571  0.157592  0.193710
    C   C27  0.217838  0.189433  0.157599  0.194046
    C   C28  0.241591  0.835666  0.075635  0.218016
    C   C29  0.805771  0.727587  0.073478  0.232712
    C   C30  0.784066  0.248758  0.151220  0.203063
    C   C31  0.284068  0.251244  0.151219  0.202924
    C   C32  0.305766  0.772404  0.073521  0.232854
    C   C33  0.791745  0.804060  0.999821  -0.202412
    C   C34  0.787897  0.191092  0.038713  -0.177002
    C   C35  0.287895  0.308913  0.038714  -0.176784
    C   C36  0.291749  0.695943  0.999828  -0.202174
    C   C37  0.717484  0.813388  0.920291  -0.131335
    C   C38  0.730644  0.200504  0.929036  -0.106479
    C   C39  0.230636  0.299500  0.929043  -0.106814
    C   C40  0.217499  0.686630  0.920267  -0.131288
    H   H21  0.123340  0.232014  0.844351  0.111519
    H   H22  0.094849  0.739922  0.862980  0.102084
    H   H23  0.594825  0.760108  0.863026  0.101960
    H   H24  0.623346  0.267984  0.844339  0.111647
    C   C41  0.167716  0.236509  0.931790  -0.054514
    C   C42  0.154166  0.749608  0.921738  -0.046542
    C   C43  0.654151  0.750412  0.921757  -0.046143
    C   C44  0.667721  0.263492  0.931780  -0.055076
    C   C45  0.158706  0.182117  0.045533  -0.239107
    C   C46  0.164010  0.822532  0.003282  -0.233470
    C   C47  0.664005  0.677474  0.003265  -0.234362
    C   C48  0.658709  0.317885  0.045520  -0.238455
    C   C49  0.401963  0.493583  0.443788  0.143471
    C   C50  0.901971  0.006442  0.443803  0.143333
    N   N1   0.467665  0.514571  0.367807  -0.330453
    N   N2   0.967660  0.985427  0.367815  -0.330326
    H   H25  0.341708  0.474756  0.393567  0.093569
    H   H26  0.841724  0.025306  0.393594  0.093657
    H   H27  0.519229  0.540043  0.422414  0.247584
    H   H28  0.019209  0.959923  0.422420  0.247572
    C   C51  0.402357  0.501033  0.598000  -0.014425
    C   C52  0.902364  0.998955  0.598008  -0.014323
    N   N3   0.470665  0.487468  0.672530  -0.240420
    N   N4   0.970669  0.012527  0.672541  -0.240488
    H   H29  0.340936  0.513269  0.649929  0.145510
    H   H30  0.840944  0.986704  0.649929  0.145467
    H   H31  0.524375  0.467659  0.617168  0.222492
    H   H32  0.024373  0.032350  0.617177  0.222511
