# generated using pymatgen
data_Zn2H15C28(NO3)3
_symmetry_space_group_name_H-M   'P 1'
_cell_length_a   13.41575600
_cell_length_b   8.52281200
_cell_length_c   10.97759000
_cell_angle_alpha   90.00000000
_cell_angle_beta   90.50051600
_cell_angle_gamma   90.00000000
_symmetry_Int_Tables_number   1
_chemical_formula_structural   Zn2H15C28(NO3)3
_chemical_formula_sum   'Zn2 H15 C28 N3 O9'
_cell_volume   1255.12937784
_cell_formula_units_Z   1
loop_
 _symmetry_equiv_pos_site_id
 _symmetry_equiv_pos_as_xyz
  1  'x, y, z'
loop_
 _atom_site_type_symbol
 _atom_site_label
 _atom_site_symmetry_multiplicity
 _atom_site_fract_x
 _atom_site_fract_y
 _atom_site_fract_z
 _atom_site_occupancy
  Zn  Zn1  1  0.11144500  0.49959300  0.49078700  1
  Zn  Zn2  1  0.88904900  0.50025700  0.49892900  1
  H  H1  1  0.98927600  0.25349900  0.90218700  1
  H  H2  1  0.99029800  0.74623600  0.90227100  1
  H  H3  1  0.01157900  0.74640400  0.08768100  1
  H  H4  1  0.01041500  0.25364200  0.08759100  1
  H  H5  1  0.03525500  0.00003600  0.58055700  1
  H  H6  1  0.96505700  0.99985900  0.40920000  1
  H  H7  1  0.75383200  0.51050600  0.69172600  1
  H  H8  1  0.25767500  0.48415600  0.29969400  1
  H  H9  1  0.41420500  0.47320100  0.19956800  1
  H  H10  1  0.57586600  0.51089500  0.70161300  1
  H  H11  1  0.42188900  0.51064500  0.69819200  1
  H  H12  1  0.24486900  0.50966100  0.68107000  1
  H  H13  1  0.72024900  0.72447000  0.30332300  1
  H  H14  1  0.67621200  0.62973900  0.16471000  1
  H  H15  1  0.80603700  0.67348300  0.18320700  1
  C  C1  1  0.00813900  0.13900500  0.73576200  1
  C  C2  1  0.00888900  0.86082000  0.73581700  1
  C  C3  1  0.99826500  0.14042200  0.86065200  1
  C  C4  1  0.99891600  0.85936700  0.86069900  1
  C  C5  1  0.00056700  0.99992100  0.92673400  1
  C  C6  1  0.02095200  0.99997500  0.67630300  1
  C  C7  1  0.00248100  0.85947500  0.12919500  1
  C  C8  1  0.00175200  0.14050100  0.12913000  1
  C  C9  1  0.99244800  0.86092500  0.25406900  1
  C  C10  1  0.99163500  0.13902500  0.25398800  1
  C  C11  1  0.97947500  0.99991400  0.31347900  1
  C  C12  1  0.00016600  0.99995500  0.06309400  1
  C  C13  1  0.00412600  0.28151900  0.66184700  1
  C  C14  1  0.00486000  0.71832600  0.66187100  1
  C  C15  1  0.99568500  0.28143800  0.32796000  1
  C  C16  1  0.99647100  0.71850500  0.32803800  1
  C  C17  1  0.70554200  0.49604600  0.39531700  1
  C  C18  1  0.71103200  0.50622700  0.60791500  1
  C  C19  1  0.60831200  0.50606900  0.61257000  1
  C  C20  1  0.55212900  0.49866300  0.50577200  1
  C  C21  1  0.60262400  0.49214600  0.39672200  1
  C  C22  1  0.39065900  0.50487600  0.60786300  1
  C  C23  1  0.44790600  0.49774200  0.50357300  1
  C  C24  1  0.39868800  0.48954100  0.39254200  1
  C  C25  1  0.45233600  0.48057100  0.28653600  1
  C  C26  1  0.28828800  0.50485200  0.59874100  1
  C  C27  1  0.29564000  0.49025100  0.38682700  1
  C  C28  1  0.73799200  0.63665400  0.23216900  1
  N  N1  1  0.75828800  0.50102100  0.50054200  1
  N  N2  1  0.55236400  0.48212300  0.29044400  1
  N  N3  1  0.24214100  0.49894900  0.48954500  1
  O  O1  1  0.91659400  0.33095300  0.62302400  1
  O  O2  1  0.91730300  0.66918100  0.62309000  1
  O  O3  1  0.08849900  0.33603100  0.62004800  1
  O  O4  1  0.08910900  0.66360700  0.61989400  1
  O  O5  1  0.08330300  0.33028300  0.36691300  1
  O  O6  1  0.08400300  0.66915800  0.36688100  1
  O  O7  1  0.91136900  0.33613000  0.36989900  1
  O  O8  1  0.91213300  0.66436500  0.37019200  1
  O  O9  1  0.75375600  0.49001500  0.28597300  1
