# Generated by REPEAT Assigner based on pymatgen
data_DB0-m29_o84_o148_f0_pts.sym.47
_audit_creation_date              2022-05-24
_audit_creation_method            REPEAT_Assigner
_cell_length_a                    13.559523
_cell_length_b                    9.316508
_cell_length_c                    15.093960
_cell_angle_alpha                 86.901164
_cell_angle_beta                  100.224950
_cell_angle_gamma                 113.259757
_cell_volume                      1723.712386
_symmetry_space_group_name_H-M    P1
_symmetry_Int_Tables_number       1
loop_
    _symmetry_equiv_pos_site_id
    _symmetry_equiv_pos_as_xyz
    1  x,y,z
loop_
    _atom_site_type_symbol
    _atom_site_label
    _atom_site_fract_x
    _atom_site_fract_y
    _atom_site_fract_z
    _atom_type_partial_charge
    C   C1   0.195648  0.965806  0.912209  -0.035545
    C   C2   0.095469  0.937586  0.859152  -0.026727
    C   C3   0.014750  0.963129  0.892044  -0.146014
    C   C4   0.916985  0.940923  0.836146  0.372031
    C   C5   0.837467  0.970672  0.868835  -0.227630
    C   C6   0.213020  0.013754  0.001506  0.030117
    C   C7   0.131362  0.037620  0.034981  0.000686
    C   C8   0.032841  0.014117  0.979794  0.144846
    C   C9   0.952580  0.041850  0.012416  -0.047647
    C   C10  0.854431  0.019963  0.957483  0.019718
    C   C11  0.773652  0.045963  0.991686  0.008617
    C   C12  0.147631  0.086037  0.123665  -0.116259
    C   C13  0.067514  0.112457  0.155734  -0.162508
    C   C14  0.970426  0.090964  0.100393  0.208018
    C   C15  0.890516  0.114705  0.134659  -0.189553
    C   C16  0.791044  0.089955  0.081744  -0.001662
    H   H1   0.081878  0.900436  0.790000  0.099305
    H   H2   0.762486  0.956112  0.824675  0.117955
    H   H3   0.221358  0.102589  0.170631  0.144492
    H   H4   0.081327  0.149337  0.225124  0.129044
    H   H5   0.905772  0.149245  0.204587  0.153257
    O   O1   0.609973  0.085564  0.080290  -0.540844
    C   C17  0.703608  0.093429  0.126349  0.595211
    O   O2   0.541078  0.778945  0.158516  -0.522725
    O   O3   0.715277  0.088568  0.214515  -0.545913
    O   O4   0.494525  0.895632  0.262655  -0.578172
    C   C18  0.519026  0.781738  0.239449  0.646408
    Fe  Fe1  0.503996  0.044599  0.162791  1.478551
    O   O5   0.354928  0.944920  0.088731  -0.636949
    O   O6   0.380028  0.200970  0.080474  -0.502630
    C   C19  0.319674  0.054076  0.058552  0.653844
    O   O7   0.551779  0.257120  0.218632  -0.585566
    O   O8   0.428768  0.114542  0.306707  -0.464384
    C   C20  0.498633  0.249869  0.284671  0.627758
    O   O9   0.433930  0.820357  0.772545  -0.581487
    O   O10  0.560822  0.955190  0.686015  -0.571545
    C   C21  0.489067  0.822188  0.708813  0.617806
    O   O11  0.637149  0.124977  0.903696  -0.648255
    O   O12  0.602057  0.865665  0.914820  -0.517591
    C   C22  0.667209  0.011441  0.935206  0.728442
    O   O13  0.266717  0.942054  0.780628  -0.540106
    O   O14  0.500443  0.185147  0.731100  -0.526360
    C   C23  0.451076  0.278363  0.741312  0.551621
    O   O15  0.382656  0.996724  0.913118  -0.524631
    C   C24  0.283595  0.961129  0.868344  0.618977
    O   O16  0.409467  0.268498  0.814581  -0.498594
    Fe  Fe2  0.487320  0.033207  0.829807  1.447994
    C   C25  0.455756  0.542046  0.715829  -0.177351
    C   C26  0.475748  0.676072  0.666505  0.123649
    C   C27  0.492509  0.676811  0.579264  -0.288074
    C   C28  0.456009  0.408903  0.679521  -0.032745
    C   C29  0.465048  0.406315  0.588645  -0.018096
    C   C30  0.482822  0.540917  0.537705  0.173561
    C   C31  0.492514  0.536477  0.446807  -0.043105
    C   C32  0.502307  0.661983  0.389220  -0.119625
    C   C33  0.515796  0.653876  0.301265  -0.062582
    C   C34  0.453619  0.270336  0.546905  0.107065
    N   N1   0.468244  0.271338  0.461296  -0.305159
    C   C35  0.489052  0.400204  0.411374  0.301903
    C   C36  0.505539  0.394252  0.323954  -0.076959
    C   C37  0.522114  0.522493  0.270170  -0.118136
    H   H6   0.429817  0.159635  0.579912  0.149043
    H   H7   0.448794  0.546280  0.785744  0.186495
    H   H8   0.531543  0.514988  0.201223  0.189486
    H   H9   0.512833  0.787046  0.546112  0.152552
    H   H10  0.496754  0.766839  0.409320  0.166786
    O   O17  0.901547  0.890928  0.750364  -0.204472
    C   C38  0.808392  0.863353  0.688429  -0.027193
    C   C39  0.820690  0.805902  0.602525  0.148250
    C   C40  0.837523  0.669328  0.601465  -0.142008
    C   C41  0.848915  0.614848  0.522331  -0.085275
    C   C42  0.843482  0.696799  0.444064  -0.121923
    C   C43  0.826622  0.833234  0.444931  -0.045532
    C   C44  0.815202  0.887904  0.524020  -0.206182
    H   H11  0.794559  0.972950  0.676541  0.099408
    H   H12  0.737893  0.772302  0.713559  0.083994
    H   H13  0.841694  0.604630  0.662693  0.101880
    H   H14  0.862077  0.507817  0.521665  0.109018
    H   H15  0.852406  0.654076  0.382024  0.098867
    H   H16  0.822340  0.897453  0.383533  0.110015
    H   H17  0.802012  0.995029  0.523801  0.117042
