# generated using pymatgen
data_ZnH13C29NClO4
_symmetry_space_group_name_H-M   'P 1'
_cell_length_a   8.54463600
_cell_length_b   11.41893400
_cell_length_c   17.50230000
_cell_angle_alpha   90.86294900
_cell_angle_beta   90.07506200
_cell_angle_gamma   107.74503500
_symmetry_Int_Tables_number   1
_chemical_formula_structural   ZnH13C29NClO4
_chemical_formula_sum   'Zn2 H26 C58 N2 Cl2 O8'
_cell_volume   1626.24574510
_cell_formula_units_Z   2
loop_
 _symmetry_equiv_pos_site_id
 _symmetry_equiv_pos_as_xyz
  1  'x, y, z'
loop_
 _atom_site_type_symbol
 _atom_site_label
 _atom_site_symmetry_multiplicity
 _atom_site_fract_x
 _atom_site_fract_y
 _atom_site_fract_z
 _atom_site_occupancy
  Zn  Zn1  1  0.00532400  0.48855800  0.91368500  1
  Zn  Zn2  1  0.00615500  0.51163400  0.08431600  1
  H  H1  1  0.72028200  0.01421200  0.05320200  1
  H  H2  1  0.29591700  0.97857700  0.96192900  1
  H  H3  1  0.06558600  0.88714300  0.01532100  1
  H  H4  1  0.94500500  0.10962100  0.98915100  1
  H  H5  1  0.54951100  0.58836500  0.95747500  1
  H  H6  1  0.46184500  0.41597900  0.03213800  1
  H  H7  1  0.42883900  0.89545500  0.04743700  1
  H  H8  1  0.58471800  0.09709800  0.96656300  1
  H  H9  1  0.88261100  0.17969600  0.67349700  1
  H  H10  1  0.12177900  0.82063000  0.32517600  1
  H  H11  1  0.13602100  0.79111800  0.69910700  1
  H  H12  1  0.88356300  0.20915800  0.29894600  1
  H  H13  1  0.83961400  0.07976500  0.55268300  1
  H  H14  1  0.17064100  0.92038500  0.44555200  1
  H  H15  1  0.83959200  0.09005700  0.41318900  1
  H  H16  1  0.17634000  0.91014000  0.58495200  1
  H  H17  1  0.09091700  0.67218600  0.81206600  1
  H  H18  1  0.92757100  0.32814200  0.18600700  1
  H  H19  1  0.14271300  0.23035500  0.81118500  1
  H  H20  1  0.74180900  0.90990300  0.85377700  1
  H  H21  1  0.54822300  0.02680100  0.83062200  1
  H  H22  1  0.65193700  0.24553700  0.79858100  1
  H  H23  1  0.34133500  0.78419200  0.19925100  1
  H  H24  1  0.17670600  0.09162300  0.15045000  1
  H  H25  1  0.89009300  0.96002500  0.15881700  1
  H  H26  1  0.82928900  0.74151600  0.18886100  1
  C  C1  1  0.58705900  0.68406300  0.97470900  1
  C  C2  1  0.42475300  0.31854000  0.01964900  1
  C  C3  1  0.75172800  0.74553000  0.98547900  1
  C  C4  1  0.26008000  0.25499100  0.01228600  1
  C  C5  1  0.80228000  0.86847500  0.00678200  1
  C  C6  1  0.20985900  0.12969400  0.99665100  1
  C  C7  1  0.68445000  0.92252100  0.02870400  1
  C  C8  1  0.32895300  0.07338300  0.98043400  1
  C  C9  1  0.51940600  0.85579300  0.02578000  1
  C  C10  1  0.49367300  0.14040100  0.98205300  1
  C  C11  1  0.46977800  0.73829600  0.99526300  1
  C  C12  1  0.54223500  0.26240400  0.00372100  1
  C  C13  1  0.97896400  0.93792000  0.00754800  1
  C  C14  1  0.03293800  0.05970200  0.99657800  1
  C  C15  1  0.29706800  0.66256200  0.99665300  1
  C  C16  1  0.71474500  0.33761600  0.00154200  1
  C  C17  1  0.14792300  0.32849400  0.00820000  1
  C  C18  1  0.86277600  0.67114000  0.98964900  1
  C  C19  1  0.96189400  0.37304000  0.77149100  1
  C  C20  1  0.04506200  0.62740000  0.22664500  1
  C  C21  1  0.05522400  0.58808300  0.77841300  1
  C  C22  1  0.96172800  0.41226700  0.21963400  1
  C  C23  1  0.91882700  0.26939900  0.64799300  1
  C  C24  1  0.08985100  0.73079300  0.35031400  1
  C  C25  1  0.96404000  0.37661700  0.69213500  1
  C  C26  1  0.04728700  0.62367200  0.30602300  1
  C  C27  1  0.01038500  0.48841100  0.65641900  1
  C  C28  1  0.00585400  0.51184800  0.34167900  1
  C  C29  1  0.05597500  0.59463700  0.69986600  1
  C  C30  1  0.96182800  0.40565900  0.29819700  1
  C  C31  1  0.10073800  0.70745300  0.66491000  1
  C  C32  1  0.91836900  0.29281400  0.33315400  1
  C  C33  1  0.87491800  0.16839900  0.52560900  1
  C  C34  1  0.13771600  0.83175600  0.47259200  1
  C  C35  1  0.91967700  0.27526100  0.56927700  1
  C  C36  1  0.09298900  0.72487700  0.42894600  1
  C  C37  1  0.96449900  0.38764100  0.53413500  1
  C  C38  1  0.05143600  0.61252300  0.46401000  1
  C  C39  1  0.87484300  0.17412900  0.44699400  1
  C  C40  1  0.14104200  0.82606600  0.55114900  1
  C  C41  1  0.91901600  0.28672800  0.41183500  1
  C  C42  1  0.09870200  0.71348300  0.58626400  1
  C  C43  1  0.00984600  0.49421500  0.57774400  1
  C  C44  1  0.00711400  0.50598100  0.42036600  1
  C  C45  1  0.05359500  0.60675300  0.54266100  1
  C  C46  1  0.96374600  0.39343200  0.45545200  1
  C  C47  1  0.90419300  0.25373200  0.80791500  1
  C  C48  1  0.01253100  0.18739200  0.81940400  1
  C  C49  1  0.95418200  0.06420500  0.83644800  1
  C  C50  1  0.78753400  0.00693600  0.84169400  1
  C  C51  1  0.67910300  0.07251500  0.82886600  1
  C  C52  1  0.73734300  0.19570500  0.81204400  1
  C  C53  1  0.08127100  0.74702200  0.19061400  1
  C  C54  1  0.24221800  0.82131300  0.18642300  1
  C  C55  1  0.27642700  0.94496600  0.17172500  1
  C  C56  1  0.14994600  0.99437500  0.16057000  1
  C  C57  1  0.98929800  0.92059700  0.16522700  1
  C  C58  1  0.95514200  0.79745700  0.18080600  1
  N  N1  1  0.00764700  0.47859600  0.81351700  1
  N  N2  1  0.00404200  0.52179100  0.18450500  1
  Cl  Cl1  1  0.09088600  0.97828800  0.84601100  1
  Cl  Cl2  1  0.48011100  0.04116300  0.17268200  1
  O  O1  1  0.22885300  0.63183400  0.06356800  1
  O  O2  1  0.78242000  0.36852200  0.93441800  1
  O  O3  1  0.22503300  0.61630600  0.93175500  1
  O  O4  1  0.78676000  0.38365200  0.06638100  1
  O  O5  1  0.11631800  0.36190700  0.93989400  1
  O  O6  1  0.89469900  0.63796800  0.05799900  1
  O  O7  1  0.11197900  0.37710500  0.07168000  1
  O  O8  1  0.89972100  0.62317900  0.92625800  1
