# Generated by REPEAT Assigner based on pymatgen
data_DB0-m2_o2_o7_f0_nbo.sym.12
_audit_creation_date              2022-05-24
_audit_creation_method            REPEAT_Assigner
_cell_length_a                    29.990283
_cell_length_b                    29.990283
_cell_length_c                    35.173975
_cell_angle_alpha                 90.000000
_cell_angle_beta                  90.000000
_cell_angle_gamma                 90.000000
_cell_volume                      31636.073147
_symmetry_space_group_name_H-M    P1
_symmetry_Int_Tables_number       1
loop_
    _symmetry_equiv_pos_site_id
    _symmetry_equiv_pos_as_xyz
    1  x,y,z
loop_
    _atom_site_type_symbol
    _atom_site_label
    _atom_site_fract_x
    _atom_site_fract_y
    _atom_site_fract_z
    _atom_type_partial_charge
    O   O1    0.063346  0.463496  0.488729  -0.617680
    O   O2    0.463496  0.936654  0.488729  -0.617661
    O   O3    0.936654  0.536504  0.488729  -0.617647
    O   O4    0.536504  0.063346  0.488729  -0.617677
    O   O5    0.063346  0.536504  0.511271  -0.617663
    O   O6    0.463496  0.063346  0.511271  -0.617677
    O   O7    0.936654  0.463496  0.511271  -0.617699
    O   O8    0.536504  0.936654  0.511271  -0.617696
    O   O9    0.563346  0.963496  0.988729  -0.617676
    O   O10   0.963496  0.436654  0.988729  -0.617722
    O   O11   0.436654  0.036504  0.988729  -0.617681
    O   O12   0.036504  0.563346  0.988729  -0.617708
    O   O13   0.563346  0.036504  0.011271  -0.617699
    O   O14   0.963496  0.563346  0.011271  -0.617740
    O   O15   0.436654  0.963496  0.011271  -0.617694
    O   O16   0.036504  0.436654  0.011271  -0.617722
    C   C1    0.084180  0.500000  0.500000  0.773735
    C   C2    0.500000  0.915820  0.500000  0.773719
    C   C3    0.915820  0.500000  0.500000  0.773729
    C   C4    0.500000  0.084180  0.500000  0.773723
    C   C5    0.584180  0.000000  0.000000  0.773704
    C   C6    0.000000  0.415820  0.000000  0.773785
    C   C7    0.415820  0.000000  0.000000  0.773702
    C   C8    0.000000  0.584180  0.000000  0.773792
    O   O17   0.986732  0.463524  0.446035  -0.601116
    O   O18   0.463525  0.013268  0.446035  -0.601106
    O   O19   0.013268  0.536476  0.446035  -0.601088
    O   O20   0.536476  0.986732  0.446035  -0.601131
    O   O21   0.986732  0.536476  0.553965  -0.601116
    O   O22   0.463525  0.986732  0.553965  -0.601134
    O   O23   0.013268  0.463524  0.553965  -0.601144
    O   O24   0.536476  0.013268  0.553965  -0.601158
    O   O25   0.486732  0.963524  0.946035  -0.601114
    O   O26   0.963524  0.513268  0.946035  -0.601146
    O   O27   0.513268  0.036476  0.946035  -0.601116
    O   O28   0.036476  0.486732  0.946035  -0.601130
    O   O29   0.486732  0.036476  0.053965  -0.601118
    O   O30   0.963524  0.486732  0.053965  -0.601148
    O   O31   0.513268  0.963524  0.053965  -0.601116
    O   O32   0.036476  0.513268  0.053965  -0.601131
    C   C9    0.000000  0.500000  0.428162  0.688131
    C   C10   0.500000  0.000000  0.428162  0.688145
    C   C11   0.000000  0.500000  0.571838  0.688207
    C   C12   0.500000  0.000000  0.571838  0.688222
    C   C13   0.500000  0.000000  0.928162  0.688045
    C   C14   0.000000  0.500000  0.928162  0.688109
    C   C15   0.500000  0.000000  0.071838  0.688136
    C   C16   0.000000  0.500000  0.071838  0.688197
    Cu  Cu1   0.000000  0.456656  0.500000  0.967125
    Cu  Cu2   0.456656  0.000000  0.500000  0.967126
    Cu  Cu3   0.000000  0.543344  0.500000  0.967145
    Cu  Cu4   0.543344  0.000000  0.500000  0.967114
    Cu  Cu5   0.500000  0.956656  0.000000  0.967133
    Cu  Cu6   0.956656  0.500000  0.000000  0.967062
    Cu  Cu7   0.500000  0.043344  0.000000  0.967117
    Cu  Cu8   0.043344  0.500000  0.000000  0.967135
    C   C17   0.037161  0.514125  0.172532  -0.201789
    C   C18   0.514125  0.962838  0.172532  -0.201791
    C   C19   0.962839  0.485875  0.172532  -0.201793
    C   C20   0.485875  0.037161  0.172532  -0.201785
    C   C21   0.037161  0.485875  0.827468  -0.201789
    C   C22   0.514125  0.037161  0.827468  -0.201787
    C   C23   0.962838  0.514125  0.827468  -0.201794
    C   C24   0.485875  0.962838  0.827468  -0.201794
    C   C25   0.537162  0.014125  0.672532  -0.201787
    C   C26   0.014125  0.462839  0.672532  -0.201795
    C   C27   0.462839  0.985875  0.672532  -0.201789
    C   C28   0.985875  0.537161  0.672532  -0.201792
    C   C29   0.537162  0.985875  0.327468  -0.201790
    C   C30   0.014125  0.537161  0.327468  -0.201794
    C   C31   0.462839  0.014125  0.327468  -0.201789
    C   C32   0.985875  0.462839  0.327468  -0.201797
    H   H1    0.066315  0.525214  0.187927  0.135634
    H   H2    0.525214  0.933685  0.187927  0.135647
    H   H3    0.933685  0.474786  0.187927  0.135637
    H   H4    0.474786  0.066315  0.187927  0.135639
    H   H5    0.066315  0.474786  0.812073  0.135639
    H   H6    0.525214  0.066315  0.812073  0.135642
    H   H7    0.933685  0.525214  0.812073  0.135648
    H   H8    0.474786  0.933685  0.812073  0.135651
    H   H9    0.566315  0.025214  0.687927  0.135644
    H   H10   0.025214  0.433685  0.687927  0.135636
    H   H11   0.433685  0.974786  0.687927  0.135637
    H   H12   0.974786  0.566315  0.687927  0.135636
    H   H13   0.566315  0.974786  0.312073  0.135647
    H   H14   0.025214  0.566315  0.312073  0.135640
    H   H15   0.433685  0.025214  0.312073  0.135640
    H   H16   0.974786  0.433685  0.312073  0.135639
    C   C33   0.037249  0.514151  0.133342  -0.094529
    C   C34   0.514151  0.962751  0.133342  -0.094532
    C   C35   0.962751  0.485849  0.133342  -0.094526
    C   C36   0.485849  0.037249  0.133342  -0.094533
    C   C37   0.037249  0.485849  0.866658  -0.094537
    C   C38   0.514151  0.037249  0.866658  -0.094544
    C   C39   0.962751  0.514151  0.866658  -0.094538
    C   C40   0.485849  0.962751  0.866658  -0.094543
    C   C41   0.537249  0.014151  0.633342  -0.094538
    C   C42   0.014151  0.462751  0.633342  -0.094529
    C   C43   0.462751  0.985849  0.633342  -0.094528
    C   C44   0.985849  0.537249  0.633342  -0.094529
    C   C45   0.537249  0.985849  0.366658  -0.094531
    C   C46   0.014151  0.537249  0.366658  -0.094523
    C   C47   0.462751  0.014151  0.366658  -0.094523
    C   C48   0.985849  0.462751  0.366658  -0.094521
    H   H17   0.066781  0.525398  0.118599  0.127561
    H   H18   0.525398  0.933219  0.118599  0.127565
    H   H19   0.933219  0.474602  0.118599  0.127560
    H   H20   0.474602  0.066781  0.118599  0.127567
    H   H21   0.066781  0.474602  0.881401  0.127560
    H   H22   0.525398  0.066781  0.881401  0.127566
    H   H23   0.933219  0.525398  0.881401  0.127559
    H   H24   0.474602  0.933219  0.881401  0.127565
    H   H25   0.566781  0.025398  0.618599  0.127570
    H   H26   0.025398  0.433219  0.618599  0.127568
    H   H27   0.433219  0.974602  0.618599  0.127568
    H   H28   0.974602  0.566781  0.618599  0.127569
    H   H29   0.566781  0.974602  0.381401  0.127561
    H   H30   0.025398  0.566781  0.381401  0.127560
    H   H31   0.433219  0.025398  0.381401  0.127560
    H   H32   0.974602  0.433219  0.381401  0.127559
    C   C49   0.000000  0.500000  0.113512  -0.032350
    C   C50   0.500000  0.000000  0.113512  -0.032328
    C   C51   0.000000  0.500000  0.886488  -0.032286
    C   C52   0.500000  0.000000  0.886488  -0.032262
    C   C53   0.500000  0.000000  0.613512  -0.032359
    C   C54   0.000000  0.500000  0.613512  -0.032350
    C   C55   0.500000  0.000000  0.386488  -0.032330
    C   C56   0.000000  0.500000  0.386488  -0.032322
    C   C57   0.000000  0.500000  0.192114  0.290496
    C   C58   0.500000  0.000000  0.192114  0.290492
    C   C59   0.000000  0.500000  0.807886  0.290458
    C   C60   0.500000  0.000000  0.807886  0.290471
    C   C61   0.500000  0.000000  0.692114  0.290501
    C   C62   0.000000  0.500000  0.692114  0.290515
    C   C63   0.500000  0.000000  0.307886  0.290478
    C   C64   0.000000  0.500000  0.307886  0.290489
    C   C65   0.000000  0.500000  0.232880  -0.161658
    C   C66   0.500000  0.000000  0.232880  -0.161656
    C   C67   0.000000  0.500000  0.767120  -0.161611
    C   C68   0.500000  0.000000  0.767120  -0.161618
    C   C69   0.500000  0.000000  0.732880  -0.161679
    C   C70   0.000000  0.500000  0.732880  -0.161694
    C   C71   0.500000  0.000000  0.267120  -0.161639
    C   C72   0.000000  0.500000  0.267120  -0.161651
    C   C73   0.201803  0.518813  0.529867  -0.474276
    C   C74   0.518812  0.798197  0.529867  -0.474312
    C   C75   0.798197  0.481188  0.529867  -0.474303
    C   C76   0.481188  0.201803  0.529867  -0.474304
    C   C77   0.201803  0.481187  0.470133  -0.474291
    C   C78   0.518812  0.201803  0.470133  -0.474320
    C   C79   0.798197  0.518812  0.470133  -0.474318
    C   C80   0.481188  0.798197  0.470133  -0.474308
    C   C81   0.701803  0.018814  0.029866  -0.474141
    C   C82   0.018811  0.298197  0.029868  -0.474251
    C   C83   0.298197  0.981186  0.029866  -0.474156
    C   C84   0.981189  0.701803  0.029868  -0.474265
    C   C85   0.701803  0.981186  0.970134  -0.474161
    C   C86   0.018811  0.701803  0.970132  -0.474291
    C   C87   0.298197  0.018814  0.970134  -0.474198
    C   C88   0.981189  0.298197  0.970132  -0.474279
    H   H33   0.219167  0.532494  0.554101  0.181223
    H   H34   0.532494  0.780833  0.554101  0.181232
    H   H35   0.780833  0.467506  0.554101  0.181225
    H   H36   0.467507  0.219167  0.554101  0.181229
    H   H37   0.219167  0.467506  0.445899  0.181230
    H   H38   0.532494  0.219167  0.445899  0.181231
    H   H39   0.780833  0.532494  0.445899  0.181227
    H   H40   0.467507  0.780833  0.445899  0.181228
    H   H41   0.719167  0.032497  0.054100  0.181174
    H   H42   0.032491  0.280833  0.054103  0.181216
    H   H43   0.280833  0.967503  0.054100  0.181181
    H   H44   0.967509  0.719167  0.054103  0.181220
    H   H45   0.719167  0.967503  0.945900  0.181183
    H   H46   0.032491  0.719167  0.945897  0.181233
    H   H47   0.280833  0.032497  0.945900  0.181198
    H   H48   0.967509  0.280833  0.945897  0.181227
    C   C89   0.155864  0.519800  0.529379  0.027287
    C   C90   0.519800  0.844136  0.529379  0.027301
    C   C91   0.844136  0.480200  0.529379  0.027294
    C   C92   0.480201  0.155864  0.529379  0.027292
    C   C93   0.155864  0.480200  0.470621  0.027279
    C   C94   0.519800  0.155864  0.470621  0.027294
    C   C95   0.844136  0.519800  0.470621  0.027305
    C   C96   0.480201  0.844136  0.470621  0.027296
    C   C97   0.655864  0.019801  0.029379  0.027210
    C   C98   0.019798  0.344136  0.029380  0.027249
    C   C99   0.344136  0.980199  0.029378  0.027211
    C   C100  0.980202  0.655864  0.029380  0.027252
    C   C101  0.655864  0.980199  0.970621  0.027194
    C   C102  0.019798  0.655864  0.970620  0.027247
    C   C103  0.344136  0.019801  0.970622  0.027216
    C   C104  0.980202  0.344136  0.970620  0.027246
    H   H49   0.138030  0.534773  0.552834  0.108093
    H   H50   0.534772  0.861970  0.552834  0.108090
    H   H51   0.861970  0.465227  0.552834  0.108094
    H   H52   0.465228  0.138030  0.552834  0.108090
    H   H53   0.138030  0.465227  0.447166  0.108097
    H   H54   0.534773  0.138030  0.447166  0.108095
    H   H55   0.861970  0.534773  0.447166  0.108092
    H   H56   0.465228  0.861970  0.447166  0.108091
    H   H57   0.638030  0.034775  0.052833  0.108112
    H   H58   0.034770  0.361970  0.052836  0.108098
    H   H59   0.361970  0.965224  0.052833  0.108105
    H   H60   0.965230  0.638030  0.052836  0.108098
    H   H61   0.638030  0.965224  0.947167  0.108117
    H   H62   0.034770  0.638030  0.947164  0.108098
    H   H63   0.361970  0.034776  0.947167  0.108103
    H   H64   0.965230  0.361970  0.947164  0.108097
    C   C105  0.132814  0.500000  0.500000  -0.195770
    C   C106  0.500000  0.867186  0.500000  -0.195773
    C   C107  0.867186  0.500000  0.500000  -0.195768
    C   C108  0.500000  0.132814  0.500000  -0.195771
    C   C109  0.632814  0.000000  0.000000  -0.195691
    C   C110  0.000000  0.367186  0.000000  -0.195741
    C   C111  0.367186  0.000000  0.000000  -0.195688
    C   C112  0.000000  0.632814  0.000000  -0.195750
    C   C113  0.225211  0.500000  0.500000  0.802231
    C   C114  0.500000  0.774789  0.500000  0.802265
    C   C115  0.774788  0.500000  0.500000  0.802268
    C   C116  0.500000  0.225211  0.500000  0.802270
    C   C117  0.725212  0.000000  0.000000  0.802156
    C   C118  0.000000  0.274788  0.000000  0.802246
    C   C119  0.274789  0.000000  0.000000  0.802179
    C   C120  0.000000  0.725211  0.000000  0.802261
    C   C121  0.297799  0.461311  0.491804  0.325751
    C   C122  0.461311  0.702201  0.491803  0.325744
    C   C123  0.702200  0.538689  0.491804  0.325739
    C   C124  0.538689  0.297799  0.491803  0.325745
    C   C125  0.297799  0.538689  0.508196  0.325688
    C   C126  0.461311  0.297799  0.508197  0.325648
    C   C127  0.702200  0.461311  0.508196  0.325642
    C   C128  0.538689  0.702200  0.508197  0.325629
    C   C129  0.797800  0.961310  0.991805  0.326789
    C   C130  0.961311  0.202200  0.991802  0.325837
    C   C131  0.202201  0.038690  0.991805  0.326730
    C   C132  0.038689  0.797799  0.991802  0.325844
    C   C133  0.797800  0.038690  0.008195  0.326762
    C   C134  0.961311  0.797799  0.008198  0.325834
    C   C135  0.202201  0.961310  0.008194  0.326752
    C   C136  0.038689  0.202200  0.008198  0.325817
    C   C137  0.343772  0.461702  0.491194  0.182785
    C   C138  0.461702  0.656228  0.491193  0.182777
    C   C139  0.656228  0.538298  0.491194  0.182815
    C   C140  0.538298  0.343772  0.491193  0.182785
    C   C141  0.343772  0.538298  0.508806  0.182844
    C   C142  0.461702  0.343772  0.508807  0.182864
    C   C143  0.656228  0.461702  0.508806  0.182892
    C   C144  0.538298  0.656228  0.508807  0.182884
    C   C145  0.843772  0.961701  0.991195  0.181462
    C   C146  0.961702  0.156228  0.991191  0.182640
    C   C147  0.156228  0.038299  0.991196  0.181569
    C   C148  0.038298  0.843772  0.991191  0.182642
    C   C149  0.843772  0.038299  0.008805  0.181455
    C   C150  0.961702  0.843772  0.008809  0.182608
    C   C151  0.156228  0.961701  0.008804  0.181503
    C   C152  0.038298  0.156228  0.008809  0.182624
    C   C153  0.366826  0.500000  0.500000  -0.374548
    C   C154  0.500000  0.633174  0.500000  -0.374551
    C   C155  0.633174  0.500000  0.500000  -0.374582
    C   C156  0.500000  0.366826  0.500000  -0.374551
    C   C157  0.866826  0.000000  0.000000  -0.373255
    C   C158  0.000000  0.133174  0.000000  -0.374297
    C   C159  0.133175  0.000000  0.000000  -0.373341
    C   C160  0.000000  0.866825  0.000000  -0.374289
    C   C161  0.274323  0.500000  0.500000  -0.595399
    C   C162  0.500000  0.725677  0.500000  -0.595379
    C   C163  0.725677  0.500000  0.500000  -0.595386
    C   C164  0.500000  0.274323  0.500000  -0.595391
    C   C165  0.774323  0.000000  0.000000  -0.596192
    C   C166  0.000000  0.225677  0.000000  -0.595524
    C   C167  0.225677  0.000000  0.000000  -0.596173
    C   C168  0.000000  0.774323  0.000000  -0.595537
    O   O33   0.512674  0.563610  0.468725  -0.638198
    O   O34   0.563610  0.487326  0.468725  -0.638201
    O   O35   0.487326  0.436390  0.468725  -0.638200
    O   O36   0.436390  0.512674  0.468725  -0.638194
    O   O37   0.512674  0.436390  0.531275  -0.638180
    O   O38   0.563610  0.512674  0.531275  -0.638184
    O   O39   0.487326  0.563610  0.531275  -0.638178
    O   O40   0.436390  0.487326  0.531275  -0.638179
    O   O41   0.012674  0.063610  0.968725  -0.638283
    O   O42   0.063610  0.987326  0.968725  -0.638241
    O   O43   0.987326  0.936390  0.968725  -0.638283
    O   O44   0.936390  0.012674  0.968725  -0.638242
    O   O45   0.012674  0.936390  0.031275  -0.638252
    O   O46   0.063610  0.012674  0.031275  -0.638208
    O   O47   0.987326  0.063610  0.031275  -0.638255
    O   O48   0.936390  0.987326  0.031275  -0.638210
    C   C169  0.500000  0.584466  0.500000  0.945648
    C   C170  0.584466  0.500000  0.500000  0.945664
    C   C171  0.500000  0.415534  0.500000  0.945655
    C   C172  0.415534  0.500000  0.500000  0.945646
    C   C173  0.000000  0.084466  0.000000  0.945657
    C   C174  0.084466  0.000000  0.000000  0.945545
    C   C175  0.000000  0.915534  0.000000  0.945639
    C   C176  0.915534  0.000000  0.000000  0.945528
    Cu  Cu9   0.500000  0.500000  0.462943  0.928597
    Cu  Cu10  0.500000  0.500000  0.537057  0.928609
    Cu  Cu11  0.000000  0.000000  0.962943  0.928638
    Cu  Cu12  0.000000  0.000000  0.037057  0.928618
    O   O49   0.275936  0.421960  0.485699  -0.489617
    H   H65   0.279793  0.415973  0.458210  0.330380
    O   O50   0.421960  0.724064  0.485698  -0.489605
    H   H66   0.415974  0.720207  0.458209  0.330377
    O   O51   0.724064  0.578040  0.485698  -0.489624
    H   H67   0.720207  0.584026  0.458210  0.330385
    O   O52   0.578040  0.275936  0.485698  -0.489609
    H   H68   0.584026  0.279793  0.458209  0.330376
    O   O53   0.275936  0.578040  0.514301  -0.489597
    H   H69   0.279793  0.584027  0.541790  0.330382
    O   O54   0.421960  0.275936  0.514302  -0.489563
    H   H70   0.415974  0.279793  0.541791  0.330369
    O   O55   0.724064  0.421960  0.514302  -0.489586
    H   H71   0.720207  0.415974  0.541790  0.330378
    O   O56   0.578040  0.724064  0.514302  -0.489563
    H   H72   0.584026  0.720207  0.541791  0.330364
    O   O57   0.775936  0.921959  0.985702  -0.489729
    H   H73   0.779793  0.915971  0.958214  0.330367
    O   O58   0.921961  0.224064  0.985694  -0.489615
    H   H74   0.915976  0.220207  0.958206  0.330382
    O   O59   0.224064  0.078041  0.985702  -0.489717
    H   H75   0.220207  0.084029  0.958214  0.330367
    O   O60   0.078039  0.775936  0.985694  -0.489617
    H   H76   0.084024  0.779793  0.958206  0.330384
    O   O61   0.775936  0.078041  0.014298  -0.489724
    H   H77   0.779793  0.084029  0.041786  0.330369
    O   O62   0.921961  0.775936  0.014306  -0.489616
    H   H78   0.915976  0.779793  0.041794  0.330388
    O   O63   0.224064  0.921959  0.014298  -0.489733
    H   H79   0.220207  0.915971  0.041786  0.330376
    O   O64   0.078039  0.224064  0.014306  -0.489613
    H   H80   0.084024  0.220207  0.041794  0.330385
    O   O65   0.366511  0.423867  0.481829  -0.424359
    H   H81   0.370631  0.425844  0.453953  0.336882
    O   O66   0.423867  0.633489  0.481828  -0.424360
    H   H82   0.425845  0.629369  0.453952  0.336884
    O   O67   0.633489  0.576133  0.481828  -0.424387
    H   H83   0.629369  0.574156  0.453953  0.336894
    O   O68   0.576133  0.366511  0.481828  -0.424358
    H   H84   0.574155  0.370631  0.453952  0.336881
    O   O69   0.366511  0.576133  0.518171  -0.424375
    H   H85   0.370631  0.574156  0.546047  0.336880
    O   O70   0.423867  0.366511  0.518172  -0.424384
    H   H86   0.425845  0.370630  0.546048  0.336882
    O   O71   0.633489  0.423867  0.518172  -0.424406
    H   H87   0.629369  0.425844  0.546047  0.336895
    O   O72   0.576133  0.633489  0.518172  -0.424385
    H   H88   0.574155  0.629369  0.546048  0.336882
    O   O73   0.866511  0.923865  0.981832  -0.424154
    H   H89   0.870631  0.925841  0.953956  0.336917
    O   O74   0.923868  0.133489  0.981824  -0.424415
    H   H90   0.925848  0.129369  0.953948  0.336943
    O   O75   0.133489  0.076134  0.981832  -0.424181
    H   H91   0.129369  0.074158  0.953956  0.336922
    O   O76   0.076132  0.866511  0.981824  -0.424402
    H   H92   0.074152  0.870630  0.953948  0.336937
    O   O77   0.866511  0.076134  0.018168  -0.424119
    H   H93   0.870631  0.074158  0.046044  0.336905
    O   O78   0.923868  0.866511  0.018176  -0.424367
    H   H94   0.925848  0.870630  0.046052  0.336925
    O   O79   0.133489  0.923865  0.018168  -0.424139
    H   H95   0.129369  0.925841  0.046044  0.336907
    O   O80   0.076132  0.133489  0.018176  -0.424377
    H   H96   0.074152  0.129369  0.046052  0.336925
