# generated using pymatgen
data_Fe2H7C40I7(NO4)4
_symmetry_space_group_name_H-M   'P 1'
_cell_length_a   13.95635400
_cell_length_b   16.99564600
_cell_length_c   13.21364900
_cell_angle_alpha   104.65047000
_cell_angle_beta   86.85939300
_cell_angle_gamma   66.57890800
_symmetry_Int_Tables_number   1
_chemical_formula_structural   Fe2H7C40I7(NO4)4
_chemical_formula_sum   'Fe2 H7 C40 I7 N4 O16'
_cell_volume   2739.58233014
_cell_formula_units_Z   1
loop_
 _symmetry_equiv_pos_site_id
 _symmetry_equiv_pos_as_xyz
  1  'x, y, z'
loop_
 _atom_site_type_symbol
 _atom_site_label
 _atom_site_symmetry_multiplicity
 _atom_site_fract_x
 _atom_site_fract_y
 _atom_site_fract_z
 _atom_site_occupancy
  Fe  Fe1  1  0.48931200  0.99785000  0.33605000  1
  Fe  Fe2  1  0.50791100  0.99954600  0.73471900  1
  H  H1  1  0.80940000  0.01431800  0.77108200  1
  H  H2  1  0.40870200  0.98632300  0.02178500  1
  H  H3  1  0.15021500  0.00677200  0.22201700  1
  H  H4  1  0.00146400  0.00933900  0.15822900  1
  H  H5  1  0.85457800  0.01089800  0.18253000  1
  H  H6  1  0.58381400  0.02170900  0.04827800  1
  H  H7  1  0.12048800  0.46192400  0.77190800  1
  C  C1  1  0.86544100  0.00997800  0.01623000  1
  C  C2  1  0.80937400  0.01066500  0.93219000  1
  C  C3  1  0.85455300  0.00649000  0.83452700  1
  C  C4  1  0.95645600  0.99759900  0.81643300  1
  C  C5  1  0.01772400  0.98882800  0.89586100  1
  C  C6  1  0.97055700  0.00057000  0.99766100  1
  C  C7  1  0.12554900  0.96815700  0.87436500  1
  C  C8  1  0.17918700  0.98200100  0.95767800  1
  C  C9  1  0.13278000  0.99296000  0.05865200  1
  C  C10  1  0.03124600  0.00029400  0.07762000  1
  C  C11  1  0.27988100  0.98106200  0.94321500  1
  C  C12  1  0.33289000  0.98331400  0.02842100  1
  C  C13  1  0.28834500  0.98969600  0.12676600  1
  C  C14  1  0.18746300  0.99595100  0.14273600  1
  C  C15  1  0.81616700  0.01440700  0.11461900  1
  C  C16  1  0.71446500  0.02008700  0.12748500  1
  C  C17  1  0.66136300  0.02151500  0.04297000  1
  C  C18  1  0.70773100  0.01569300  0.94612200  1
  C  C19  1  0.66241200  0.01649300  0.22509000  1
  C  C20  1  0.64328900  0.83551700  0.34220200  1
  C  C21  1  0.34022600  0.01235300  0.21494300  1
  C  C22  1  0.34372200  0.13583100  0.50407800  1
  C  C23  1  0.66574000  0.87054400  0.56705800  1
  C  C24  1  0.65577300  0.99209500  0.85791900  1
  C  C25  1  0.36248600  0.16838900  0.73174500  1
  C  C26  1  0.33011200  0.99095900  0.84858200  1
  C  C27  1  0.28433800  0.22414700  0.58269300  1
  C  C28  1  0.21370600  0.29047000  0.54648700  1
  C  C29  1  0.15488200  0.37570600  0.61391500  1
  C  C30  1  0.16562900  0.39464000  0.71893200  1
  C  C31  1  0.23480800  0.32952400  0.75765700  1
  C  C32  1  0.29415300  0.24180800  0.69032200  1
  C  C33  1  0.94122000  0.56596200  0.49647500  1
  C  C34  1  0.07975200  0.44502200  0.57445100  1
  C  C35  1  0.84688400  0.61248700  0.35313600  1
  C  C36  1  0.77360500  0.67679600  0.31638600  1
  C  C37  1  0.71540100  0.76420600  0.38331400  1
  C  C38  1  0.73133700  0.78407100  0.48833500  1
  C  C39  1  0.80788400  0.71996200  0.52260700  1
  C  C40  1  0.86513300  0.63399100  0.45592000  1
  I  I1  1  0.24668700  0.37682600  0.91891200  1
  I  I2  1  0.92505700  0.47983200  0.25079100  1
  I  I3  1  0.74723300  0.63085300  0.16070700  1
  I  I4  1  0.84376700  0.75573500  0.67575200  1
  I  I5  1  0.99714400  0.02474200  0.67628300  1
  I  I6  1  0.21777000  0.86306900  0.73298100  1
  I  I7  1  0.18492000  0.25760500  0.38985000  1
  N  N1  1  0.97575800  0.48273200  0.61527600  1
  N  N2  1  0.90727400  0.54236800  0.57653400  1
  N  N3  1  0.04546600  0.52933500  0.45683300  1
  N  N4  1  0.11391000  0.46945400  0.49532800  1
  O  O1  1  0.56762900  0.01840300  0.22350700  1
  O  O2  1  0.66841400  0.83580500  0.24528100  1
  O  O3  1  0.71112400  0.00363100  0.30566200  1
  O  O4  1  0.55975700  0.90407900  0.40493100  1
  O  O5  1  0.38611500  0.95577500  0.26814500  1
  O  O6  1  0.36489200  0.08002300  0.22195100  1
  O  O7  1  0.43554700  0.11705000  0.44870300  1
  O  O8  1  0.30275900  0.07725700  0.48528000  1
  O  O9  1  0.57631500  0.88149000  0.61948400  1
  O  O10  1  0.69870500  0.93428800  0.58982800  1
  O  O11  1  0.59870200  0.05165400  0.81296300  1
  O  O12  1  0.64190100  0.91851700  0.84457200  1
  O  O13  1  0.27338600  0.03466800  0.78797600  1
  O  O14  1  0.43287500  0.09222900  0.66598000  1
  O  O15  1  0.43256600  0.96872600  0.83899300  1
  O  O16  1  0.34794200  0.17525800  0.83298200  1
