# generated using pymatgen
data_V4H16C48N8O21
_symmetry_space_group_name_H-M   'P 1'
_cell_length_a   6.32698600
_cell_length_b   23.49435300
_cell_length_c   22.56790000
_cell_angle_alpha   105.48380400
_cell_angle_beta   89.48254900
_cell_angle_gamma   90.50637000
_symmetry_Int_Tables_number   1
_chemical_formula_structural   V4H16C48N8O21
_chemical_formula_sum   'V4 H16 C48 N8 O21'
_cell_volume   3232.72443211
_cell_formula_units_Z   1
loop_
 _symmetry_equiv_pos_site_id
 _symmetry_equiv_pos_as_xyz
  1  'x, y, z'
loop_
 _atom_site_type_symbol
 _atom_site_label
 _atom_site_symmetry_multiplicity
 _atom_site_fract_x
 _atom_site_fract_y
 _atom_site_fract_z
 _atom_site_occupancy
  V  V1  1  0.91561400  0.49255500  0.49915900  1
  V  V2  1  0.41591600  0.50662100  0.50052100  1
  V  V3  1  0.29122600  0.00705500  0.00086700  1
  V  V4  1  0.79105600  0.99288000  0.99939800  1
  H  H1  1  0.35185100  0.87828300  0.07615600  1
  H  H2  1  0.37340000  0.80667200  0.13763500  1
  H  H3  1  0.80556000  0.87539900  0.23172600  1
  H  H4  1  0.78433400  0.94740400  0.17017900  1
  H  H5  1  0.39748000  0.62257200  0.26680800  1
  H  H6  1  0.42095600  0.55130300  0.32915000  1
  H  H7  1  0.82859100  0.69090500  0.36052400  1
  H  H8  1  0.34279100  0.45362900  0.66992000  1
  H  H9  1  0.34040300  0.38190700  0.73220200  1
  H  H10  1  0.90183300  0.30404900  0.64122300  1
  H  H11  1  0.90352500  0.37520800  0.57902000  1
  H  H12  1  0.30439300  0.19587000  0.85920800  1
  H  H13  1  0.30298400  0.12463000  0.92132600  1
  H  H14  1  0.86346800  0.04627400  0.83021400  1
  H  H15  1  0.86556600  0.11806400  0.76801400  1
  H  H16  1  0.71162300  0.59187500  0.41080800  1
  C  C1  1  0.61861000  0.45504500  0.57851000  1
  C  C2  1  0.65809000  0.42464100  0.40890900  1
  C  C3  1  0.15808400  0.54465900  0.42119100  1
  C  C4  1  0.11571400  0.57458200  0.59055900  1
  C  C5  1  0.11061400  0.62778900  0.64088900  1
  C  C6  1  0.10765600  0.67315200  0.68204000  1
  C  C7  1  0.10499800  0.72694600  0.72968100  1
  C  C8  1  0.10287300  0.77287100  0.77007500  1
  C  C9  1  0.10005300  0.82665300  0.81772900  1
  C  C10  1  0.09686800  0.87199100  0.85890800  1
  C  C11  1  0.23414400  0.87834400  0.11119300  1
  C  C12  1  0.24598700  0.83821600  0.14542700  1
  C  C13  1  0.09096300  0.83694100  0.18814300  1
  C  C14  1  0.92725300  0.87682200  0.19820800  1
  C  C15  1  0.91565000  0.91720800  0.16394100  1
  C  C16  1  0.06796300  0.91718800  0.11992900  1
  C  C17  1  0.10450500  0.70602900  0.27743500  1
  C  C18  1  0.09712100  0.79148500  0.22060000  1
  C  C19  1  0.27597300  0.62118700  0.30038800  1
  C  C20  1  0.28887300  0.58122200  0.33511100  1
  C  C21  1  0.13697600  0.58137800  0.37927300  1
  C  C22  1  0.96981400  0.61987800  0.38765800  1
  C  C23  1  0.95665400  0.65957500  0.35296000  1
  C  C24  1  0.11138200  0.66077800  0.31014200  1
  C  C25  1  0.46779600  0.42155700  0.66464200  1
  C  C26  1  0.46619700  0.38131000  0.69931100  1
  C  C27  1  0.62139700  0.33888600  0.69022200  1
  C  C28  1  0.78130600  0.33756700  0.64828900  1
  C  C29  1  0.78241800  0.37744000  0.61364900  1
  C  C30  1  0.62452700  0.41872600  0.62118400  1
  C  C31  1  0.59297200  0.20679400  0.77795500  1
  C  C32  1  0.61303300  0.29317100  0.72239400  1
  C  C33  1  0.42492900  0.16235200  0.85207800  1
  C  C34  1  0.42396900  0.12243600  0.88667000  1
  C  C35  1  0.58186700  0.08114300  0.87904600  1
  C  C36  1  0.73846200  0.07835300  0.83555700  1
  C  C37  1  0.73989700  0.11863700  0.80093600  1
  C  C38  1  0.58469300  0.16106300  0.81010700  1
  C  C39  1  0.64254800  0.37152200  0.35872800  1
  C  C40  1  0.62829200  0.32625600  0.31772400  1
  C  C41  1  0.61074400  0.27260000  0.27026600  1
  C  C42  1  0.59561300  0.22680000  0.23001900  1
  C  C43  1  0.57809500  0.17316200  0.18253000  1
  C  C44  1  0.56391300  0.12792600  0.14148100  1
  C  C45  1  0.54854700  0.07485600  0.09122800  1
  C  C46  1  0.58797300  0.04475500  0.92165000  1
  C  C47  1  0.09142700  0.92514300  0.90929400  1
  C  C48  1  0.04825400  0.95446100  0.07851700  1
  N  N1  1  0.94306700  0.78800000  0.26084100  1
  N  N2  1  0.94713800  0.74562000  0.28919100  1
  N  N3  1  0.25851900  0.70950500  0.23718200  1
  N  N4  1  0.25443800  0.75188200  0.20882900  1
  N  N5  1  0.76196700  0.25110100  0.71099900  1
  N  N6  1  0.75248600  0.20826800  0.73872700  1
  N  N7  1  0.44402500  0.24886300  0.78935100  1
  N  N8  1  0.45350300  0.29169700  0.76162000  1
  O  O1  1  0.53538500  0.42930500  0.45699800  1
  O  O2  1  0.73480700  0.43626400  0.52819500  1
  O  O3  1  0.95195300  0.53803500  0.58539400  1
  O  O4  1  0.83072300  0.45630900  0.41324300  1
  O  O5  1  0.04056600  0.55767800  0.47046500  1
  O  O6  1  0.45189300  0.48899600  0.58032900  1
  O  O7  1  0.64283300  0.54451600  0.50522200  1
  O  O8  1  0.33099900  0.51470500  0.41918500  1
  O  O9  1  0.24027900  0.57503900  0.54279000  1
  O  O10  1  0.13992200  0.45500900  0.49669000  1
  O  O11  1  0.75496100  0.01089800  0.91978700  1
  O  O12  1  0.37605200  0.04312900  0.08682300  1
  O  O13  1  0.16644100  0.94179200  0.02936600  1
  O  O14  1  0.47193300  0.06347100  0.97199800  1
  O  O15  1  0.25500000  0.96175400  0.91456500  1
  O  O16  1  0.67126000  0.07029500  0.04316200  1
  O  O17  1  0.56406800  0.95510200  0.99467000  1
  O  O18  1  0.96691100  0.92455000  0.95702500  1
  O  O19  1  0.87585900  0.98465300  0.08068700  1
  O  O20  1  0.06686700  0.04458900  0.00341500  1
  O  O21  1  0.82145400  0.62007300  0.43206100  1
