# Generated by REPEAT Assigner based on pymatgen
data_DB0-m3_o4_o13_f0_pcu.sym.32_sqe
_audit_creation_date              2022-05-24
_audit_creation_method            REPEAT_Assigner
_cell_length_a                    13.078938
_cell_length_b                    10.978897
_cell_length_c                    9.832889
_cell_angle_alpha                 90.004530
_cell_angle_beta                  95.343680
_cell_angle_gamma                 90.004458
_cell_volume                      1405.790959
_symmetry_space_group_name_H-M    P1
_symmetry_Int_Tables_number       1
loop_
    _symmetry_equiv_pos_site_id
    _symmetry_equiv_pos_as_xyz
    1  x,y,z
loop_
    _atom_site_type_symbol
    _atom_site_label
    _atom_site_fract_x
    _atom_site_fract_y
    _atom_site_fract_z
    _atom_type_partial_charge
    O   O1   0.495474  0.316047  0.620587  -0.674553
    O   O2   0.494250  0.316119  0.385612  -0.658321
    C   C1   0.494835  0.259156  0.502961  0.801051
    O   O3   0.343007  0.498737  0.600979  -0.650485
    O   O4   0.342406  0.498699  0.366115  -0.648711
    C   C2   0.294530  0.499529  0.477779  0.636217
    Zn  Zn1  0.495992  0.497703  0.657659  1.061099
    Zn  Zn2  0.495484  0.497478  0.348107  1.050269
    O   O5   0.497208  0.679217  0.620110  -0.697103
    O   O6   0.496038  0.678904  0.385284  -0.662325
    O   O7   0.649023  0.496628  0.639467  -0.648509
    O   O8   0.648410  0.496534  0.404939  -0.669791
    C   C3   0.497012  0.735920  0.502491  0.861321
    C   C4   0.696852  0.496493  0.527938  0.725926
    C   C5   0.809548  0.497404  0.541301  -0.010526
    C   C6   0.181663  0.501319  0.464270  0.073547
    C   C7   0.021764  0.502402  0.323998  -0.232394
    C   C8   0.127637  0.502979  0.336492  -0.190603
    C   C9   0.128181  0.501406  0.579215  -0.341897
    C   C10  0.022156  0.500436  0.566473  0.288999
    C   C11  0.968855  0.500497  0.438914  0.199036
    C   C12  0.862822  0.499032  0.426132  -0.238601
    C   C13  0.863481  0.497558  0.669161  -0.069357
    C   C14  0.969333  0.499128  0.681518  -0.330416
    H   H1   0.822223  0.499250  0.325281  0.125288
    H   H2   0.823931  0.496498  0.760853  0.096249
    H   H3   0.980620  0.503249  0.223420  0.141365
    H   H4   0.010539  0.499110  0.782061  0.161421
    H   H5   0.167062  0.504999  0.244925  0.142255
    H   H6   0.168560  0.502251  0.679921  0.165577
    C   C15  0.509929  0.057831  0.619057  0.305494
    C   C16  0.494858  0.125679  0.501592  -0.290358
    C   C17  0.480822  0.061055  0.379687  -0.089731
    H   H7   0.468615  0.108350  0.283195  0.124142
    C   C18  0.481526  0.934043  0.379369  -0.023015
    H   H8   0.469580  0.886906  0.282712  0.082412
    C   C19  0.496653  0.869229  0.500962  -0.260093
    C   C20  0.511224  0.936678  0.618557  0.050292
    C   C21  0.533718  0.926188  0.768584  0.022813
    C   C22  0.532183  0.068110  0.769506  -0.427748
    H   H9   0.472541  0.881478  0.821546  0.084321
    H   H10  0.466699  0.105339  0.819692  0.171421
    H   H11  0.608574  0.108939  0.799186  0.160684
    C   C23  0.428581  0.433122  0.061287  0.226581
    N   N1   0.495338  0.496603  0.144637  -0.139976
    C   C24  0.565351  0.562327  0.082908  -0.044757
    H   H12  0.621914  0.615645  0.144030  0.185270
    C   C25  0.565490  0.562335  0.940410  -0.060924
    H   H13  0.622362  0.615295  0.893547  0.179455
    N   N2   0.495203  0.497263  0.861037  -0.128962
    C   C26  0.427921  0.434232  0.927635  0.174561
    C   C27  0.337725  0.352833  0.903514  -0.101037
    C   C28  0.339027  0.350865  0.063441  -0.209770
    H   H14  0.269649  0.400319  0.853675  0.084501
    H   H15  0.356836  0.263825  0.859756  0.065300
    H   H16  0.271424  0.396635  0.100217  0.109003
    H   H17  0.360130  0.260811  0.108736  0.107507
    N   N3   0.636201  0.879070  0.805320  0.619284
    O   O9   0.690444  0.837239  0.711351  -0.346401
    O   O10  0.674755  0.881253  0.932033  -0.436301
