# Generated by REPEAT Assigner based on pymatgen
data_DB0-m29_o99_o51_f0_pts.sym.101
_audit_creation_date              2022-05-24
_audit_creation_method            REPEAT_Assigner
_cell_length_a                    15.809081
_cell_length_b                    9.304952
_cell_length_c                    18.506780
_cell_angle_alpha                 90.076222
_cell_angle_beta                  100.070781
_cell_angle_gamma                 97.472572
_cell_volume                      2656.880156
_symmetry_space_group_name_H-M    P1
_symmetry_Int_Tables_number       1
loop_
    _symmetry_equiv_pos_site_id
    _symmetry_equiv_pos_as_xyz
    1  x,y,z
loop_
    _atom_site_type_symbol
    _atom_site_label
    _atom_site_fract_x
    _atom_site_fract_y
    _atom_site_fract_z
    _atom_type_partial_charge
    C   C1   0.210637  0.994608  0.888049  -0.136767
    H   H1   0.217757  0.982524  0.831410  0.150094
    C   C2   0.129092  0.993338  0.904409  -0.175350
    H   H2   0.072950  0.977510  0.861109  0.157249
    C   C3   0.118954  0.010747  0.975932  0.248613
    C   C4   0.190132  0.027994  0.031727  -0.119347
    C   C5   0.273698  0.034092  0.015729  -0.069272
    C   C6   0.283084  0.017322  0.942594  0.072418
    C   C7   0.033396  0.003340  0.993049  -0.162971
    C   C8   0.961997  0.998165  0.008210  -0.121147
    C   C9   0.805042  0.968501  0.972237  -0.193359
    H   H3   0.814576  0.955781  0.916311  0.159805
    C   C10  0.722572  0.964558  0.988708  0.023690
    C   C11  0.713490  0.982222  0.061715  0.005034
    C   C12  0.786539  0.010072  0.115460  -0.092198
    H   H4   0.780028  0.023915  0.172141  0.123865
    C   C13  0.868023  0.015188  0.098083  -0.178325
    H   H5   0.924693  0.035326  0.140694  0.131983
    C   C14  0.877165  0.992760  0.026587  0.261306
    O   O1   0.528614  0.191319  0.802070  -0.609775
    C   C15  0.486803  0.211866  0.735984  0.607941
    O   O2   0.428126  0.136387  0.944466  -0.473466
    O   O3   0.433853  0.105973  0.699139  -0.530423
    O   O4   0.379297  0.942080  0.867003  -0.584039
    C   C16  0.367735  0.028738  0.919581  0.564339
    Fe  Fe1  0.494720  0.997767  0.840157  1.389747
    O   O5   0.572444  0.983353  0.937181  -0.395670
    O   O6   0.662312  0.938747  0.859900  -0.495196
    C   C17  0.648855  0.955525  0.927195  0.513063
    O   O7   0.502312  0.868113  0.755404  -0.463455
    O   O8   0.503929  0.710251  0.848267  -0.439096
    C   C18  0.505009  0.735252  0.778644  0.488976
    O   O9   0.492046  0.121747  0.248693  -0.478442
    O   O10  0.514768  0.284736  0.161182  -0.438866
    C   C19  0.503019  0.257310  0.228523  0.495386
    O   O11  0.420427  0.995120  0.068554  -0.410125
    O   O12  0.345347  0.108349  0.139363  -0.428087
    C   C20  0.349750  0.049564  0.075944  0.535253
    O   O13  0.568152  0.889177  0.308364  -0.527694
    O   O14  0.614588  0.055695  0.135175  -0.532608
    C   C21  0.629072  0.966013  0.085234  0.566142
    O   O15  0.474944  0.797517  0.205693  -0.579128
    C   C22  0.518045  0.780075  0.271631  0.571498
    O   O16  0.572314  0.851499  0.063842  -0.461360
    Fe  Fe2  0.501566  0.991193  0.164779  1.351966
    C   C23  0.503817  0.613561  0.727550  0.116169
    C   C24  0.499739  0.633971  0.652984  -0.260278
    H   H6   0.501351  0.742035  0.631489  0.166185
    C   C25  0.493893  0.516411  0.605365  0.264669
    C   C26  0.487372  0.377503  0.632457  -0.257399
    H   H7   0.477066  0.283090  0.596566  0.160150
    C   C27  0.493778  0.357554  0.706773  0.108891
    C   C28  0.503620  0.475141  0.754224  -0.196845
    C   C29  0.491321  0.542661  0.526537  -0.184806
    C   C30  0.513842  0.447953  0.480796  -0.183889
    C   C31  0.506365  0.357372  0.354301  -0.261787
    H   H8   0.504170  0.249050  0.375516  0.166448
    C   C32  0.504034  0.378469  0.279968  0.123701
    C   C33  0.505314  0.517259  0.253672  -0.206826
    C   C34  0.513784  0.634522  0.301152  0.099701
    C   C35  0.519001  0.613993  0.375316  -0.229498
    H   H9   0.528335  0.708189  0.411246  0.158828
    C   C36  0.512001  0.474732  0.402084  0.244952
    H   H10  0.506509  0.457090  0.812190  0.169011
    H   H11  0.502938  0.535611  0.195780  0.178922
    H   H12  0.471070  0.644130  0.506614  0.138283
    H   H13  0.534063  0.346467  0.500735  0.145690
    C   C37  0.173732  0.026851  0.107178  0.375470
    C   C38  0.193812  0.912784  0.151795  -0.186269
    Cl  Cl1  0.239180  0.769925  0.118297  -0.016986
    C   C39  0.177439  0.910451  0.222593  0.061751
    C   C40  0.140779  0.021833  0.248895  -0.073374
    Cl  Cl2  0.119946  0.018674  0.338785  -0.046023
    C   C41  0.120297  0.135468  0.204338  0.059323
    C   C42  0.136531  0.137850  0.133490  -0.258453
    H   H14  0.193161  0.821055  0.257431  0.086540
    H   H15  0.091472  0.222730  0.224944  0.072352
    H   H16  0.120681  0.227426  0.098817  0.143195
