data_DB0-m3_o11_o25_f0_pcu.sym.32_repeat
_audit_creation_date              2024-02-20
_audit_creation_method            'Materials Studio'
_symmetry_space_group_name_H-M    'P1'
_symmetry_Int_Tables_number       1
_symmetry_cell_setting            triclinic
loop_
_symmetry_equiv_pos_as_xyz
  x,y,z
_cell_length_a                    16.0101
_cell_length_b                    11.1494
_cell_length_c                    9.9081
_cell_angle_alpha                 89.9974
_cell_angle_beta                  89.9946
_cell_angle_gamma                 90.0034
loop_
_atom_site_label
_atom_site_type_symbol
_atom_site_fract_x
_atom_site_fract_y
_atom_site_fract_z
_atom_site_U_iso_or_equiv
_atom_site_adp_type
_atom_site_occupancy
O1     O     0.49612   0.32389   0.62295   0.00000  Uiso   1.00
O2     O     0.49991   0.32037   0.39040   0.00000  Uiso   1.00
C1     C     0.49553   0.26625   0.50772   0.00000  Uiso   1.00
O3     O     0.37902   0.51287   0.61204   0.00000  Uiso   1.00
O4     O     0.38163   0.50776   0.37931   0.00000  Uiso   1.00
C2     C     0.34155   0.51281   0.49457   0.00000  Uiso   1.00
Zn1    Zn    0.50244   0.50298   0.65549   0.00000  Uiso   1.00
Zn2    Zn    0.50654   0.49799   0.34820   0.00000  Uiso   1.00
O5     O     0.51098   0.68029   0.61385   0.00000  Uiso   1.00
O6     O     0.51239   0.67747   0.38018   0.00000  Uiso   1.00
O7     O     0.62738   0.49241   0.62481   0.00000  Uiso   1.00
O8     O     0.63012   0.49024   0.39117   0.00000  Uiso   1.00
C3     C     0.51386   0.73451   0.49654   0.00000  Uiso   1.00
C4     C     0.66741   0.48849   0.50911   0.00000  Uiso   1.00
C5     C     0.98063   0.40365   0.57034   0.00000  Uiso   1.00
C6     C     0.03283   0.40770   0.44360   0.00000  Uiso   1.00
H1     H     0.96013   0.32115   0.62339   0.00000  Uiso   1.00
H2     H     0.95057   0.49218   0.27152   0.00000  Uiso   1.00
C7     C     0.25193   0.51328   0.49318   0.00000  Uiso   1.00
C8     C     0.75704   0.48832   0.51077   0.00000  Uiso   1.00
C9     C     0.03337   0.50571   0.62886   0.00000  Uiso   1.00
C10    C     0.08541   0.50641   0.50076   0.00000  Uiso   1.00
C11    C     0.97446   0.59765   0.56475   0.00000  Uiso   1.00
C12    C     0.92357   0.49566   0.50557   0.00000  Uiso   1.00
C13    C     0.02688   0.59501   0.43819   0.00000  Uiso   1.00
C14    C     0.97472   0.49627   0.37632   0.00000  Uiso   1.00
C15    C     0.17669   0.51116   0.49527   0.00000  Uiso   1.00
C16    C     0.83228   0.49066   0.50945   0.00000  Uiso   1.00
H3     H     0.94866   0.67926   0.61328   0.00000  Uiso   1.00
H4     H     0.05864   0.50983   0.73296   0.00000  Uiso   1.00
C17    C     0.49861   0.93550   0.39785   0.00000  Uiso   1.00
C18    C     0.52250   0.86515   0.49967   0.00000  Uiso   1.00
H5     H     0.47787   0.89509   0.30419   0.00000  Uiso   1.00
H6     H     0.54865   0.90347   0.59023   0.00000  Uiso   1.00
C19    C     0.50537   0.06782   0.40444   0.00000  Uiso   1.00
C20    C     0.48639   0.13550   0.51296   0.00000  Uiso   1.00
H7     H     0.52456   0.11235   0.31235   0.00000  Uiso   1.00
C21    C     0.55509   0.56338   0.92703   0.00000  Uiso   1.00
N1     N     0.49925   0.50854   0.85721   0.00000  Uiso   1.00
H8     H     0.60628   0.60780   0.87579   0.00000  Uiso   1.00
H9     H     0.44633   0.48142   0.90723   0.00000  Uiso   1.00
C22    C     0.54898   0.57321   0.07567   0.00000  Uiso   1.00
N2     N     0.51088   0.49366   0.14650   0.00000  Uiso   1.00
H10    H     0.58045   0.64676   0.12592   0.00000  Uiso   1.00
H11    H     0.49123   0.41782   0.09699   0.00000  Uiso   1.00
N3     N     0.06692   0.30220   0.37786   0.00000  Uiso   1.00
H12    H     0.01668   0.24854   0.34841   0.00000  Uiso   1.00
H13    H     0.09757   0.33079   0.29058   0.00000  Uiso   1.00
N4     N     0.44979   0.08637   0.63259   0.00000  Uiso   1.00
H14    H     0.49636   0.05569   0.69756   0.00000  Uiso   1.00
H15    H     0.40695   0.01930   0.60796   0.00000  Uiso   1.00
N5     N     0.05414   0.70158   0.36656   0.00000  Uiso   1.00
H16    H     0.00071   0.74684   0.33406   0.00000  Uiso   1.00
H17    H     0.08681   0.67340   0.28105   0.00000  Uiso   1.00
