# Generated by REPEAT Assigner based on pymatgen
data_DB0-m2_o4_o29_f0_nbo.sym.14_sqe
_audit_creation_date              2022-05-24
_audit_creation_method            REPEAT_Assigner
_cell_length_a                    21.561381
_cell_length_b                    21.561381
_cell_length_c                    54.923462
_cell_angle_alpha                 90.000000
_cell_angle_beta                  90.000000
_cell_angle_gamma                 90.000000
_cell_volume                      25533.540814
_symmetry_space_group_name_H-M    P1
_symmetry_Int_Tables_number       1
loop_
    _symmetry_equiv_pos_site_id
    _symmetry_equiv_pos_as_xyz
    1  x,y,z
loop_
    _atom_site_type_symbol
    _atom_site_label
    _atom_site_fract_x
    _atom_site_fract_y
    _atom_site_fract_z
    _atom_type_partial_charge
    O   O1    0.484298  0.411244  0.521298  -0.524432
    O   O2    0.588756  0.484298  0.521298  -0.524464
    O   O3    0.515702  0.588756  0.521298  -0.524444
    O   O4    0.411244  0.515702  0.521298  -0.524430
    O   O5    0.984298  0.911244  0.021298  -0.524434
    O   O6    0.088756  0.984298  0.021298  -0.524428
    O   O7    0.015702  0.088756  0.021298  -0.524420
    O   O8    0.911244  0.015702  0.021298  -0.524415
    O   O9    0.521872  0.412603  0.481491  -0.627064
    O   O10   0.587397  0.521872  0.481491  -0.627077
    O   O11   0.478128  0.587397  0.481491  -0.627062
    O   O12   0.412603  0.478128  0.481491  -0.627051
    O   O13   0.021872  0.912603  0.981491  -0.627027
    O   O14   0.087397  0.021872  0.981491  -0.627032
    O   O15   0.978128  0.087397  0.981491  -0.627019
    O   O16   0.912603  0.978128  0.981491  -0.627026
    C   C1    0.504131  0.382961  0.501396  0.728480
    C   C2    0.617039  0.504131  0.501396  0.728520
    C   C3    0.495869  0.617039  0.501396  0.728474
    C   C4    0.382961  0.495869  0.501396  0.728442
    C   C5    0.004131  0.882961  0.001396  0.728398
    C   C6    0.117039  0.004131  0.001396  0.728445
    C   C7    0.995869  0.117039  0.001396  0.728402
    C   C8    0.882961  0.995869  0.001396  0.728377
    H   H1    0.598991  0.117926  0.690790  0.129891
    H   H2    0.882074  0.598991  0.690790  0.129897
    H   H3    0.401009  0.882074  0.690790  0.129937
    H   H4    0.117926  0.401009  0.690790  0.129893
    H   H5    0.098991  0.617926  0.190790  0.129879
    H   H6    0.382074  0.098991  0.190790  0.129893
    H   H7    0.901009  0.382074  0.190790  0.129966
    H   H8    0.617926  0.901009  0.190790  0.129889
    C   C9    0.500000  0.000000  0.573936  -0.098445
    C   C10   0.000000  0.500000  0.573936  -0.098422
    C   C11   0.000000  0.500000  0.073936  -0.098349
    C   C12   0.500000  0.000000  0.073936  -0.098444
    Cu  Cu1   0.500000  0.500000  0.525070  0.861237
    Cu  Cu2   0.000000  0.000000  0.025070  0.861232
    Cu  Cu3   0.500000  0.500000  0.477732  0.963550
    Cu  Cu4   0.000000  0.000000  0.977732  0.963533
    C   C13   0.000163  0.555316  0.390663  -0.220095
    C   C14   0.444684  0.000163  0.390663  -0.220078
    C   C15   0.999837  0.444684  0.390663  -0.220096
    C   C16   0.555316  0.999837  0.390663  -0.220074
    C   C17   0.500163  0.055316  0.890663  -0.220091
    C   C18   0.944684  0.500163  0.890663  -0.220059
    C   C19   0.499837  0.944684  0.890663  -0.220074
    C   C20   0.055316  0.499837  0.890663  -0.220076
    H   H9    0.999233  0.599018  0.381026  0.150838
    H   H10   0.400982  0.999233  0.381026  0.150830
    H   H11   0.000767  0.400982  0.381026  0.150822
    H   H12   0.599018  0.000767  0.381026  0.150818
    H   H13   0.499233  0.099018  0.881026  0.150812
    H   H14   0.900982  0.499233  0.881026  0.150831
    H   H15   0.500767  0.900982  0.881026  0.150830
    H   H16   0.099018  0.500767  0.881026  0.150803
    N   N1    0.500000  0.000000  0.650421  -0.171913
    N   N2    0.000000  0.500000  0.650421  -0.172031
    N   N3    0.000000  0.500000  0.150421  -0.171959
    N   N4    0.500000  0.000000  0.150421  -0.171924
    H   H17   0.001018  0.599150  0.425304  0.098230
    H   H18   0.400850  0.001018  0.425304  0.098229
    H   H19   0.998982  0.400850  0.425304  0.098230
    H   H20   0.599150  0.998982  0.425304  0.098232
    H   H21   0.501018  0.099150  0.925304  0.098231
    H   H22   0.900850  0.501018  0.925304  0.098229
    H   H23   0.498982  0.900850  0.925304  0.098229
    H   H24   0.099150  0.498982  0.925304  0.098234
    C   C21   0.000000  0.500000  0.428416  -0.110389
    C   C22   0.500000  0.000000  0.428416  -0.110380
    C   C23   0.500000  0.000000  0.928416  -0.110426
    C   C24   0.000000  0.500000  0.928416  -0.110424
    H   H25   0.601570  0.118081  0.733593  0.132847
    H   H26   0.881919  0.601570  0.733593  0.132939
    H   H27   0.398430  0.881919  0.733593  0.132903
    H   H28   0.118081  0.398430  0.733593  0.132787
    H   H29   0.101570  0.618081  0.233593  0.132938
    H   H30   0.381919  0.101570  0.233593  0.132916
    H   H31   0.898430  0.381919  0.233593  0.132795
    H   H32   0.618081  0.898430  0.233593  0.132833
    C   C25   0.281015  0.532527  0.515928  0.042189
    C   C26   0.467473  0.281015  0.515928  0.042190
    C   C27   0.718985  0.467473  0.515928  0.042211
    C   C28   0.532527  0.718985  0.515928  0.042181
    C   C29   0.781015  0.032527  0.015928  0.042206
    C   C30   0.967473  0.781015  0.015928  0.042139
    C   C31   0.218985  0.967473  0.015928  0.042165
    C   C32   0.032527  0.218985  0.015928  0.042158
    C   C33   0.315299  0.494150  0.501301  -0.124341
    C   C34   0.505850  0.315299  0.501301  -0.124434
    C   C35   0.684701  0.505850  0.501301  -0.124424
    C   C36   0.494150  0.684701  0.501301  -0.124355
    C   C37   0.815299  0.994150  0.001301  -0.124300
    C   C38   0.005850  0.815299  0.001301  -0.124253
    C   C39   0.184701  0.005850  0.001301  -0.124373
    C   C40   0.994150  0.184701  0.001301  -0.124273
    C   C41   0.282533  0.454363  0.486138  -0.057680
    C   C42   0.545637  0.282533  0.486138  -0.057535
    C   C43   0.717467  0.545637  0.486138  -0.057639
    C   C44   0.454363  0.717467  0.486138  -0.057674
    C   C45   0.782533  0.954363  0.986138  -0.057692
    C   C46   0.045637  0.782533  0.986138  -0.057815
    C   C47   0.217467  0.045637  0.986138  -0.057665
    C   C48   0.954363  0.217467  0.986138  -0.057813
    H   H33   0.306980  0.422696  0.474282  0.117333
    H   H34   0.577304  0.306980  0.474282  0.117313
    H   H35   0.693020  0.577304  0.474282  0.117342
    H   H36   0.422696  0.693020  0.474282  0.117335
    H   H37   0.806980  0.922696  0.974282  0.117335
    H   H38   0.077304  0.806980  0.974282  0.117365
    H   H39   0.193020  0.077304  0.974282  0.117345
    H   H40   0.922696  0.193020  0.974282  0.117367
    C   C49   0.217804  0.453879  0.486368  -0.116416
    C   C50   0.546121  0.217804  0.486368  -0.116597
    C   C51   0.782196  0.546121  0.486368  -0.116367
    C   C52   0.453879  0.782196  0.486368  -0.116427
    C   C53   0.717804  0.953879  0.986368  -0.116415
    C   C54   0.046121  0.717804  0.986368  -0.116176
    C   C55   0.282196  0.046121  0.986368  -0.116370
    C   C56   0.953879  0.282196  0.986368  -0.116186
    H   H41   0.193328  0.422249  0.474508  0.136990
    H   H42   0.577751  0.193328  0.474508  0.137018
    H   H43   0.806672  0.577751  0.474508  0.136918
    H   H44   0.422249  0.806672  0.474508  0.136991
    H   H45   0.693328  0.922249  0.974508  0.136994
    H   H46   0.077751  0.693328  0.974508  0.136896
    H   H47   0.306672  0.077751  0.974508  0.136925
    H   H48   0.922249  0.306672  0.974508  0.136897
    C   C57   0.185111  0.494862  0.501069  -0.072127
    C   C58   0.505138  0.185111  0.501069  -0.071976
    C   C59   0.814889  0.505138  0.501069  -0.072116
    C   C60   0.494862  0.814889  0.501069  -0.072095
    C   C61   0.685111  0.994862  0.001069  -0.072150
    C   C62   0.005138  0.685111  0.001069  -0.072320
    C   C63   0.314889  0.005138  0.001069  -0.072120
    C   C64   0.994862  0.314889  0.001069  -0.072288
    C   C65   0.219498  0.533830  0.515429  0.011206
    C   C66   0.466170  0.219497  0.515429  0.011144
    C   C67   0.780502  0.466170  0.515429  0.011173
    C   C68   0.533830  0.780502  0.515429  0.011204
    C   C69   0.719498  0.033830  0.015429  0.011187
    C   C70   0.966170  0.719498  0.015429  0.011257
    C   C71   0.280503  0.966170  0.015429  0.011182
    C   C72   0.033830  0.280502  0.015429  0.011255
    C   C73   0.214250  0.584084  0.533755  0.228803
    C   C74   0.415916  0.214250  0.533755  0.228862
    C   C75   0.785750  0.415916  0.533755  0.228817
    C   C76   0.584084  0.785750  0.533755  0.228787
    C   C77   0.714250  0.084084  0.033755  0.228896
    C   C78   0.915916  0.714250  0.033755  0.228903
    C   C79   0.285750  0.915916  0.033755  0.228922
    C   C80   0.084084  0.285750  0.033755  0.228884
    C   C81   0.286515  0.582776  0.534237  0.185515
    C   C82   0.417224  0.286515  0.534237  0.185510
    C   C83   0.713485  0.417224  0.534237  0.185556
    C   C84   0.582776  0.713485  0.534237  0.185544
    C   C85   0.786515  0.082776  0.034237  0.185422
    C   C86   0.917224  0.786515  0.034237  0.185461
    C   C87   0.213485  0.917224  0.034237  0.185463
    C   C88   0.082776  0.213485  0.034237  0.185462
    H   H49   0.191763  0.569422  0.550979  0.063553
    H   H50   0.430578  0.191763  0.550979  0.063534
    H   H51   0.808237  0.430578  0.550979  0.063540
    H   H52   0.569422  0.808237  0.550979  0.063552
    H   H53   0.691763  0.069422  0.050979  0.063526
    H   H54   0.930578  0.691763  0.050979  0.063514
    H   H55   0.308237  0.930578  0.050979  0.063509
    H   H56   0.069422  0.308237  0.050979  0.063522
    H   H57   0.309030  0.625399  0.527192  0.074459
    H   H58   0.374601  0.309030  0.527192  0.074457
    H   H59   0.690970  0.374601  0.527192  0.074439
    H   H60   0.625399  0.690970  0.527192  0.074444
    H   H61   0.809030  0.125399  0.027192  0.074482
    H   H62   0.874601  0.809030  0.027192  0.074473
    H   H63   0.190970  0.874601  0.027192  0.074463
    H   H64   0.125399  0.190970  0.027192  0.074466
    H   H65   0.598920  0.993344  0.577034  0.103172
    H   H66   0.006656  0.598919  0.577034  0.103118
    H   H67   0.401081  0.006656  0.577034  0.103132
    H   H68   0.993344  0.401080  0.577034  0.103172
    H   H69   0.098920  0.493344  0.077034  0.103185
    H   H70   0.506656  0.098919  0.077034  0.103145
    H   H71   0.901081  0.506656  0.077034  0.103113
    H   H72   0.493344  0.901080  0.077034  0.103174
    C   C89   0.500000  0.000000  0.624391  0.242703
    C   C90   0.000000  0.500000  0.624391  0.242888
    C   C91   0.000000  0.500000  0.124391  0.242783
    C   C92   0.500000  0.000000  0.124391  0.242732
    O   O17   0.433610  0.914742  0.650362  -0.506932
    O   O18   0.085258  0.433610  0.650362  -0.506943
    O   O19   0.566390  0.085258  0.650362  -0.506919
    O   O20   0.914742  0.566389  0.650362  -0.507005
    O   O21   0.933610  0.414742  0.150362  -0.506977
    O   O22   0.585258  0.933610  0.150362  -0.506915
    O   O23   0.066390  0.585258  0.150362  -0.506886
    O   O24   0.414742  0.066390  0.150362  -0.506930
    C   C93   0.555167  0.995892  0.611684  -0.223974
    C   C94   0.004108  0.555166  0.611684  -0.224102
    C   C95   0.444834  0.004108  0.611684  -0.224053
    C   C96   0.995892  0.444833  0.611684  -0.224011
    C   C97   0.055167  0.495892  0.111684  -0.224069
    C   C98   0.504108  0.055166  0.111684  -0.224017
    C   C99   0.944834  0.504108  0.111684  -0.224015
    C   C100  0.495892  0.944833  0.111684  -0.224059
    C   C101  0.000000  0.500000  0.377955  0.260811
    C   C102  0.500000  0.000000  0.377955  0.260786
    C   C103  0.500000  0.000000  0.877955  0.260799
    C   C104  0.000000  0.500000  0.877955  0.260773
    C   C105  0.000983  0.555335  0.415755  0.009191
    C   C106  0.444665  0.000983  0.415755  0.009178
    C   C107  0.999017  0.444665  0.415755  0.009194
    C   C108  0.555335  0.999017  0.415755  0.009187
    C   C109  0.500983  0.055335  0.915755  0.009220
    C   C110  0.944665  0.500983  0.915755  0.009175
    C   C111  0.499017  0.944665  0.915755  0.009175
    C   C112  0.055335  0.499017  0.915755  0.009214
    O   O25   0.018972  0.550516  0.466480  -0.597560
    O   O26   0.449484  0.018972  0.466480  -0.597554
    O   O27   0.981028  0.449484  0.466480  -0.597558
    O   O28   0.550516  0.981028  0.466480  -0.597553
    O   O29   0.518972  0.050516  0.966480  -0.597562
    O   O30   0.949484  0.518972  0.966480  -0.597558
    O   O31   0.481028  0.949484  0.966480  -0.597550
    O   O32   0.050516  0.481028  0.966480  -0.597557
    C   C113  0.000000  0.500000  0.455062  0.687200
    C   C114  0.500000  0.000000  0.455062  0.687192
    C   C115  0.500000  0.000000  0.955062  0.687249
    C   C116  0.000000  0.500000  0.955062  0.687249
    O   O33   0.089914  0.548467  0.508065  -0.528975
    O   O34   0.451533  0.089914  0.508065  -0.528978
    O   O35   0.910086  0.451533  0.508065  -0.528971
    O   O36   0.548467  0.910086  0.508065  -0.528969
    O   O37   0.589914  0.048467  0.008065  -0.529003
    O   O38   0.951533  0.589914  0.008065  -0.529003
    O   O39   0.410086  0.951533  0.008065  -0.528993
    O   O40   0.048467  0.410086  0.008065  -0.528993
    O   O41   0.086961  0.446426  0.494292  -0.580964
    O   O42   0.553574  0.086961  0.494292  -0.580957
    O   O43   0.913039  0.553574  0.494292  -0.580917
    O   O44   0.446426  0.913039  0.494292  -0.580954
    O   O45   0.586961  0.946426  0.994292  -0.580961
    O   O46   0.053574  0.586961  0.994292  -0.580935
    O   O47   0.413039  0.053574  0.994292  -0.580916
    O   O48   0.946426  0.413039  0.994292  -0.580926
    C   C117  0.117424  0.496626  0.501166  0.658557
    C   C118  0.503374  0.117424  0.501166  0.658544
    C   C119  0.882576  0.503374  0.501166  0.658521
    C   C120  0.496626  0.882576  0.501166  0.658511
    C   C121  0.617424  0.996626  0.001166  0.658594
    C   C122  0.003374  0.617424  0.001166  0.658637
    C   C123  0.382576  0.003374  0.001166  0.658564
    C   C124  0.996626  0.382576  0.001166  0.658590
    Cu  Cu5   0.001844  0.560489  0.501182  0.960895
    Cu  Cu6   0.439511  0.001844  0.501182  0.960911
    Cu  Cu7   0.998156  0.439511  0.501182  0.960909
    Cu  Cu8   0.560489  0.998156  0.501182  0.960899
    Cu  Cu9   0.501844  0.060489  0.001182  0.960880
    Cu  Cu10  0.939511  0.501844  0.001182  0.960883
    Cu  Cu11  0.498156  0.939511  0.001182  0.960897
    Cu  Cu12  0.060489  0.498156  0.001182  0.960885
    O   O49   0.984155  0.551587  0.535885  -0.604057
    O   O50   0.448413  0.984155  0.535885  -0.604042
    O   O51   0.015845  0.448413  0.535885  -0.604032
    O   O52   0.551587  0.015845  0.535885  -0.604030
    O   O53   0.484155  0.051587  0.035885  -0.604055
    O   O54   0.948413  0.484155  0.035885  -0.604047
    O   O55   0.515845  0.948413  0.035885  -0.604079
    O   O56   0.051587  0.515845  0.035885  -0.604084
    C   C125  0.000000  0.500000  0.547298  0.668228
    C   C126  0.500000  0.000000  0.547298  0.668228
    C   C127  0.500000  0.000000  0.047298  0.668270
    C   C128  0.000000  0.500000  0.047298  0.668232
    C   C129  0.957428  0.463941  0.263863  0.058559
    C   C130  0.536059  0.957428  0.263863  0.058546
    C   C131  0.042572  0.536059  0.263863  0.058295
    C   C132  0.463941  0.042572  0.263863  0.058302
    C   C133  0.457428  0.963941  0.763863  0.058336
    C   C134  0.036059  0.457427  0.763863  0.058634
    C   C135  0.542572  0.036059  0.763863  0.058488
    C   C136  0.963941  0.542572  0.763863  0.058320
    C   C137  0.000000  0.500000  0.276412  0.009773
    C   C138  0.500000  0.000000  0.276412  0.009730
    C   C139  0.500000  0.000000  0.776412  0.009794
    C   C140  0.000000  0.500000  0.776412  0.009650
    C   C141  0.912012  0.432807  0.277092  -0.200558
    C   C142  0.567193  0.912012  0.277092  -0.200574
    C   C143  0.087988  0.567194  0.277092  -0.200278
    C   C144  0.432806  0.087988  0.277092  -0.200300
    C   C145  0.412012  0.932806  0.777092  -0.200424
    C   C146  0.067193  0.412012  0.777092  -0.200526
    C   C147  0.587988  0.067193  0.777092  -0.200382
    C   C148  0.932806  0.587988  0.777092  -0.200428
    C   C149  0.911060  0.435083  0.302060  -0.002595
    C   C150  0.564917  0.911060  0.302060  -0.002574
    C   C151  0.088940  0.564917  0.302060  -0.002787
    C   C152  0.435083  0.088940  0.302060  -0.002676
    C   C153  0.411060  0.935083  0.802060  -0.002580
    C   C154  0.064917  0.411060  0.802060  -0.002634
    C   C155  0.588940  0.064917  0.802060  -0.002823
    C   C156  0.935083  0.588940  0.802060  -0.002551
    C   C157  0.955725  0.467702  0.314494  -0.152480
    C   C158  0.532298  0.955725  0.314494  -0.152520
    C   C159  0.044275  0.532298  0.314494  -0.152335
    C   C160  0.467702  0.044275  0.314494  -0.152534
    C   C161  0.455725  0.967702  0.814494  -0.152525
    C   C162  0.032298  0.455725  0.814494  -0.152524
    C   C163  0.544275  0.032298  0.814494  -0.152283
    C   C164  0.967702  0.544275  0.814494  -0.152586
    C   C165  0.000000  0.500000  0.301707  0.136890
    C   C166  0.500000  0.000000  0.301707  0.137019
    C   C167  0.500000  0.000000  0.801707  0.136872
    C   C168  0.000000  0.500000  0.801707  0.137058
    C   C169  0.555247  0.996714  0.586592  0.014220
    C   C170  0.003286  0.555246  0.586592  0.014349
    C   C171  0.444753  0.003286  0.586592  0.014338
    C   C172  0.996714  0.444753  0.586592  0.014213
    C   C173  0.055247  0.496714  0.086592  0.014275
    C   C174  0.503286  0.055247  0.086592  0.014265
    C   C175  0.944754  0.503286  0.086592  0.014224
    C   C176  0.496714  0.944753  0.086592  0.014293
    C   C177  0.955501  0.469022  0.339672  0.481968
    C   C178  0.530978  0.955501  0.339672  0.481971
    C   C179  0.044499  0.530978  0.339672  0.481887
    C   C180  0.469022  0.044499  0.339672  0.481995
    C   C181  0.455501  0.969022  0.839672  0.481997
    C   C182  0.030978  0.455501  0.839672  0.481992
    C   C183  0.544499  0.030978  0.839672  0.481876
    C   C184  0.969022  0.544499  0.839672  0.482001
    N   N5    0.000000  0.500000  0.351925  -0.203388
    N   N6    0.500000  0.000000  0.351925  -0.203408
    N   N7    0.500000  0.000000  0.851925  -0.203394
    N   N8    0.000000  0.500000  0.851925  -0.203412
    H   H73   0.874475  0.407789  0.268752  0.136933
    H   H74   0.592211  0.874475  0.268752  0.136924
    H   H75   0.125525  0.592211  0.268752  0.136777
    H   H76   0.407789  0.125525  0.268752  0.136796
    H   H77   0.374475  0.907789  0.768752  0.136833
    H   H78   0.092211  0.374475  0.768752  0.136953
    H   H79   0.625525  0.092211  0.768752  0.136860
    H   H80   0.907789  0.625525  0.768752  0.136815
    H   H81   0.874826  0.410351  0.311555  0.127537
    H   H82   0.589649  0.874826  0.311555  0.127542
    H   H83   0.125174  0.589649  0.311555  0.127606
    H   H84   0.410351  0.125174  0.311555  0.127580
    H   H85   0.374826  0.910351  0.811555  0.127559
    H   H86   0.089649  0.374826  0.811555  0.127541
    H   H87   0.625174  0.089649  0.811555  0.127595
    H   H88   0.910351  0.625174  0.811555  0.127566
    O   O57   0.909892  0.440357  0.351982  -0.519541
    O   O58   0.559643  0.909892  0.351982  -0.519542
    O   O59   0.090108  0.559643  0.351982  -0.519530
    O   O60   0.440357  0.090108  0.351982  -0.519549
    O   O61   0.409892  0.940357  0.851982  -0.519560
    O   O62   0.059643  0.409892  0.851982  -0.519532
    O   O63   0.590108  0.059643  0.851982  -0.519513
    O   O64   0.940357  0.590108  0.851982  -0.519561
    H   H89   0.598665  0.991585  0.621321  0.150609
    H   H90   0.008415  0.598665  0.621321  0.150494
    H   H91   0.401335  0.008415  0.621321  0.150555
    H   H92   0.991585  0.401335  0.621321  0.150619
    H   H93   0.098665  0.491585  0.121321  0.150586
    H   H94   0.508415  0.098665  0.121321  0.150576
    H   H95   0.901335  0.508415  0.121321  0.150577
    H   H96   0.491585  0.901335  0.121321  0.150592
    C   C185  0.460781  0.960319  0.738482  0.053321
    C   C186  0.039680  0.460781  0.738482  0.053123
    C   C187  0.539219  0.039680  0.738482  0.053188
    C   C188  0.960319  0.539219  0.738482  0.053380
    C   C189  0.960781  0.460320  0.238482  0.053148
    C   C190  0.539680  0.960781  0.238482  0.053200
    C   C191  0.039219  0.539681  0.238482  0.053326
    C   C192  0.460320  0.039219  0.238482  0.053353
    C   C193  0.500000  0.000000  0.725934  0.017511
    C   C194  0.000000  0.500000  0.725934  0.017482
    C   C195  0.000000  0.500000  0.225934  0.017539
    C   C196  0.500000  0.000000  0.225934  0.017537
    C   C197  0.573746  0.082573  0.725253  -0.197115
    C   C198  0.917427  0.573746  0.725253  -0.197134
    C   C199  0.426254  0.917427  0.725253  -0.197074
    C   C200  0.082573  0.426254  0.725253  -0.197089
    C   C201  0.073746  0.582573  0.225253  -0.197127
    C   C202  0.417427  0.073746  0.225253  -0.197186
    C   C203  0.926254  0.417427  0.225253  -0.197023
    C   C204  0.582573  0.926254  0.225253  -0.197111
    C   C205  0.571551  0.083696  0.700285  -0.007917
    C   C206  0.916304  0.571551  0.700285  -0.007984
    C   C207  0.428449  0.916304  0.700285  -0.008078
    C   C208  0.083696  0.428449  0.700285  -0.007872
    C   C209  0.071551  0.583696  0.200285  -0.007981
    C   C210  0.416304  0.071551  0.200285  -0.007962
    C   C211  0.928449  0.416304  0.200285  -0.008053
    C   C212  0.583696  0.928449  0.200285  -0.007901
    C   C213  0.535602  0.041666  0.687851  -0.135231
    C   C214  0.958334  0.535602  0.687851  -0.135382
    C   C215  0.464398  0.958334  0.687851  -0.135189
    C   C216  0.041666  0.464398  0.687851  -0.135298
    C   C217  0.035602  0.541666  0.187851  -0.135201
    C   C218  0.458334  0.035602  0.187851  -0.135203
    C   C219  0.964398  0.458334  0.187851  -0.135183
    C   C220  0.541666  0.964398  0.187851  -0.135275
    C   C221  0.500000  0.000000  0.700638  0.120293
    C   C222  0.000000  0.500000  0.700638  0.120404
    C   C223  0.000000  0.500000  0.200638  0.120260
    C   C224  0.500000  0.000000  0.200638  0.120284
    C   C225  0.465696  0.958011  0.662673  0.461729
    C   C226  0.041988  0.465696  0.662673  0.461656
    C   C227  0.534304  0.041988  0.662673  0.461623
    C   C228  0.958011  0.534304  0.662673  0.461959
    C   C229  0.965696  0.458012  0.162673  0.461711
    C   C230  0.541989  0.965696  0.162673  0.461720
    C   C231  0.034304  0.541989  0.162673  0.461672
    C   C232  0.458012  0.034304  0.162673  0.461662
    F   F1    0.309271  0.560951  0.556143  -0.274013
    F   F2    0.439049  0.309271  0.556143  -0.274008
    F   F3    0.690729  0.439049  0.556143  -0.274007
    F   F4    0.560951  0.690729  0.556143  -0.274012
    F   F5    0.809271  0.060951  0.056143  -0.273995
    F   F6    0.939049  0.809271  0.056143  -0.273995
    F   F7    0.190729  0.939049  0.056143  -0.273994
    F   F8    0.060951  0.190729  0.056143  -0.273998
    F   F9    0.191621  0.638198  0.523612  -0.278560
    F   F10   0.361802  0.191621  0.523612  -0.278574
    F   F11   0.808379  0.361802  0.523612  -0.278564
    F   F12   0.638198  0.808379  0.523612  -0.278556
    F   F13   0.691621  0.138198  0.023612  -0.278575
    F   F14   0.861802  0.691621  0.023612  -0.278582
    F   F15   0.308379  0.861802  0.023612  -0.278583
    F   F16   0.138198  0.308379  0.023612  -0.278575
