# Generated by REPEAT Assigner based on pymatgen
data_DB0-m2_o23_o29_f0_pcu.sym.90_sqe
_audit_creation_date              2022-05-24
_audit_creation_method            REPEAT_Assigner
_cell_length_a                    27.546270
_cell_length_b                    14.434758
_cell_length_c                    15.848062
_cell_angle_alpha                 90.000000
_cell_angle_beta                  89.995279
_cell_angle_gamma                 90.000000
_cell_volume                      6301.565707
_symmetry_space_group_name_H-M    P1
_symmetry_Int_Tables_number       1
loop_
    _symmetry_equiv_pos_site_id
    _symmetry_equiv_pos_as_xyz
    1  x,y,z
loop_
    _atom_site_type_symbol
    _atom_site_label
    _atom_site_fract_x
    _atom_site_fract_y
    _atom_site_fract_z
    _atom_type_partial_charge
    O   O1   0.496481  0.418612  0.624195  -0.650429
    O   O2   0.496291  0.577908  0.625263  -0.628888
    C   C1   0.497841  0.497975  0.664029  0.897112
    O   O3   0.568871  0.419249  0.499138  -0.596304
    O   O4   0.568843  0.578234  0.506453  -0.594422
    C   C2   0.591659  0.498738  0.503054  0.612291
    Cu  Cu1  0.498326  0.406076  0.501526  0.963994
    Cu  Cu2  0.498318  0.591459  0.502724  0.955858
    O   O5   0.497132  0.419590  0.378930  -0.635221
    O   O6   0.497307  0.578949  0.380054  -0.657538
    O   O7   0.427786  0.419141  0.498101  -0.562739
    O   O8   0.427757  0.578485  0.504745  -0.563839
    C   C3   0.498975  0.499612  0.340279  0.902976
    C   C4   0.404990  0.498800  0.501422  0.627698
    C   C5   0.821549  0.521396  0.572700  0.448768
    O   O9   0.796745  0.541841  0.643307  -0.516107
    N   N1   0.797212  0.498901  0.501940  -0.177113
    C   C6   0.821430  0.476392  0.431053  0.451302
    C   C7   0.720267  0.580373  0.514530  -0.175729
    C   C8   0.670220  0.580508  0.514527  -0.115077
    C   C9   0.670213  0.417116  0.490639  -0.100096
    C   C10  0.720258  0.417348  0.489955  -0.186415
    C   C11  0.745445  0.498879  0.502111  0.258715
    C   C12  0.897295  0.498889  0.501682  0.122452
    C   C13  0.871776  0.521762  0.573361  -0.129272
    C   C14  0.896533  0.543568  0.645870  -0.040304
    C   C15  0.871660  0.476018  0.430132  -0.130347
    C   C16  0.644892  0.498775  0.502831  0.031073
    H   H1   0.651343  0.352340  0.481091  0.117656
    H   H2   0.739720  0.353121  0.480663  0.138625
    H   H3   0.877556  0.559781  0.703666  0.124658
    C   C17  0.351741  0.498796  0.501119  -0.016602
    C   C18  0.023701  0.529695  0.572080  0.042846
    C   C19  0.023596  0.468029  0.430679  0.048821
    C   C20  0.048679  0.498853  0.501324  0.015780
    C   C21  0.050396  0.565440  0.639339  -0.184721
    C   C22  0.100186  0.566288  0.637841  -0.042005
    C   C23  0.124839  0.532120  0.569281  -0.130578
    C   C24  0.099214  0.498834  0.501214  0.125070
    C   C25  0.124744  0.465527  0.433039  -0.130106
    C   C26  0.174976  0.465822  0.433722  0.447963
    N   N2   0.199335  0.498799  0.501007  -0.182870
    C   C27  0.175066  0.531781  0.568393  0.451356
    C   C28  0.276351  0.581235  0.505870  -0.173638
    C   C29  0.326399  0.581359  0.505868  -0.098275
    C   C30  0.326405  0.416237  0.496208  -0.097973
    C   C31  0.276355  0.416363  0.496005  -0.173848
    C   C32  0.251135  0.498799  0.500919  0.256378
    O   O10  0.199912  0.562514  0.635787  -0.513127
    C   C33  0.972915  0.524991  0.573759  0.062688
    C   C34  0.947830  0.498879  0.501558  0.008498
    C   C35  0.972805  0.472754  0.429239  0.059013
    C   C36  0.946326  0.544962  0.646362  -0.197972
    H   H4   0.345235  0.646879  0.509657  0.119527
    H   H5   0.256930  0.646217  0.509060  0.136731
    H   H6   0.119240  0.594669  0.691514  0.123889
    H   H7   0.034275  0.596378  0.694230  0.133052
    H   H8   0.962535  0.559760  0.706499  0.138592
    O   O11  0.796507  0.455922  0.360585  -0.520127
    C   C37  0.896306  0.454190  0.357506  -0.034958
    H   H9   0.651352  0.645261  0.524227  0.124264
    H   H10  0.739736  0.644638  0.523556  0.137645
    H   H11  0.877239  0.437970  0.299807  0.122528
    C   C38  0.050196  0.432286  0.363295  -0.189243
    C   C39  0.099990  0.431393  0.364580  -0.038877
    O   O12  0.199734  0.435050  0.366239  -0.512546
    C   C40  0.946101  0.452776  0.356770  -0.200696
    H   H12  0.033992  0.401388  0.308463  0.133479
    H   H13  0.345250  0.350716  0.492561  0.118818
    H   H14  0.118968  0.403011  0.310820  0.123358
    H   H15  0.256937  0.351379  0.492803  0.137389
    H   H16  0.962219  0.437945  0.296562  0.140081
    C   C41  0.477580  0.414932  0.958221  -0.191997
    C   C42  0.473825  0.584210  0.953767  -0.125605
    C   C43  0.475737  0.585332  0.048820  -0.003074
    C   C44  0.481553  0.417562  0.053256  0.002551
    H   H17  0.444254  0.417947  0.079530  0.031028
    H   H18  0.438306  0.575859  0.073027  0.016852
    H   H19  0.438646  0.414488  0.940470  0.041553
    H   H20  0.435482  0.580507  0.932738  0.031262
    H   H21  0.490258  0.648645  0.928561  0.021962
    H   H22  0.494281  0.351514  0.932013  0.035779
    H   H23  0.486935  0.655079  0.068836  -0.009199
    H   H24  0.498747  0.353952  0.077967  -0.000593
    C   C45  0.501310  0.500739  0.249901  -0.234121
    C   C46  0.501333  0.500705  0.922716  0.552734
    C   C47  0.507646  0.505608  0.081828  0.369273
    C   C48  0.561457  0.508156  0.046677  -0.175674
    C   C49  0.554150  0.509355  0.949729  0.017607
    C   C50  0.504707  0.502920  0.174092  -0.254931
    C   C51  0.499206  0.498318  0.830545  -0.263677
    C   C52  0.498190  0.497554  0.754551  -0.252030
    H   H25  0.576675  0.460080  0.913808  0.001724
    H   H26  0.565251  0.578470  0.926476  -0.009741
    C   C53  0.482756  0.945881  0.413798  -0.145294
    C   C54  0.486418  0.050537  0.411651  -0.135612
    C   C55  0.547233  0.946633  0.522469  -0.111602
    C   C56  0.546156  0.051279  0.528234  -0.174391
    H   H27  0.516141  0.071431  0.368460  0.035665
    H   H28  0.507377  0.915899  0.365641  0.059086
    H   H29  0.559013  0.917357  0.583831  0.053144
    H   H30  0.552747  0.072861  0.594404  0.047196
    H   H31  0.573251  0.925173  0.472775  0.035932
    H   H32  0.574972  0.080714  0.487385  0.064333
    N   N3   0.497257  0.267623  0.499512  -0.096331
    N   N4   0.497311  0.729927  0.501894  -0.089047
    C   C57  0.496954  0.911388  0.500696  0.567126
    C   C58  0.496926  0.086159  0.499735  0.603159
    C   C59  0.458202  0.051458  0.559877  -0.172188
    C   C60  0.460845  0.946851  0.565217  -0.141561
    C   C61  0.497023  0.187480  0.499400  -0.196562
    C   C62  0.497072  0.810068  0.501340  -0.201747
    H   H33  0.424471  0.917055  0.552494  0.062633
    H   H34  0.421876  0.072436  0.536550  0.050929
    H   H35  0.472655  0.926135  0.629393  0.045838
    H   H36  0.464063  0.081565  0.623436  0.062775
    H   H37  0.444940  0.924604  0.399652  0.042448
    H   H38  0.451726  0.080047  0.388481  0.056186
    C   C63  0.589617  0.421351  0.079380  0.048907
    C   C64  0.616864  0.418092  0.155822  0.334624
    C   C65  0.626929  0.498180  0.213806  -0.471763
    C   C66  0.638967  0.335952  0.180394  -0.339690
    C   C67  0.636225  0.257334  0.132500  -0.040440
    C   C68  0.611322  0.259289  0.058241  -0.221074
    C   C69  0.588666  0.339090  0.032204  -0.071585
    H   H39  0.593867  0.535581  0.231958  0.141512
    H   H40  0.653944  0.545508  0.185314  0.127624
    H   H41  0.643075  0.473380  0.273677  0.115147
    H   H42  0.659947  0.332448  0.237902  0.167673
    H   H43  0.654008  0.194485  0.152976  0.099074
    H   H44  0.609010  0.197470  0.019965  0.113369
    H   H45  0.568992  0.332168  0.974381  0.091847
    C   C70  0.591945  0.596712  0.063624  -0.079391
    C   C71  0.638217  0.610866  0.025943  0.364073
    C   C72  0.664207  0.541717  0.971081  -0.427721
    C   C73  0.663189  0.692839  0.040057  -0.344325
    C   C74  0.644966  0.760472  0.091660  -0.015969
    C   C75  0.601839  0.746189  0.132071  -0.278246
    C   C76  0.576068  0.665882  0.119109  -0.010738
    H   H46  0.666564  0.472879  0.001067  0.099477
    H   H47  0.702203  0.564129  0.960899  0.112476
    H   H48  0.647621  0.537475  0.907684  0.109840
    H   H49  0.697925  0.705227  0.010464  0.146815
    H   H50  0.665171  0.823640  0.102052  0.096296
    H   H51  0.588170  0.797826  0.175375  0.130494
    H   H52  0.544418  0.658772  0.157726  0.114956
