# generated using pymatgen
data_Zn2H15C32N2ClO8
_symmetry_space_group_name_H-M   'P 1'
_cell_length_a   8.51121000
_cell_length_b   10.90100400
_cell_length_c   11.33414800
_cell_angle_alpha   96.60954400
_cell_angle_beta   93.65785800
_cell_angle_gamma   90.03610200
_symmetry_Int_Tables_number   1
_chemical_formula_structural   Zn2H15C32N2ClO8
_chemical_formula_sum   'Zn2 H15 C32 N2 Cl1 O8'
_cell_volume   1042.43951952
_cell_formula_units_Z   1
loop_
 _symmetry_equiv_pos_site_id
 _symmetry_equiv_pos_as_xyz
  1  'x, y, z'
loop_
 _atom_site_type_symbol
 _atom_site_label
 _atom_site_symmetry_multiplicity
 _atom_site_fract_x
 _atom_site_fract_y
 _atom_site_fract_z
 _atom_site_occupancy
  Zn  Zn1  1  0.49008700  0.09123500  0.04032900  1
  Zn  Zn2  1  0.50759600  0.11863600  0.30598000  1
  H  H1  1  0.61031100  0.49461800  0.18733600  1
  H  H2  1  0.60904900  0.71608100  0.18487500  1
  H  H3  1  0.25712800  0.69980100  0.18918300  1
  H  H4  1  0.25390300  0.51202700  0.15322500  1
  H  H5  1  0.00156900  0.19583500  0.20310500  1
  H  H6  1  0.98935700  0.01214600  0.13710500  1
  H  H7  1  0.49577800  0.94554200  0.46874300  1
  H  H8  1  0.53053000  0.33088100  0.47608300  1
  H  H9  1  0.47812300  0.85491000  0.64993500  1
  H  H10  1  0.52172600  0.35694400  0.69372600  1
  H  H11  1  0.50150100  0.26419100  0.87808800  1
  H  H12  1  0.20640800  0.63266000  0.93627300  1
  H  H13  1  0.45076300  0.52040200  0.97735900  1
  H  H14  1  0.70656700  0.61204400  0.94522300  1
  H  H15  1  0.71831700  0.81781500  0.87771200  1
  C  C1  1  0.00269300  0.54102200  0.17527600  1
  C  C2  1  0.86059800  0.47811400  0.17963000  1
  C  C3  1  0.72086500  0.54226100  0.18343000  1
  C  C4  1  0.72028600  0.66844600  0.18300300  1
  C  C5  1  0.85934600  0.73232200  0.17791400  1
  C  C6  1  0.00224500  0.66967400  0.17623500  1
  C  C7  1  0.85711500  0.85867700  0.17121200  1
  C  C8  1  0.99374100  0.91820500  0.15467100  1
  C  C9  1  0.13589000  0.86171100  0.16519700  1
  C  C10  1  0.14164200  0.73803400  0.17810200  1
  C  C11  1  0.14141000  0.47290800  0.16616800  1
  C  C12  1  0.13913100  0.34829700  0.17446800  1
  C  C13  1  0.00064900  0.29077400  0.18894500  1
  C  C14  1  0.86046100  0.35106000  0.18246900  1
  C  C15  1  0.27763800  0.93789400  0.16816500  1
  C  C16  1  0.28132500  0.27358200  0.17180200  1
  C  C17  1  0.71837100  0.27403200  0.17869000  1
  C  C18  1  0.71521100  0.93471700  0.17433900  1
  C  C19  1  0.48215500  0.94607900  0.69901400  1
  C  C20  1  0.47629900  0.95868800  0.82072400  1
  C  C21  1  0.49483600  0.17388500  0.82738400  1
  C  C22  1  0.50223000  0.16298400  0.70495700  1
  C  C23  1  0.49576100  0.04838200  0.64077300  1
  C  C24  1  0.50277800  0.03610000  0.51894700  1
  C  C25  1  0.52273700  0.25048000  0.52307800  1
  C  C26  1  0.51670300  0.26537000  0.64548300  1
  C  C27  1  0.46966300  0.84467900  0.87653600  1
  C  C28  1  0.32588500  0.78967800  0.88729000  1
  C  C29  1  0.31915100  0.67444700  0.92585100  1
  C  C30  1  0.45604300  0.61144000  0.94869800  1
  C  C31  1  0.59943600  0.66316900  0.93158500  1
  C  C32  1  0.60605100  0.77903200  0.89444600  1
  N  N1  1  0.51593000  0.13669800  0.46189700  1
  N  N2  1  0.48206100  0.07233000  0.88418000  1
  Cl  Cl1  1  0.15158800  0.86699600  0.85295400  1
  O  O1  1  0.33499500  0.99041100  0.27191600  1
  O  O2  1  0.32539900  0.96622800  0.06696300  1
  O  O3  1  0.32313500  0.22061400  0.06831300  1
  O  O4  1  0.34279100  0.24531600  0.27416700  1
  O  O5  1  0.66247000  0.21984900  0.07462100  1
  O  O6  1  0.67102200  0.24497100  0.27989200  1
  O  O7  1  0.67468200  0.98933300  0.27750000  1
  O  O8  1  0.65417800  0.96418500  0.07260400  1
