# Generated by REPEAT Assigner based on pymatgen
data_DB0-m29_o82_o143_f0_pts.sym.79
_audit_creation_date              2022-05-24
_audit_creation_method            REPEAT_Assigner
_cell_length_a                    14.659354
_cell_length_b                    16.781248
_cell_length_c                    11.075252
_cell_angle_alpha                 108.126603
_cell_angle_beta                  94.271274
_cell_angle_gamma                 108.575835
_cell_volume                      2408.428135
_symmetry_space_group_name_H-M    P1
_symmetry_Int_Tables_number       1
loop_
    _symmetry_equiv_pos_site_id
    _symmetry_equiv_pos_as_xyz
    1  x,y,z
loop_
    _atom_site_type_symbol
    _atom_site_label
    _atom_site_fract_x
    _atom_site_fract_y
    _atom_site_fract_z
    _atom_type_partial_charge
    C   C1   0.214571  0.987465  0.813939  -0.226123
    C   C2   0.127115  0.988331  0.757964  0.350185
    C   C3   0.057592  0.000658  0.831116  -0.292206
    C   C4   0.852583  0.919901  0.852630  -0.071615
    C   C5   0.230026  0.999604  0.945334  0.088977
    C   C6   0.157432  0.009595  0.017266  -0.117311
    C   C7   0.067024  0.002650  0.957700  0.195363
    C   C8   0.992832  0.008859  0.030325  -0.076189
    C   C9   0.760997  0.906982  0.793825  -0.205151
    C   C10  0.703917  0.948122  0.861564  0.102823
    C   C11  0.893138  0.982579  0.976301  0.092489
    C   C12  0.829811  0.011532  0.051820  0.060806
    C   C13  0.732295  0.990974  0.995149  -0.084966
    C   C14  0.177038  0.032453  0.150531  0.044136
    C   C15  0.110938  0.054820  0.222877  -0.239787
    C   C16  0.020022  0.044361  0.163518  0.202381
    C   C17  0.957331  0.071589  0.238606  -0.196189
    C   C18  0.865585  0.061113  0.182456  -0.125161
    H   H1   0.996602  0.011078  0.786553  0.122649
    H   H2   0.891790  0.881171  0.798023  0.110153
    H   H3   0.734366  0.865001  0.692878  0.137290
    H   H4   0.246068  0.040069  0.202992  0.072338
    H   H5   0.130550  0.079515  0.327304  0.132431
    H   H6   0.981462  0.105000  0.342180  0.133186
    H   H7   0.823382  0.091560  0.244391  0.136153
    O   O1   0.573083  0.002273  0.026764  -0.516478
    C   C19  0.655983  0.998846  0.074805  0.580662
    O   O2   0.489571  0.817073  0.044397  -0.496790
    O   O3   0.662178  0.984725  0.184714  -0.470757
    O   O4   0.458501  0.899587  0.230247  -0.525316
    C   C20  0.472313  0.826487  0.161641  0.573121
    Fe  Fe1  0.477410  0.988502  0.142725  1.439673
    O   O5   0.343536  0.945321  0.033915  -0.604457
    O   O6   0.395123  0.093072  0.056804  -0.533276
    C   C21  0.326619  0.012666  0.012629  0.644861
    O   O7   0.530589  0.110665  0.281955  -0.617795
    O   O8   0.400396  0.042771  0.359516  -0.472925
    C   C22  0.477674  0.113432  0.372754  0.683550
    O   O9   0.414090  0.853366  0.523789  -0.610492
    O   O10  0.554120  0.921138  0.463218  -0.496899
    C   C23  0.474002  0.851017  0.441365  0.718178
    O   O11  0.595436  0.010660  0.785421  -0.607370
    O   O12  0.550574  0.858527  0.715472  -0.514150
    C   C24  0.611616  0.938691  0.789232  0.624818
    O   O13  0.294100  0.005513  0.634615  -0.503394
    O   O14  0.496365  0.065999  0.586304  -0.476737
    C   C25  0.487877  0.141436  0.656379  0.520326
    O   O15  0.364391  0.959387  0.774881  -0.530182
    C   C26  0.293010  0.982973  0.737920  0.732731
    O   O16  0.472706  0.152548  0.774809  -0.476665
    Fe  Fe2  0.466611  0.973439  0.667919  1.438956
    C   C27  0.491560  0.199971  0.471569  -0.000764
    C   C28  0.494857  0.269095  0.427649  -0.239184
    H   H8   0.493799  0.257723  0.325988  0.193084
    C   C29  0.494420  0.349845  0.509539  0.160636
    C   C30  0.496799  0.363083  0.639363  -0.163508
    H   H9   0.495335  0.425170  0.705824  0.126751
    C   C31  0.496458  0.295380  0.685264  -0.119386
    H   H10  0.497346  0.307791  0.787162  0.135533
    C   C32  0.492398  0.212631  0.602441  0.013708
    C   C33  0.537275  0.508839  0.526475  -0.101350
    C   C34  0.529403  0.572876  0.477102  -0.135935
    C   C35  0.470882  0.547817  0.357728  0.059694
    C   C36  0.420523  0.457659  0.288300  -0.126386
    C   C37  0.428012  0.393613  0.337903  -0.082567
    C   C38  0.486791  0.418600  0.457187  0.009213
    C   C39  0.465312  0.604813  0.176716  -0.144944
    H   H11  0.469264  0.543565  0.111065  0.123480
    C   C40  0.466881  0.673084  0.131497  -0.114434
    H   H12  0.469458  0.662100  0.030584  0.131567
    C   C41  0.467573  0.754627  0.214062  -0.008862
    C   C42  0.463379  0.765354  0.343266  -0.007735
    C   C43  0.459656  0.695969  0.386671  -0.196795
    H   H13  0.457586  0.706028  0.487443  0.177306
    C   C44  0.463528  0.616543  0.305427  0.118877
    H   H14  0.585361  0.530305  0.618455  0.106392
    H   H15  0.571912  0.642782  0.531832  0.115506
    H   H16  0.372786  0.436403  0.196090  0.106763
    H   H17  0.385101  0.323817  0.283171  0.082496
    N   N1   0.107533  0.978442  0.626249  -0.511586
    C   C45  0.080770  0.892969  0.543487  0.767018
    O   O17  0.098867  0.836669  0.578545  -0.544747
    C   C46  0.027737  0.866798  0.408982  -0.489043
    H   H18  0.066830  0.013181  0.602469  0.301714
    H   H19  0.073644  0.907606  0.358799  0.154561
    H   H20  0.957360  0.878299  0.411664  0.100068
    H   H21  0.012664  0.794581  0.355901  0.153003
