# generated using pymatgen
data_Cu3H20(C5O2)6
_symmetry_space_group_name_H-M   'P 1'
_cell_length_a   28.30084600
_cell_length_b   18.41257100
_cell_length_c   18.36509000
_cell_angle_alpha   90.00000000
_cell_angle_beta   48.96357500
_cell_angle_gamma   90.00000000
_symmetry_Int_Tables_number   1
_chemical_formula_structural   Cu3H20(C5O2)6
_chemical_formula_sum   'Cu12 H80 C120 O48'
_cell_volume   7218.49425576
_cell_formula_units_Z   4
loop_
 _symmetry_equiv_pos_site_id
 _symmetry_equiv_pos_as_xyz
  1  'x, y, z'
loop_
 _atom_site_type_symbol
 _atom_site_label
 _atom_site_symmetry_multiplicity
 _atom_site_fract_x
 _atom_site_fract_y
 _atom_site_fract_z
 _atom_site_occupancy
  Cu  Cu1  1  0.00000000  0.92662400  0.00000000  1
  Cu  Cu2  1  0.00000000  0.06866200  0.00000000  1
  Cu  Cu3  1  0.50000000  0.42662400  0.00000000  1
  Cu  Cu4  1  0.50000000  0.56866200  0.00000000  1
  Cu  Cu5  1  0.50035100  0.99679900  0.42707900  1
  Cu  Cu6  1  0.49964900  0.99679900  0.57292100  1
  Cu  Cu7  1  0.00035100  0.49679900  0.42707900  1
  Cu  Cu8  1  0.99964900  0.49679900  0.57292100  1
  Cu  Cu9  1  0.06242900  0.99678200  0.43630500  1
  Cu  Cu10  1  0.93757100  0.99678200  0.56369500  1
  Cu  Cu11  1  0.56242900  0.49678200  0.43630500  1
  Cu  Cu12  1  0.43757100  0.49678200  0.56369500  1
  H  H1  1  0.20072300  0.02975400  0.69058600  1
  H  H2  1  0.79447700  0.11050700  0.22912700  1
  H  H3  1  0.79927700  0.02975400  0.30941400  1
  H  H4  1  0.20552300  0.11050700  0.77087300  1
  H  H5  1  0.70072300  0.52975400  0.69058600  1
  H  H6  1  0.29447700  0.61050700  0.22912700  1
  H  H7  1  0.29927700  0.52975400  0.30941400  1
  H  H8  1  0.70552300  0.61050700  0.77087300  1
  H  H9  1  0.30145700  0.02759000  0.58619300  1
  H  H10  1  0.69211000  0.11351700  0.31245300  1
  H  H11  1  0.69854400  0.02759000  0.41380700  1
  H  H12  1  0.30789000  0.11351700  0.68754700  1
  H  H13  1  0.80145700  0.52759000  0.58619300  1
  H  H14  1  0.19211000  0.61351700  0.31245300  1
  H  H15  1  0.19854400  0.52759000  0.41380700  1
  H  H16  1  0.80789000  0.61351700  0.68754700  1
  H  H17  1  0.30447400  0.93118400  0.59836700  1
  H  H18  1  0.69974100  0.07602100  0.21438100  1
  H  H19  1  0.69552600  0.93118400  0.40163300  1
  H  H20  1  0.30025900  0.07602100  0.78561900  1
  H  H21  1  0.80447400  0.43118400  0.59836700  1
  H  H22  1  0.19974100  0.57602100  0.21438100  1
  H  H23  1  0.19552600  0.43118400  0.40163300  1
  H  H24  1  0.80025900  0.57602100  0.78561900  1
  H  H25  1  0.19541700  0.88634200  0.84989100  1
  H  H26  1  0.79685800  0.95348300  0.09047000  1
  H  H27  1  0.80458300  0.88634200  0.15010900  1
  H  H28  1  0.20314300  0.95348300  0.90953000  1
  H  H29  1  0.69541700  0.38634200  0.84989100  1
  H  H30  1  0.29685800  0.45348300  0.09047000  1
  H  H31  1  0.30458300  0.38634200  0.15010900  1
  H  H32  1  0.70314300  0.45348300  0.90953000  1
  H  H33  1  0.30181600  0.88383400  0.72956000  1
  H  H34  1  0.69557400  0.94579500  0.19768100  1
  H  H35  1  0.69818400  0.88383400  0.27044000  1
  H  H36  1  0.30442700  0.94579500  0.80231900  1
  H  H37  1  0.80181600  0.38383400  0.72956000  1
  H  H38  1  0.19557400  0.44579500  0.19768100  1
  H  H39  1  0.19818400  0.38383400  0.27044000  1
  H  H40  1  0.80442700  0.44579500  0.80231900  1
  H  H41  1  0.13868500  0.98217100  0.67053800  1
  H  H42  1  0.09893500  0.87939300  0.64153500  1
  H  H43  1  0.12526600  0.75466000  0.65068600  1
  H  H44  1  0.19452500  0.73341100  0.68525500  1
  H  H45  1  0.23707000  0.83427500  0.71006400  1
  H  H46  1  0.76143500  0.21079300  0.18506900  1
  H  H47  1  0.79445900  0.28422200  0.04822500  1
  H  H48  1  0.86156200  0.23167600  0.88522500  1
  H  H49  1  0.89615800  0.10506600  0.86027600  1
  H  H50  1  0.86582800  0.03150800  0.99311900  1
  H  H51  1  0.86131500  0.98217100  0.32946200  1
  H  H52  1  0.90106500  0.87939300  0.35846500  1
  H  H53  1  0.87473400  0.75466000  0.34931400  1
  H  H54  1  0.80547500  0.73341100  0.31474500  1
  H  H55  1  0.76293000  0.83427500  0.28993600  1
  H  H56  1  0.23856600  0.21079300  0.81493000  1
  H  H57  1  0.20554100  0.28422200  0.95177500  1
  H  H58  1  0.13843900  0.23167600  0.11477500  1
  H  H59  1  0.10384200  0.10506600  0.13972400  1
  H  H60  1  0.13417200  0.03150800  0.00688100  1
  H  H61  1  0.63868500  0.48217100  0.67053800  1
  H  H62  1  0.59893500  0.37939300  0.64153500  1
  H  H63  1  0.62526600  0.25466000  0.65068600  1
  H  H64  1  0.69452500  0.23341100  0.68525500  1
  H  H65  1  0.73707000  0.33427500  0.71006400  1
  H  H66  1  0.26143500  0.71079300  0.18506900  1
  H  H67  1  0.29445900  0.78422200  0.04822500  1
  H  H68  1  0.36156200  0.73167600  0.88522500  1
  H  H69  1  0.39615800  0.60506600  0.86027600  1
  H  H70  1  0.36582800  0.53150800  0.99311900  1
  H  H71  1  0.36131500  0.48217100  0.32946200  1
  H  H72  1  0.40106500  0.37939300  0.35846500  1
  H  H73  1  0.37473400  0.25466000  0.34931400  1
  H  H74  1  0.30547500  0.23341100  0.31474500  1
  H  H75  1  0.26293000  0.33427500  0.28993600  1
  H  H76  1  0.73856600  0.71079300  0.81493000  1
  H  H77  1  0.70554100  0.78422200  0.95177500  1
  H  H78  1  0.63843900  0.73167600  0.11477500  1
  H  H79  1  0.60384200  0.60506600  0.13972400  1
  H  H80  1  0.63417200  0.53150800  0.00688100  1
  C  C1  1  0.00165400  0.99755900  0.86028700  1
  C  C2  1  0.99834600  0.99755900  0.13971300  1
  C  C3  1  0.50165400  0.49755900  0.86028700  1
  C  C4  1  0.49834600  0.49755900  0.13971300  1
  C  C5  1  0.11914000  0.99770800  0.88218600  1
  C  C6  1  0.88086000  0.99770800  0.11781400  1
  C  C7  1  0.61914000  0.49770800  0.88218600  1
  C  C8  1  0.38086000  0.49770800  0.11781400  1
  C  C9  1  0.21456300  0.98278000  0.71048500  1
  C  C10  1  0.78457100  0.07393300  0.19265900  1
  C  C11  1  0.78543700  0.98278000  0.28951500  1
  C  C12  1  0.21542900  0.07393300  0.80734100  1
  C  C13  1  0.71456300  0.48278000  0.71048500  1
  C  C14  1  0.28457100  0.57393300  0.19265900  1
  C  C15  1  0.28543700  0.48278000  0.28951500  1
  C  C16  1  0.71542900  0.57393300  0.80734100  1
  C  C17  1  0.28567000  0.98311700  0.63855500  1
  C  C18  1  0.71368900  0.06938900  0.25806200  1
  C  C19  1  0.71433000  0.98311700  0.36144500  1
  C  C20  1  0.28631200  0.06938900  0.74193800  1
  C  C21  1  0.78567000  0.48311700  0.63855500  1
  C  C22  1  0.21368900  0.56938900  0.25806200  1
  C  C23  1  0.21433000  0.48311700  0.36144500  1
  C  C24  1  0.78631200  0.56938900  0.74193800  1
  C  C25  1  0.21515100  0.94075700  0.84053900  1
  C  C26  1  0.78484900  0.94075700  0.15946100  1
  C  C27  1  0.71515100  0.44075700  0.84053900  1
  C  C28  1  0.28484900  0.44075700  0.15946100  1
  C  C29  1  0.18966800  0.99793600  0.81306700  1
  C  C30  1  0.81033200  0.99793600  0.18693300  1
  C  C31  1  0.68966800  0.49793600  0.81306700  1
  C  C32  1  0.31033200  0.49793600  0.18693300  1
  C  C33  1  0.30974000  0.99667700  0.69087400  1
  C  C34  1  0.69026000  0.99667700  0.30912600  1
  C  C35  1  0.80974000  0.49667700  0.69087400  1
  C  C36  1  0.19026000  0.49667700  0.30912600  1
  C  C37  1  0.28595300  0.93764600  0.76519200  1
  C  C38  1  0.71404700  0.93764600  0.23480800  1
  C  C39  1  0.78595300  0.43764600  0.76519200  1
  C  C40  1  0.21404700  0.43764600  0.23480800  1
  C  C41  1  0.00130400  0.99719100  0.78237300  1
  C  C42  1  0.99869600  0.99719100  0.21762700  1
  C  C43  1  0.50130400  0.49719100  0.78237300  1
  C  C44  1  0.49869600  0.49719100  0.21762700  1
  C  C45  1  0.00090900  0.99684000  0.71708600  1
  C  C46  1  0.99909100  0.99684000  0.28291400  1
  C  C47  1  0.50090900  0.49684000  0.71708600  1
  C  C48  1  0.49909100  0.49684000  0.28291400  1
  C  C49  1  0.50000000  0.85741500  0.50000000  1
  C  C50  1  0.50000000  0.13615900  0.50000000  1
  C  C51  1  0.00000000  0.35741500  0.50000000  1
  C  C52  1  0.00000000  0.63615900  0.50000000  1
  C  C53  1  0.37966800  0.99691300  0.62035700  1
  C  C54  1  0.62033200  0.99691300  0.37964300  1
  C  C55  1  0.87966800  0.49691300  0.62035700  1
  C  C56  1  0.12033200  0.49691300  0.37964300  1
  C  C57  1  0.00000000  0.13609500  0.50000000  1
  C  C58  1  0.00000000  0.85744900  0.50000000  1
  C  C59  1  0.50000000  0.63609500  0.50000000  1
  C  C60  1  0.50000000  0.35744900  0.50000000  1
  C  C61  1  0.00040900  0.99619900  0.63934300  1
  C  C62  1  0.99959200  0.99619900  0.36065600  1
  C  C63  1  0.50040900  0.49619900  0.63934300  1
  C  C64  1  0.49959200  0.49619900  0.36065600  1
  C  C65  1  0.50000000  0.77947900  0.50000000  1
  C  C66  1  0.50000000  0.21408400  0.50000000  1
  C  C67  1  0.00000000  0.27947900  0.50000000  1
  C  C68  1  0.00000000  0.71408400  0.50000000  1
  C  C69  1  0.00000000  0.21403100  0.50000000  1
  C  C70  1  0.00000000  0.77952400  0.50000000  1
  C  C71  1  0.50000000  0.71403100  0.50000000  1
  C  C72  1  0.50000000  0.27952400  0.50000000  1
  C  C73  1  0.18825700  0.91689200  0.69847600  1
  C  C74  1  0.15079100  0.92793100  0.67576700  1
  C  C75  1  0.12820300  0.86993700  0.65897700  1
  C  C76  1  0.14297100  0.80003500  0.66393700  1
  C  C77  1  0.18149800  0.78821500  0.68374300  1
  C  C78  1  0.20463500  0.84603700  0.69971800  1
  C  C79  1  0.80930200  0.11452500  0.10187100  1
  C  C80  1  0.79093600  0.18646200  0.11407200  1
  C  C81  1  0.80950900  0.22830900  0.03696300  1
  C  C82  1  0.84701200  0.19899500  0.94582200  1
  C  C83  1  0.86629600  0.12798900  0.93204800  1
  C  C84  1  0.84807800  0.08597500  0.00900500  1
  C  C85  1  0.81174300  0.91689200  0.30152300  1
  C  C86  1  0.84920900  0.92793100  0.32423300  1
  C  C87  1  0.87179700  0.86993700  0.34102300  1
  C  C88  1  0.85702900  0.80003500  0.33606300  1
  C  C89  1  0.81850200  0.78821500  0.31625700  1
  C  C90  1  0.79536600  0.84603700  0.30028200  1
  C  C91  1  0.19069800  0.11452500  0.89812900  1
  C  C92  1  0.20906400  0.18646200  0.88592800  1
  C  C93  1  0.19049100  0.22830900  0.96303700  1
  C  C94  1  0.15298800  0.19899500  0.05417800  1
  C  C95  1  0.13370500  0.12798900  0.06795200  1
  C  C96  1  0.15192200  0.08597500  0.99099500  1
  C  C97  1  0.68825700  0.41689200  0.69847600  1
  C  C98  1  0.65079100  0.42793100  0.67576700  1
  C  C99  1  0.62820300  0.36993700  0.65897700  1
  C  C100  1  0.64297100  0.30003500  0.66393700  1
  C  C101  1  0.68149800  0.28821500  0.68374300  1
  C  C102  1  0.70463500  0.34603700  0.69971800  1
  C  C103  1  0.30930200  0.61452500  0.10187100  1
  C  C104  1  0.29093600  0.68646200  0.11407200  1
  C  C105  1  0.30950900  0.72830900  0.03696300  1
  C  C106  1  0.34701200  0.69899500  0.94582200  1
  C  C107  1  0.36629600  0.62798900  0.93204800  1
  C  C108  1  0.34807800  0.58597500  0.00900500  1
  C  C109  1  0.31174300  0.41689200  0.30152300  1
  C  C110  1  0.34920900  0.42793100  0.32423300  1
  C  C111  1  0.37179700  0.36993700  0.34102300  1
  C  C112  1  0.35702900  0.30003500  0.33606300  1
  C  C113  1  0.31850200  0.28821500  0.31625700  1
  C  C114  1  0.29536600  0.34603700  0.30028200  1
  C  C115  1  0.69069800  0.61452500  0.89812900  1
  C  C116  1  0.70906400  0.68646200  0.88592800  1
  C  C117  1  0.69049100  0.72830900  0.96303700  1
  C  C118  1  0.65298800  0.69899500  0.05417800  1
  C  C119  1  0.63370500  0.62798900  0.06795200  1
  C  C120  1  0.65192200  0.58597500  0.99099500  1
  O  O1  1  0.01825700  0.93758600  0.87787200  1
  O  O2  1  0.01523500  0.05771600  0.08887900  1
  O  O3  1  0.98174300  0.93758600  0.12212800  1
  O  O4  1  0.98476500  0.05771600  0.91112100  1
  O  O5  1  0.51825700  0.43758600  0.87787200  1
  O  O6  1  0.51523500  0.55771600  0.08887900  1
  O  O7  1  0.48174300  0.43758600  0.12212800  1
  O  O8  1  0.48476500  0.55771600  0.91112100  1
  O  O9  1  0.08918300  0.93765600  0.93111000  1
  O  O10  1  0.91022300  0.05760400  0.10862800  1
  O  O11  1  0.91081700  0.93765600  0.06889000  1
  O  O12  1  0.08977700  0.05760400  0.89137200  1
  O  O13  1  0.58918300  0.43765600  0.93111000  1
  O  O14  1  0.41022300  0.55760400  0.10862800  1
  O  O15  1  0.41081700  0.43765600  0.06889000  1
  O  O16  1  0.58977700  0.55760400  0.89137200  1
  O  O17  1  0.49855300  0.89118300  0.43854500  1
  O  O18  1  0.50310000  0.10233400  0.55954100  1
  O  O19  1  0.50144800  0.89118300  0.56145400  1
  O  O20  1  0.49690000  0.10233400  0.44045900  1
  O  O21  1  0.99855300  0.39118300  0.43854500  1
  O  O22  1  0.00310000  0.60233400  0.55954100  1
  O  O23  1  0.00144800  0.39118300  0.56145400  1
  O  O24  1  0.99690000  0.60233400  0.44045900  1
  O  O25  1  0.40924500  0.99305500  0.52796800  1
  O  O26  1  0.59075500  0.99305500  0.47203200  1
  O  O27  1  0.90924500  0.49305500  0.52796800  1
  O  O28  1  0.09075500  0.49305500  0.47203200  1
  O  O29  1  0.40867000  0.99507400  0.65395900  1
  O  O30  1  0.59133100  0.99507400  0.34604100  1
  O  O31  1  0.90867000  0.49507400  0.65395900  1
  O  O32  1  0.09133100  0.49507400  0.34604100  1
  O  O33  1  0.05406200  0.10231900  0.44190500  1
  O  O34  1  0.94607000  0.89126900  0.55812500  1
  O  O35  1  0.94593900  0.10231900  0.55809500  1
  O  O36  1  0.05393000  0.89126900  0.44187500  1
  O  O37  1  0.55406200  0.60231900  0.44190500  1
  O  O38  1  0.44607000  0.39126900  0.55812500  1
  O  O39  1  0.44593900  0.60231900  0.55809500  1
  O  O40  1  0.55393000  0.39126900  0.44187500  1
  O  O41  1  0.05418700  0.99941000  0.55054200  1
  O  O42  1  0.94581300  0.99941000  0.44945800  1
  O  O43  1  0.55418700  0.49941000  0.55054200  1
  O  O44  1  0.44581300  0.49941000  0.44945800  1
  O  O45  1  0.94621300  0.99958100  0.66073500  1
  O  O46  1  0.05378700  0.99958100  0.33926500  1
  O  O47  1  0.44621300  0.49958100  0.66073500  1
  O  O48  1  0.55378700  0.49958100  0.33926500  1
