# Generated by REPEAT Assigner based on pymatgen
data_DB0-m29_o93_o1510_f0_pts.sym.71
_audit_creation_date              2022-05-24
_audit_creation_method            REPEAT_Assigner
_cell_length_a                    15.057174
_cell_length_b                    19.900057
_cell_length_c                    13.446735
_cell_angle_alpha                 96.579892
_cell_angle_beta                  101.660328
_cell_angle_gamma                 71.054136
_cell_volume                      3727.020375
_symmetry_space_group_name_H-M    P1
_symmetry_Int_Tables_number       1
loop_
    _symmetry_equiv_pos_site_id
    _symmetry_equiv_pos_as_xyz
    1  x,y,z
loop_
    _atom_site_type_symbol
    _atom_site_label
    _atom_site_fract_x
    _atom_site_fract_y
    _atom_site_fract_z
    _atom_type_partial_charge
    C   C1   0.780638  0.008101  0.174481  0.029409
    H   H1   0.767712  0.013006  0.251571  0.162117
    C   C2   0.866225  0.011308  0.158497  -0.354288
    H   H2   0.918676  0.019564  0.222498  0.142669
    C   C3   0.886800  0.002068  0.062033  0.582408
    C   C4   0.818527  0.992219  0.979870  -0.241675
    H   H3   0.831813  0.987341  0.903030  0.095397
    C   C5   0.731146  0.989249  0.994900  0.039502
    C   C6   0.713733  0.995330  0.094432  -0.229598
    N   N1   0.977810  0.003044  0.050702  -0.217543
    N   N2   0.992131  0.989660  0.961695  -0.190635
    C   C7   0.103572  0.982402  0.854108  -0.378913
    H   H4   0.050432  0.975861  0.789725  0.172194
    C   C8   0.189784  0.984705  0.838659  0.039665
    H   H5   0.202492  0.980917  0.761631  0.152515
    C   C9   0.257802  0.995004  0.919319  -0.172306
    C   C10  0.240723  0.999501  0.018775  -0.026170
    C   C11  0.152593  0.997756  0.033241  -0.148741
    H   H6   0.139580  0.001461  0.110029  0.087007
    C   C12  0.083367  0.990291  0.950620  0.453219
    O   O1   0.452171  0.089043  0.728765  -0.670344
    C   C13  0.361185  0.116728  0.691442  0.708906
    O   O2   0.369804  0.059362  0.927602  -0.476554
    O   O3   0.299465  0.087592  0.708314  -0.566606
    O   O4   0.381720  0.961756  0.819468  -0.691970
    C   C14  0.343688  0.002895  0.893383  0.890644
    Fe  Fe1  0.480911  0.993852  0.780834  1.496448
    O   O5   0.570803  0.990586  0.913864  -0.577180
    O   O6   0.677978  0.980984  0.812797  -0.469865
    C   C15  0.658070  0.984784  0.904283  0.617812
    O   O7   0.524678  0.931236  0.660863  -0.585383
    O   O8   0.597316  0.836637  0.761474  -0.482561
    C   C16  0.574326  0.863937  0.671999  0.585397
    O   O9   0.448007  0.057424  0.353810  -0.579295
    O   O10  0.349048  0.142138  0.246208  -0.493424
    C   C17  0.382948  0.119698  0.338456  0.563986
    O   O11  0.400586  0.999195  0.100385  -0.573292
    O   O12  0.296217  0.000562  0.200824  -0.473137
    C   C18  0.314572  0.001377  0.109711  0.642623
    O   O13  0.671820  0.906089  0.316747  -0.578219
    O   O14  0.589753  0.028139  0.194129  -0.687566
    C   C19  0.628742  0.986496  0.121160  0.905643
    O   O15  0.520672  0.899813  0.284190  -0.674954
    C   C20  0.610803  0.873955  0.326359  0.720530
    O   O16  0.603647  0.929494  0.087767  -0.505224
    Fe  Fe2  0.491244  0.995417  0.233042  1.505621
    H   H7   0.534286  0.909892  0.486037  0.150793
    C   C21  0.633159  0.829855  0.412987  0.058648
    C   C22  0.705837  0.766369  0.421091  -0.214564
    H   H8   0.744655  0.747091  0.358853  0.120424
    C   C23  0.727880  0.727801  0.507434  0.149662
    C   C24  0.680168  0.756910  0.588699  -0.172655
    H   H9   0.695739  0.728183  0.656718  0.123534
    C   C25  0.613327  0.823994  0.583341  0.029623
    C   C26  0.587153  0.858048  0.493336  -0.141763
    C   C27  0.005851  0.398919  0.556824  -0.157976
    H   H10  0.954667  0.409456  0.607124  0.113332
    C   C28  0.075505  0.333824  0.555909  -0.132312
    H   H11  0.075035  0.294356  0.604398  0.127428
    C   C29  0.143851  0.319975  0.494421  0.069198
    C   C30  0.137127  0.371411  0.429457  -0.140949
    H   H12  0.189911  0.363545  0.381941  0.117942
    C   C31  0.065028  0.435606  0.427940  -0.146164
    H   H13  0.062076  0.475868  0.378712  0.111798
    C   C32  0.000629  0.450103  0.493326  0.122776
    C   C33  0.266687  0.221688  0.417697  -0.208494
    H   H14  0.237728  0.243682  0.343958  0.143578
    C   C34  0.343145  0.159574  0.426764  0.078571
    C   C35  0.378455  0.130078  0.520256  -0.180052
    H   H15  0.435718  0.080424  0.528878  0.157520
    C   C36  0.335257  0.159121  0.602466  0.085522
    C   C37  0.258778  0.220250  0.593766  -0.241727
    H   H16  0.227940  0.242034  0.660766  0.127467
    C   C38  0.224659  0.253144  0.501854  0.147978
    C   C39  0.863272  0.546122  0.414582  -0.129895
    H   H17  0.860987  0.513631  0.344517  0.111500
    C   C40  0.797505  0.612673  0.420307  -0.153514
    H   H18  0.743502  0.629948  0.354139  0.123137
    C   C41  0.799588  0.656212  0.508628  0.041646
    C   C42  0.868751  0.630226  0.593393  -0.040368
    C   C43  0.931040  0.561781  0.587913  -0.160775
    H   H19  0.985831  0.541926  0.652505  0.089366
    C   C44  0.929747  0.520317  0.498657  0.085743
    C   C45  0.883999  0.673424  0.687508  0.235721
    C   C46  0.901741  0.737187  0.685617  -0.242774
    C   C47  0.921525  0.775074  0.775306  0.042631
    C   C48  0.924442  0.749155  0.867109  -0.058161
    Br  Br1  0.954016  0.800325  0.991318  -0.028627
    C   C49  0.907383  0.685469  0.869297  -0.006010
    C   C50  0.887770  0.647501  0.779849  -0.193726
    H   H20  0.901879  0.757033  0.614133  0.142346
    H   H21  0.935786  0.824750  0.773658  0.079065
    H   H22  0.910087  0.664990  0.941286  0.088643
    H   H23  0.874850  0.597425  0.782456  0.126646
