# generated using pymatgen
data_ZnH23C49NCl5O4
_symmetry_space_group_name_H-M   'P 1'
_cell_length_a   16.02779500
_cell_length_b   15.02595600
_cell_length_c   15.05186100
_cell_angle_alpha   90.00000000
_cell_angle_beta   89.99981300
_cell_angle_gamma   90.00000000
_symmetry_Int_Tables_number   1
_chemical_formula_structural   ZnH23C49NCl5O4
_chemical_formula_sum   'Zn2 H46 C98 N2 Cl10 O8'
_cell_volume   3624.98397391
_cell_formula_units_Z   2
loop_
 _symmetry_equiv_pos_site_id
 _symmetry_equiv_pos_as_xyz
  1  'x, y, z'
loop_
 _atom_site_type_symbol
 _atom_site_label
 _atom_site_symmetry_multiplicity
 _atom_site_fract_x
 _atom_site_fract_y
 _atom_site_fract_z
 _atom_site_occupancy
  Zn  Zn1  1  0.50000000  0.61018600  0.50000000  1
  Zn  Zn2  1  0.50000000  0.40729900  0.50000000  1
  H  H1  1  0.38937400  0.50555200  0.76484800  1
  H  H2  1  0.61062700  0.50555200  0.23515300  1
  H  H3  1  0.07581300  0.65159900  0.51298800  1
  H  H4  1  0.92457500  0.36815800  0.48556800  1
  H  H5  1  0.92418800  0.65159900  0.48701200  1
  H  H6  1  0.07542600  0.36815800  0.51443200  1
  H  H7  1  0.67385300  0.37374500  0.74288600  1
  H  H8  1  0.88611400  0.52617900  0.66760300  1
  H  H9  1  0.81600800  0.66239300  0.71756000  1
  H  H10  1  0.67695100  0.65306600  0.78701700  1
  H  H11  1  0.32614700  0.37374500  0.25711400  1
  H  H12  1  0.11388600  0.52617900  0.33239700  1
  H  H13  1  0.18399300  0.66239300  0.28244000  1
  H  H14  1  0.32305000  0.65306600  0.21298300  1
  H  H15  1  0.26275500  0.63118500  0.87027200  1
  H  H16  1  0.09091000  0.46796500  0.72856700  1
  H  H17  1  0.16506500  0.33426900  0.77998600  1
  H  H18  1  0.28780800  0.34882400  0.87682500  1
  H  H19  1  0.73724600  0.63118400  0.12972800  1
  H  H20  1  0.90909000  0.46796400  0.27143300  1
  H  H21  1  0.83493600  0.33426900  0.22001400  1
  H  H22  1  0.71219300  0.34882400  0.12317500  1
  H  H23  1  0.27305900  0.34244400  0.06539000  1
  H  H24  1  0.02658200  0.44082500  0.10520100  1
  H  H25  1  0.07662000  0.59344500  0.08020400  1
  H  H26  1  0.22467800  0.62072200  0.04780300  1
  H  H27  1  0.72694200  0.34244400  0.93461000  1
  H  H28  1  0.97341900  0.44082400  0.89479900  1
  H  H29  1  0.92338100  0.59344500  0.91979600  1
  H  H30  1  0.77532300  0.62072200  0.95219800  1
  H  H31  1  0.51965400  0.14989200  0.30118300  1
  H  H32  1  0.28873700  0.21764500  0.17889800  1
  H  H33  1  0.21293700  0.13973600  0.29758900  1
  H  H34  1  0.29012600  0.06742700  0.41852600  1
  H  H35  1  0.50831200  0.94526600  0.73669900  1
  H  H36  1  0.73121700  0.81016100  0.81075500  1
  H  H37  1  0.77619400  0.80859800  0.65445500  1
  H  H38  1  0.68799400  0.87621800  0.53959800  1
  H  H39  1  0.48034700  0.14989200  0.69881800  1
  H  H40  1  0.71126300  0.21764400  0.82110200  1
  H  H41  1  0.78706400  0.13973600  0.70241100  1
  H  H42  1  0.70987500  0.06742700  0.58147400  1
  H  H43  1  0.49168800  0.94526700  0.26330100  1
  H  H44  1  0.26878300  0.81016100  0.18924500  1
  H  H45  1  0.22380600  0.80859800  0.34554500  1
  H  H46  1  0.31200700  0.87621800  0.46040200  1
  C  C1  1  0.33816100  0.50880200  0.52060400  1
  C  C2  1  0.66183900  0.50880200  0.47939700  1
  C  C3  1  0.47988100  0.50858300  0.32734900  1
  C  C4  1  0.52011900  0.50858300  0.67265100  1
  C  C5  1  0.59010300  0.50614400  0.82072700  1
  C  C6  1  0.40989800  0.50614400  0.17927300  1
  C  C7  1  0.51849200  0.50760200  0.76993400  1
  C  C8  1  0.48150800  0.50760200  0.23006700  1
  C  C9  1  0.44216100  0.50524500  0.80926700  1
  C  C10  1  0.55784000  0.50524500  0.19073400  1
  C  C11  1  0.43449200  0.50359100  0.90055400  1
  C  C12  1  0.56550900  0.50359100  0.09944600  1
  C  C13  1  0.50490300  0.50385000  0.95385000  1
  C  C14  1  0.49509800  0.50385000  0.04615100  1
  C  C15  1  0.58448300  0.50303600  0.91458000  1
  C  C16  1  0.41551700  0.50303600  0.08542100  1
  C  C17  1  0.35598200  0.49941800  0.93802800  1
  C  C18  1  0.64401800  0.49941800  0.06197300  1
  C  C19  1  0.34544000  0.49807900  0.02896900  1
  C  C20  1  0.65456100  0.49807900  0.97103100  1
  C  C21  1  0.95764600  0.58934300  0.49199600  1
  C  C22  1  0.04220600  0.43046000  0.50856600  1
  C  C23  1  0.04235500  0.58934300  0.50800400  1
  C  C24  1  0.95779400  0.43046000  0.49143500  1
  C  C25  1  0.91544500  0.50984900  0.48330000  1
  C  C26  1  0.08455600  0.50984900  0.51670000  1
  C  C27  1  0.82629100  0.50954100  0.47544700  1
  C  C28  1  0.17371000  0.50954100  0.52455300  1
  C  C29  1  0.24883600  0.50907400  0.52547200  1
  C  C30  1  0.75116500  0.50907400  0.47452900  1
  C  C31  1  0.45552600  0.96275900  0.43623900  1
  C  C32  1  0.54378800  0.05505900  0.56433800  1
  C  C33  1  0.54447500  0.96275900  0.56376100  1
  C  C34  1  0.45621200  0.05505900  0.43566200  1
  C  C35  1  0.50000000  0.91655900  0.50000000  1
  C  C36  1  0.50000000  0.10113800  0.50000000  1
  C  C37  1  0.50000000  0.82054900  0.50000000  1
  C  C38  1  0.50000000  0.19702800  0.50000000  1
  C  C39  1  0.66850200  0.51252800  0.77168000  1
  C  C40  1  0.70475100  0.43718800  0.73646100  1
  C  C41  1  0.78292600  0.44201400  0.69887800  1
  C  C42  1  0.82352700  0.52272400  0.69385900  1
  C  C43  1  0.78430900  0.59915400  0.72231000  1
  C  C44  1  0.70649500  0.59407900  0.76092000  1
  C  C45  1  0.33149900  0.51252800  0.22832000  1
  C  C46  1  0.29525000  0.43718800  0.26354000  1
  C  C47  1  0.21707400  0.44201400  0.30112200  1
  C  C48  1  0.17647300  0.52272400  0.30614100  1
  C  C49  1  0.21569100  0.59915400  0.27769000  1
  C  C50  1  0.29350600  0.59407900  0.23908000  1
  C  C51  1  0.28200300  0.49085000  0.88112000  1
  C  C52  1  0.24105000  0.56590100  0.85091300  1
  C  C53  1  0.17234900  0.55760300  0.79636400  1
  C  C54  1  0.14481100  0.47441000  0.77126700  1
  C  C55  1  0.18633700  0.39947200  0.80015100  1
  C  C56  1  0.25509400  0.40764900  0.85457600  1
  C  C57  1  0.71799800  0.49085000  0.11888000  1
  C  C58  1  0.75895100  0.56590100  0.14908800  1
  C  C59  1  0.82765100  0.55760200  0.20363600  1
  C  C60  1  0.85519000  0.47441000  0.22873300  1
  C  C61  1  0.81366300  0.39947200  0.19985000  1
  C  C62  1  0.74490600  0.40764900  0.14542400  1
  C  C63  1  0.25905100  0.48359900  0.05817500  1
  C  C64  1  0.23031700  0.39780500  0.07067200  1
  C  C65  1  0.14701100  0.38252500  0.08785900  1
  C  C66  1  0.09191800  0.45284300  0.09197700  1
  C  C67  1  0.11998400  0.53839800  0.07803700  1
  C  C68  1  0.20318900  0.55372200  0.06045200  1
  C  C69  1  0.74095000  0.48359900  0.94182500  1
  C  C70  1  0.76968400  0.39780400  0.92932800  1
  C  C71  1  0.85299000  0.38252500  0.91214100  1
  C  C72  1  0.90808300  0.45284300  0.90802400  1
  C  C73  1  0.88001700  0.53839800  0.92196400  1
  C  C74  1  0.79681100  0.55372200  0.93954800  1
  C  C75  1  0.40983700  0.10390900  0.36747400  1
  C  C76  1  0.45222500  0.14856600  0.30117100  1
  C  C77  1  0.40871300  0.18985900  0.23378300  1
  C  C78  1  0.32281500  0.18595800  0.23210800  1
  C  C79  1  0.28031600  0.14240000  0.29873600  1
  C  C80  1  0.32369400  0.10190900  0.36663000  1
  C  C81  1  0.59233200  0.91430600  0.63083200  1
  C  C82  1  0.56658000  0.91404600  0.71836700  1
  C  C83  1  0.61615700  0.87602200  0.78283500  1
  C  C84  1  0.69172300  0.83871000  0.75999600  1
  C  C85  1  0.71685200  0.83755500  0.67242500  1
  C  C86  1  0.66707500  0.87496400  0.60785700  1
  C  C87  1  0.59016300  0.10390900  0.63252700  1
  C  C88  1  0.54777500  0.14856600  0.69882900  1
  C  C89  1  0.59128700  0.18985900  0.76621700  1
  C  C90  1  0.67718500  0.18595800  0.76789200  1
  C  C91  1  0.71968400  0.14240000  0.70126400  1
  C  C92  1  0.67630600  0.10190900  0.63337000  1
  C  C93  1  0.40766800  0.91430600  0.36916800  1
  C  C94  1  0.43342000  0.91404600  0.28163300  1
  C  C95  1  0.38384400  0.87602200  0.21716500  1
  C  C96  1  0.30827700  0.83871000  0.24000400  1
  C  C97  1  0.28314900  0.83755500  0.32757500  1
  C  C98  1  0.33292600  0.87496400  0.39214300  1
  N  N1  1  0.50000000  0.27413700  0.50000000  1
  N  N2  1  0.50000000  0.74338300  0.50000000  1
  Cl  Cl1  1  0.83222500  0.34495400  0.66196800  1
  Cl  Cl2  1  0.16777600  0.34495400  0.33803300  1
  Cl  Cl3  1  0.12010800  0.65272300  0.75870400  1
  Cl  Cl4  1  0.87989200  0.65272300  0.24129600  1
  Cl  Cl5  1  0.11083400  0.27360700  0.10279600  1
  Cl  Cl6  1  0.88916600  0.27360700  0.89720500  1
  Cl  Cl7  1  0.46253900  0.24646700  0.14975300  1
  Cl  Cl8  1  0.58410400  0.87708500  0.89402900  1
  Cl  Cl9  1  0.53746100  0.24646700  0.85024800  1
  Cl  Cl10  1  0.41589700  0.87708500  0.10597100  1
  O  O1  1  0.37657200  0.58570300  0.51549100  1
  O  O2  1  0.62345200  0.43180900  0.48447000  1
  O  O3  1  0.62342900  0.58570300  0.48451000  1
  O  O4  1  0.37654800  0.43180900  0.51553000  1
  O  O5  1  0.48542200  0.58563000  0.36844900  1
  O  O6  1  0.51461300  0.43179900  0.63145000  1
  O  O7  1  0.51457800  0.58563000  0.63155100  1
  O  O8  1  0.48538700  0.43179900  0.36855100  1
