# Generated by REPEAT Assigner based on pymatgen
data_DB0-m3_o16_o22_f0_pcu.sym.101
_audit_creation_date              2022-05-24
_audit_creation_method            REPEAT_Assigner
_cell_length_a                    10.761123
_cell_length_b                    12.571854
_cell_length_c                    13.741857
_cell_angle_alpha                 86.647518
_cell_angle_beta                  90.015192
_cell_angle_gamma                 101.824194
_cell_volume                      1816.405280
_symmetry_space_group_name_H-M    P1
_symmetry_Int_Tables_number       1
loop_
    _symmetry_equiv_pos_site_id
    _symmetry_equiv_pos_as_xyz
    1  x,y,z
loop_
    _atom_site_type_symbol
    _atom_site_label
    _atom_site_fract_x
    _atom_site_fract_y
    _atom_site_fract_z
    _atom_type_partial_charge
    O   O1   0.474615  0.376962  0.631005  -0.709478
    O   O2   0.521323  0.559153  0.660550  -0.651515
    C   C1   0.494864  0.455956  0.691319  0.816356
    O   O3   0.665444  0.416347  0.484918  -0.708385
    O   O4   0.709306  0.599054  0.514412  -0.690797
    C   C2   0.745498  0.507850  0.498888  0.629258
    Zn  Zn1  0.473142  0.384886  0.483317  1.103330
    Zn  Zn2  0.530236  0.625647  0.522170  1.102261
    O   O5   0.484296  0.451163  0.344769  -0.682546
    O   O6   0.528375  0.633500  0.374499  -0.720369
    O   O7   0.294045  0.411625  0.490540  -0.704584
    O   O8   0.337893  0.593368  0.522180  -0.706673
    C   C3   0.506986  0.554415  0.314668  0.816999
    C   C4   0.257761  0.502461  0.507061  0.592719
    C   C5   0.908644  0.423569  0.579326  -0.022931
    H   H1   0.857231  0.340991  0.562505  -0.003847
    H   H2   0.875025  0.443493  0.651009  -0.014923
    C   C6   0.049497  0.424250  0.584089  -0.028060
    H   H3   0.085585  0.449013  0.656706  -0.017218
    H   H4   0.064569  0.341042  0.573383  -0.016745
    H   H5   0.870824  0.396550  0.384182  -0.010627
    H   H6   0.075969  0.387460  0.393755  0.009426
    C   C7   0.926727  0.476991  0.402663  -0.014867
    C   C8   0.959327  0.618471  0.523180  0.016118
    C   C9   0.884083  0.506818  0.500848  0.201187
    H   H7   0.941845  0.680687  0.467081  -0.011308
    H   H8   0.931708  0.640226  0.596042  0.013067
    C   C10  0.119186  0.503767  0.505333  0.342980
    C   C11  0.066059  0.471657  0.406420  -0.048762
    C   C12  0.099589  0.617445  0.523071  -0.254895
    H   H9   0.138937  0.642955  0.594672  0.055211
    H   H10  0.146800  0.676172  0.464405  0.048734
    H   H11  0.912439  0.539212  0.345490  -0.006945
    H   H12  0.118766  0.527930  0.348283  -0.017732
    C   C13  0.450972  0.706869  0.084843  -0.249233
    H   H13  0.465923  0.742834  0.233337  0.089781
    H   H14  0.393870  0.731143  0.903321  0.182715
    H   H15  0.426909  0.784186  0.063369  0.098003
    C   C14  0.497794  0.583201  0.210224  -0.150342
    C   C15  0.531314  0.326546  0.821272  -0.002547
    C   C16  0.549493  0.295831  0.916497  -0.164936
    C   C17  0.537375  0.363188  0.989327  -0.158115
    C   C18  0.501517  0.462428  0.968632  0.040633
    C   C19  0.478798  0.492027  0.871398  0.235766
    C   C20  0.488791  0.533192  0.042340  0.005082
    C   C21  0.456661  0.632119  0.016398  0.258006
    C   C22  0.425902  0.656570  0.922108  -0.305199
    C   C23  0.432678  0.586095  0.851064  -0.234039
    C   C24  0.506076  0.508638  0.141470  -0.125002
    C   C25  0.473647  0.683562  0.181072  -0.033521
    C   C26  0.498899  0.425313  0.796770  -0.268528
    H   H16  0.525403  0.432067  0.168797  0.096569
    H   H17  0.547665  0.273260  0.765891  0.074125
    H   H18  0.557765  0.333798  0.061258  0.129512
    H   H19  0.577216  0.219125  0.934209  0.111787
    H   H20  0.398262  0.607013  0.780536  0.175996
    C   C27  0.320272  0.085305  0.369696  -0.256123
    H   H21  0.298405  0.249597  0.355247  0.123519
    H   H22  0.283173  0.880531  0.337627  0.149146
    H   H23  0.248781  0.058924  0.316074  0.141012
    N   N1   0.436589  0.225982  0.458036  -0.068618
    C   C28  0.656027  0.811431  0.614242  0.028497
    C   C29  0.690582  0.917031  0.641373  0.016736
    C   C30  0.632222  0.995710  0.598888  -0.119806
    C   C31  0.538727  0.968671  0.529444  -0.018017
    C   C32  0.507405  0.860440  0.504415  0.258380
    C   C33  0.475659  0.046082  0.484078  0.037050
    C   C34  0.383899  0.012467  0.415472  0.233267
    C   C35  0.354645  0.906115  0.391467  -0.208149
    C   C36  0.415680  0.831227  0.435288  -0.211238
    C   C37  0.500149  0.156253  0.504334  -0.126461
    C   C38  0.347877  0.192311  0.391707  0.032469
    N   N2   0.566058  0.783993  0.547068  -0.206770
    H   H24  0.569453  0.190000  0.556381  0.183896
    H   H25  0.699333  0.748920  0.648744  0.119111
    H   H26  0.664686  0.077410  0.620226  0.128101
    H   H27  0.389531  0.749575  0.413485  0.223267
    C   C39  0.788813  0.945373  0.715311  0.067142
    C   C40  0.897250  0.902226  0.714489  -0.081911
    C   C41  0.989150  0.928558  0.783976  0.075701
    Cl  Cl1  0.126451  0.874254  0.781738  -0.111524
    C   C42  0.973362  0.997780  0.854936  -0.089499
    C   C43  0.865575  0.040813  0.856389  -0.109017
    C   C44  0.773617  0.014889  0.786881  -0.158416
    H   H28  0.912506  0.849285  0.658448  0.088371
    H   H29  0.045404  0.018239  0.909435  0.104508
    H   H30  0.852807  0.094694  0.912365  0.124118
    H   H31  0.688641  0.047843  0.790484  0.120306
