# Generated by REPEAT Assigner based on pymatgen
data_DB0-m3_o90_o22_f0_fsc.sym.3
_audit_creation_date              2022-05-24
_audit_creation_method            REPEAT_Assigner
_cell_length_a                    6.632512
_cell_length_b                    9.017956
_cell_length_c                    15.894508
_cell_angle_alpha                 96.190008
_cell_angle_beta                  81.397654
_cell_angle_gamma                 89.930177
_cell_volume                      934.356831
_symmetry_space_group_name_H-M    P1
_symmetry_Int_Tables_number       1
loop_
    _symmetry_equiv_pos_site_id
    _symmetry_equiv_pos_as_xyz
    1  x,y,z
loop_
    _atom_site_type_symbol
    _atom_site_label
    _atom_site_fract_x
    _atom_site_fract_y
    _atom_site_fract_z
    _atom_type_partial_charge
    C   C1   0.325974  0.020340  0.697986  -0.116316
    C   C2   0.196237  0.010673  0.773449  0.197926
    H   H1   0.036784  0.990771  0.771788  -0.011453
    C   C3   0.267962  0.024905  0.850696  -0.488564
    C   C4   0.471415  0.050813  0.852935  0.140610
    H   H2   0.528787  0.063576  0.913439  -0.002846
    C   C5   0.602918  0.056022  0.777522  -0.162533
    H   H3   0.762901  0.073009  0.779379  0.125627
    C   C6   0.532689  0.036899  0.699619  -0.031825
    N   N1   0.197240  0.025281  0.005229  -0.250677
    N   N2   0.070119  0.012690  0.076466  -0.289536
    C   C7   0.871576  0.986642  0.073259  0.765156
    N   N3   0.802276  0.973633  0.997543  -0.243749
    N   N4   0.929392  0.986225  0.926309  -0.299766
    C   C8   0.127932  0.012273  0.929512  0.766420
    C   C9   0.528052  0.948103  0.149730  0.129602
    H   H4   0.470844  0.935313  0.089191  0.000535
    C   C10  0.396370  0.942931  0.225094  -0.169780
    H   H5   0.236414  0.925945  0.223163  0.135843
    C   C11  0.466397  0.962139  0.303034  -0.032932
    C   C12  0.673065  0.978607  0.304765  -0.077178
    C   C13  0.802998  0.988283  0.229351  0.186492
    H   H6   0.962419  0.008197  0.231090  -0.025629
    C   C14  0.731468  0.974023  0.152057  -0.487836
    O   O1   0.759926  0.889152  0.593048  -0.662533
    O   O2   0.759010  0.144971  0.593260  -0.665820
    C   C15  0.683203  0.022638  0.621845  0.784888
    O   O3   0.177911  0.139186  0.594676  -0.555010
    O   O4   0.179846  0.882026  0.587947  -0.570917
    C   C16  0.235589  0.013243  0.619462  0.590271
    O   O5   0.240167  0.110082  0.410000  -0.623794
    O   O6   0.239755  0.853842  0.409170  -0.687491
    C   C17  0.315777  0.976338  0.380761  0.752040
    O   O7   0.820648  0.860316  0.408359  -0.626676
    O   O8   0.820710  0.116572  0.414328  -0.544829
    C   C18  0.763105  0.985852  0.383377  0.648350
    Zn  Zn1  0.003475  0.165333  0.503566  0.887191
    Zn  Zn2  0.995784  0.833700  0.499138  0.923684
    C   C19  0.130781  0.434246  0.564026  0.606289
    H   H7   0.285473  0.382293  0.552346  -0.095085
    C   C20  0.146820  0.598595  0.550430  -0.360239
    H   H8   0.119586  0.667388  0.613361  0.098086
    H   H9   0.302059  0.619938  0.517683  0.032216
    H   H10  0.261473  0.375261  0.410795  0.050643
    H   H11  0.203620  0.606246  0.383363  -0.048013
    C   C21  0.094523  0.396667  0.419855  -0.338940
    C   C22  0.799933  0.420139  0.528271  0.465533
    N   N5   0.007804  0.360235  0.504412  -0.017963
    H   H12  0.735301  0.385287  0.591379  -0.035480
    N   N6   0.997499  0.638762  0.497844  0.398374
    C   C23  0.058118  0.560062  0.412651  0.434926
    C   C24  0.801045  0.588656  0.536413  -0.348847
    H   H13  0.776192  0.631232  0.605307  0.072830
    H   H14  0.676020  0.633807  0.507141  0.070141
    H   H15  0.031638  0.325167  0.369263  0.128993
    C   C25  0.661034  0.361296  0.465010  -0.317472
    H   H16  0.528253  0.438669  0.471218  0.082962
    H   H17  0.739840  0.352041  0.398284  0.055106
    H   H18  0.603344  0.250961  0.481059  0.063866
    C   C26  0.901120  0.576515  0.353668  -0.462648
    H   H19  0.919861  0.684814  0.326902  0.110433
    H   H20  0.928952  0.486985  0.299481  0.072673
    H   H21  0.743741  0.566948  0.386788  0.101759
    C   C27  0.034469  0.419037  0.655305  -0.612247
    H   H22  0.144765  0.454606  0.699204  0.119519
    H   H23  0.895753  0.490939  0.672767  0.102497
    H   H24  0.994086  0.301098  0.661720  0.163141
