# generated using pymatgen
data_Fe2H20C49N4O17
_symmetry_space_group_name_H-M   'P 1'
_cell_length_a   14.11292600
_cell_length_b   13.98832600
_cell_length_c   13.26590200
_cell_angle_alpha   93.43477700
_cell_angle_beta   92.23325500
_cell_angle_gamma   99.68296600
_symmetry_Int_Tables_number   1
_chemical_formula_structural   Fe2H20C49N4O17
_chemical_formula_sum   'Fe2 H20 C49 N4 O17'
_cell_volume   2573.75345549
_cell_formula_units_Z   1
loop_
 _symmetry_equiv_pos_site_id
 _symmetry_equiv_pos_as_xyz
  1  'x, y, z'
loop_
 _atom_site_type_symbol
 _atom_site_label
 _atom_site_symmetry_multiplicity
 _atom_site_fract_x
 _atom_site_fract_y
 _atom_site_fract_z
 _atom_site_occupancy
  Fe  Fe1  1  0.51731400  0.02073800  0.26584300  1
  Fe  Fe2  1  0.47366800  0.00039800  0.72222100  1
  H  H1  1  0.89638000  0.14837200  0.31374900  1
  H  H2  1  0.73869400  0.81117500  0.73116300  1
  H  H3  1  0.09451400  0.87536900  0.67323500  1
  H  H4  1  0.30964200  0.98142500  0.98622800  1
  H  H5  1  0.25039200  0.20851000  0.25776200  1
  H  H6  1  0.07415400  0.22183300  0.26113100  1
  H  H7  1  0.68117000  0.03903200  0.00146600  1
  H  H8  1  0.03489600  0.91540400  0.98249100  1
  H  H9  1  0.95612200  0.10467600  0.00513400  1
  H  H10  1  0.44736100  0.31307400  0.77090300  1
  H  H11  1  0.53256200  0.30757500  0.34473400  1
  H  H12  1  0.53143100  0.41483700  0.24948700  1
  H  H13  1  0.55296800  0.54892700  0.15005300  1
  H  H14  1  0.46959000  0.60846300  0.73967700  1
  H  H15  1  0.45676000  0.71268300  0.64261500  1
  H  H16  1  0.54859800  0.70950300  0.21825600  1
  H  H17  1  0.44709600  0.47435700  0.83963100  1
  H  H18  1  0.85959500  0.63715900  0.70604700  1
  H  H19  1  0.91204900  0.69201200  0.82637900  1
  H  H20  1  0.98908000  0.67136100  0.72409700  1
  C  C1  1  0.71524700  0.91848400  0.85077600  1
  C  C2  1  0.76586100  0.85904900  0.79669400  1
  C  C3  1  0.85938500  0.88061000  0.83590200  1
  C  C4  1  0.77910400  0.97115900  0.92337700  1
  C  C5  1  0.93228100  0.84559000  0.79464000  1
  C  C6  1  0.03350800  0.88601300  0.82257900  1
  C  C7  1  0.10418100  0.89494900  0.75350700  1
  C  C8  1  0.18877500  0.93532800  0.80612800  1
  C  C9  1  0.16659300  0.94889500  0.90635400  1
  C  C10  1  0.23530200  0.99064700  0.99022300  1
  C  C11  1  0.21193000  0.04980100  0.06411700  1
  C  C12  1  0.27542500  0.10200100  0.13740600  1
  C  C13  1  0.22445000  0.16106300  0.19156800  1
  C  C14  1  0.13138900  0.13990500  0.15151000  1
  C  C15  1  0.05849800  0.17425100  0.19285600  1
  C  C16  1  0.95706800  0.13617500  0.16466300  1
  C  C17  1  0.88638500  0.12837200  0.23357600  1
  C  C18  1  0.80181700  0.08755400  0.18111300  1
  C  C19  1  0.82413400  0.07284000  0.08104000  1
  C  C20  1  0.75563000  0.03029900  0.99731200  1
  C  C21  1  0.71055800  0.06273300  0.23048500  1
  C  C22  1  0.54406300  0.84810200  0.35113300  1
  C  C23  1  0.37469100  0.09345200  0.16516100  1
  C  C24  1  0.49021000  0.14959200  0.42716300  1
  C  C25  1  0.49166300  0.24595300  0.47751600  1
  C  C26  1  0.46717700  0.25899000  0.57634700  1
  C  C27  1  0.46675300  0.35331500  0.61676900  1
  C  C28  1  0.45421100  0.36984400  0.71894400  1
  C  C29  1  0.45483000  0.46198700  0.75938400  1
  C  C30  1  0.51215600  0.32434000  0.41963600  1
  C  C31  1  0.50328100  0.41776900  0.45513200  1
  C  C32  1  0.48236400  0.43231600  0.55568700  1
  C  C33  1  0.47873800  0.52573300  0.59599900  1
  C  C34  1  0.53146900  0.48370700  0.28960600  1
  C  C35  1  0.51662400  0.49634200  0.39268600  1
  C  C36  1  0.51214300  0.58963900  0.43290900  1
  C  C37  1  0.54327700  0.56090200  0.22997000  1
  C  C38  1  0.54166800  0.65267200  0.27014200  1
  C  C39  1  0.46657700  0.53902400  0.69953300  1
  C  C40  1  0.49061600  0.60398300  0.53326300  1
  C  C41  1  0.47949900  0.69684300  0.56837400  1
  C  C42  1  0.52760400  0.66877800  0.37201600  1
  C  C43  1  0.52577100  0.76284500  0.41236000  1
  C  C44  1  0.49989400  0.77544000  0.51076000  1
  C  C45  1  0.61595000  0.92720200  0.82320700  1
  C  C46  1  0.50065000  0.87168600  0.56108400  1
  C  C47  1  0.28023900  0.95995500  0.75705800  1
  C  C48  1  0.44853600  0.17385800  0.63773200  1
  C  C49  1  0.91887600  0.69139700  0.74335000  1
  N  N1  1  0.86765200  0.94819200  0.91403300  1
  N  N2  1  0.07144400  0.91833100  0.91568100  1
  N  N3  1  0.12345500  0.07293100  0.07293700  1
  N  N4  1  0.91930600  0.10297400  0.07175900  1
  O  O1  1  0.62863900  0.03201500  0.17840500  1
  O  O2  1  0.62271500  0.86496900  0.30088500  1
  O  O3  1  0.71197100  0.07160100  0.32949300  1
  O  O4  1  0.48278400  0.90932900  0.35045000  1
  O  O5  1  0.39850200  0.00729000  0.17434300  1
  O  O6  1  0.43195300  0.17079200  0.20568000  1
  O  O7  1  0.55477700  0.13974600  0.36040900  1
  O  O8  1  0.41413900  0.08170400  0.43078300  1
  O  O9  1  0.59232500  0.01346000  0.81402900  1
  O  O10  1  0.55854000  0.84996000  0.78267500  1
  O  O11  1  0.43594800  0.88125800  0.62775600  1
  O  O12  1  0.57655300  0.93981900  0.55773300  1
  O  O13  1  0.37046900  0.15812200  0.68905200  1
  O  O14  1  0.36214900  0.98953900  0.80949300  1
  O  O15  1  0.50880500  0.11160000  0.63748200  1
  O  O16  1  0.27915500  0.95156400  0.65804300  1
  O  O17  1  0.91296400  0.78308900  0.70995900  1
