# generated using pymatgen
data_CuH20C35(N2O5)2
_symmetry_space_group_name_H-M   'P 1'
_cell_length_a   15.62567900
_cell_length_b   17.02102000
_cell_length_c   27.51531800
_cell_angle_alpha   89.99401500
_cell_angle_beta   92.78362500
_cell_angle_gamma   96.38356800
_symmetry_Int_Tables_number   1
_chemical_formula_structural   CuH20C35(N2O5)2
_chemical_formula_sum   'Cu2 H40 C70 N8 O20'
_cell_volume   7264.05322842
_cell_formula_units_Z   2
loop_
 _symmetry_equiv_pos_site_id
 _symmetry_equiv_pos_as_xyz
  1  'x, y, z'
loop_
 _atom_site_type_symbol
 _atom_site_label
 _atom_site_symmetry_multiplicity
 _atom_site_fract_x
 _atom_site_fract_y
 _atom_site_fract_z
 _atom_site_occupancy
  Cu  Cu1  1  0.41480800  0.50044800  0.49798100  1
  Cu  Cu2  1  0.58644500  0.50410300  0.50277000  1
  H  H1  1  0.63200400  0.47699900  0.35087200  1
  H  H2  1  0.63869800  0.52555000  0.65714400  1
  H  H3  1  0.63102700  0.47657900  0.26222000  1
  H  H4  1  0.63811900  0.52594700  0.74578000  1
  H  H5  1  0.50974300  0.30769800  0.12108000  1
  H  H6  1  0.53890000  0.69833500  0.88084400  1
  H  H7  1  0.36318300  0.48065400  0.64976700  1
  H  H8  1  0.36862500  0.52577900  0.34364000  1
  H  H9  1  0.36425300  0.48007100  0.73846200  1
  H  H10  1  0.36940400  0.52605000  0.25507300  1
  H  H11  1  0.46415300  0.30658700  0.87823100  1
  H  H12  1  0.49064000  0.69545500  0.12097600  1
  H  H13  1  0.46461700  0.30376100  0.96361400  1
  H  H14  1  0.49235600  0.69840100  0.03565400  1
  H  H15  1  0.50889900  0.30539900  0.03568800  1
  H  H16  1  0.53749400  0.70055500  0.96618900  1
  H  H17  1  0.38698800  0.74409600  0.51036800  1
  H  H18  1  0.61412400  0.26031300  0.49061100  1
  H  H19  1  0.39182100  0.88464100  0.51031300  1
  H  H20  1  0.60958000  0.11981800  0.49238500  1
  H  H21  1  0.33841800  0.09859300  0.51136800  1
  H  H22  1  0.66143800  0.90650200  0.48750900  1
  H  H23  1  0.28728900  0.57666300  0.55265900  1
  H  H24  1  0.71399600  0.42897200  0.44751300  1
  H  H25  1  0.88767500  0.60345400  0.56411700  1
  H  H26  1  0.11356800  0.40019400  0.43717500  1
  H  H27  1  0.73021100  0.59272400  0.56210400  1
  H  H28  1  0.27104800  0.41113400  0.43906300  1
  H  H29  1  0.17776800  0.29148800  0.50726500  1
  H  H30  1  0.16981100  0.28765900  0.57268100  1
  H  H31  1  0.13091800  0.20203100  0.53552100  1
  H  H32  1  0.80683200  0.70586700  0.45578700  1
  H  H33  1  0.86949700  0.72988200  0.51203100  1
  H  H34  1  0.86736800  0.80244600  0.46417000  1
  H  H35  1  0.06764400  0.64381800  0.63254000  1
  H  H36  1  0.08306200  0.74073700  0.60506200  1
  H  H37  1  0.16826800  0.70638300  0.64373700  1
  H  H38  1  0.93351700  0.36675000  0.36569400  1
  H  H39  1  0.83307800  0.30423000  0.35378300  1
  H  H40  1  0.91865200  0.26862300  0.39157100  1
  C  C1  1  0.48621600  0.35008300  0.50059300  1
  C  C2  1  0.51506200  0.65451200  0.50028700  1
  C  C3  1  0.50037500  0.50170100  0.40693300  1
  C  C4  1  0.50087400  0.50287600  0.59381600  1
  C  C5  1  0.50361900  0.43317500  0.17709000  1
  C  C6  1  0.51461400  0.57163900  0.82398000  1
  C  C7  1  0.49682100  0.56966100  0.17704000  1
  C  C8  1  0.48812600  0.43376100  0.82305500  1
  C  C9  1  0.42702900  0.51529800  0.27621500  1
  C  C10  1  0.42442400  0.49014900  0.72045000  1
  C  C11  1  0.42676600  0.51480100  0.32630900  1
  C  C12  1  0.42411100  0.49078200  0.67034100  1
  C  C13  1  0.57380900  0.48790100  0.33034900  1
  C  C14  1  0.57786800  0.51543300  0.67446300  1
  C  C15  1  0.57343000  0.48728200  0.28022800  1
  C  C16  1  0.57782700  0.51599000  0.72455800  1
  C  C17  1  0.50020000  0.50126100  0.25307100  1
  C  C18  1  0.50119900  0.50301200  0.74760500  1
  C  C19  1  0.50038600  0.50166400  0.10123600  1
  C  C20  1  0.50120300  0.50240800  0.89933600  1
  C  C21  1  0.50299700  0.43240000  0.12679300  1
  C  C22  1  0.51392800  0.57234900  0.87423100  1
  C  C23  1  0.50581000  0.36275200  0.10201100  1
  C  C24  1  0.52675800  0.64262400  0.89946100  1
  C  C25  1  0.49760500  0.57075000  0.12679100  1
  C  C26  1  0.48869000  0.43265700  0.87333900  1
  C  C27  1  0.50033000  0.50144400  0.35366200  1
  C  C28  1  0.50092600  0.50309300  0.64707500  1
  C  C29  1  0.49279600  0.43092700  0.97460100  1
  C  C30  1  0.50268800  0.57287300  0.02579400  1
  C  C31  1  0.50904300  0.57332300  0.97523600  1
  C  C32  1  0.49864900  0.43099900  0.02551400  1
  C  C33  1  0.50101900  0.50221900  0.94986700  1
  C  C34  1  0.50055700  0.50184400  0.05070500  1
  C  C35  1  0.47804200  0.36111100  0.94757900  1
  C  C36  1  0.49753500  0.64183900  0.05223200  1
  C  C37  1  0.47591000  0.36218100  0.89766200  1
  C  C38  1  0.49483600  0.64055600  0.10201000  1
  C  C39  1  0.50353600  0.36183600  0.05208700  1
  C  C40  1  0.52416500  0.64333100  0.94924400  1
  C  C41  1  0.47916900  0.26303700  0.50110100  1
  C  C42  1  0.52216900  0.74160200  0.50035700  1
  C  C43  1  0.55280600  0.22614200  0.49587100  1
  C  C44  1  0.44846600  0.77838800  0.50570100  1
  C  C45  1  0.54985900  0.14497300  0.49677600  1
  C  C46  1  0.45155700  0.85958800  0.50578200  1
  C  C47  1  0.47216200  0.09909400  0.50268500  1
  C  C48  1  0.52911200  0.90556400  0.49969500  1
  C  C49  1  0.39872300  0.13551300  0.50807300  1
  C  C50  1  0.60260000  0.86930400  0.49417800  1
  C  C51  1  0.40154200  0.21719100  0.50825300  1
  C  C52  1  0.60048300  0.78762700  0.49527600  1
  C  C53  1  0.75364200  0.46457300  0.47429000  1
  C  C54  1  0.24763200  0.54058300  0.52611200  1
  C  C55  1  0.84290600  0.46834500  0.47441400  1
  C  C56  1  0.15839000  0.53708400  0.52586300  1
  C  C57  1  0.89230500  0.51911000  0.50740500  1
  C  C58  1  0.10892500  0.48556800  0.49331100  1
  C  C59  1  0.85046000  0.56333100  0.53861200  1
  C  C60  1  0.15076400  0.44079300  0.46240800  1
  C  C61  1  0.76187000  0.55705000  0.53758900  1
  C  C62  1  0.23936400  0.44715800  0.46336500  1
  C  C63  1  0.26766700  0.22490600  0.54472100  1
  C  C64  1  0.18102100  0.25338200  0.53976700  1
  C  C65  1  0.75287000  0.78357100  0.50362100  1
  C  C66  1  0.82894200  0.75344100  0.48253500  1
  C  C67  1  0.15095200  0.65338300  0.57325700  1
  C  C68  1  0.11520200  0.68832300  0.61642000  1
  C  C69  1  0.85049300  0.35407000  0.42511200  1
  C  C70  1  0.88621300  0.32132900  0.38122700  1
  N  N1  1  0.50019200  0.50135000  0.20130500  1
  N  N2  1  0.50134400  0.50279900  0.79933000  1
  N  N3  1  0.46543600  0.01548500  0.50349800  1
  N  N4  1  0.53564500  0.98915000  0.49857300  1
  N  N5  1  0.71486800  0.50687800  0.50635200  1
  N  N6  1  0.28638400  0.49768400  0.49437000  1
  N  N7  1  0.98381900  0.52910500  0.51039800  1
  N  N8  1  0.01738900  0.47556500  0.49033700  1
  O  O1  1  0.41613800  0.38586000  0.49640900  1
  O  O2  1  0.58513600  0.61870200  0.50396700  1
  O  O3  1  0.56347700  0.38901700  0.50434400  1
  O  O4  1  0.43778400  0.61556100  0.49681900  1
  O  O5  1  0.42697700  0.50344200  0.42768200  1
  O  O6  1  0.57437700  0.50183700  0.57307600  1
  O  O7  1  0.57379300  0.50029300  0.43181500  1
  O  O8  1  0.42734500  0.50354700  0.56894000  1
  O  O9  1  0.50598600  0.36555000  0.20207300  1
  O  O10  1  0.52717000  0.63977600  0.79934100  1
  O  O11  1  0.47562800  0.36581900  0.79753300  1
  O  O12  1  0.49446300  0.63714200  0.20203300  1
  O  O13  1  0.32907000  0.25186200  0.51400600  1
  O  O14  1  0.28418700  0.18168500  0.57844700  1
  O  O15  1  0.67256700  0.75281300  0.48836300  1
  O  O16  1  0.76385600  0.83198000  0.53664500  1
  O  O17  1  0.12110000  0.57895200  0.55905900  1
  O  O18  1  0.20186500  0.69425000  0.54907500  1
  O  O19  1  0.88033600  0.42782700  0.44060400  1
  O  O20  1  0.79965200  0.31194900  0.44864900  1
