# generated using pymatgen
data_Zn6H52C126O37
_symmetry_space_group_name_H-M   'P 1'
_cell_length_a   27.83283200
_cell_length_b   27.85357500
_cell_length_c   27.94338500
_cell_angle_alpha   109.32636200
_cell_angle_beta   109.71093600
_cell_angle_gamma   109.19883900
_symmetry_Int_Tables_number   1
_chemical_formula_structural   Zn6H52C126O37
_chemical_formula_sum   'Zn6 H52 C126 O37'
_cell_volume   16712.30149431
_cell_formula_units_Z   1
loop_
 _symmetry_equiv_pos_site_id
 _symmetry_equiv_pos_as_xyz
  1  'x, y, z'
loop_
 _atom_site_type_symbol
 _atom_site_label
 _atom_site_symmetry_multiplicity
 _atom_site_fract_x
 _atom_site_fract_y
 _atom_site_fract_z
 _atom_site_occupancy
  Zn  Zn1  1  0.00614500  0.04981400  0.55118900  1
  Zn  Zn2  1  0.00412500  0.95562500  0.45545000  1
  Zn  Zn3  1  0.45647900  0.95214400  0.00394100  1
  Zn  Zn4  1  0.55116500  0.04847800  0.00702700  1
  Zn  Zn5  1  0.45578500  0.50408100  0.45662900  1
  Zn  Zn6  1  0.55177000  0.50243000  0.54779300  1
  H  H1  1  0.66949000  0.98402000  0.27189200  1
  H  H2  1  0.72341800  0.92702300  0.16154300  1
  H  H3  1  0.78501300  0.08146200  0.35335300  1
  H  H4  1  0.76050300  0.66810600  0.50411100  1
  H  H5  1  0.24826600  0.00354500  0.83753200  1
  H  H6  1  0.17092700  0.00102500  0.75953200  1
  H  H7  1  0.17752300  0.16267800  0.41233900  1
  H  H8  1  0.25880600  0.26517500  0.59687500  1
  H  H9  1  0.50428200  0.33726300  0.24593700  1
  H  H10  1  0.47463100  0.15362200  0.24593300  1
  H  H11  1  0.60356400  0.84815400  0.83604900  1
  H  H12  1  0.42053800  0.66540500  0.68034800  1
  H  H13  1  0.41959000  0.74008900  0.75682200  1
  H  H14  1  0.62096900  0.84959800  0.17832300  1
  H  H15  1  0.61359400  0.76384400  0.20334200  1
  H  H16  1  0.71704300  0.80545300  0.29359000  1
  H  H17  1  0.65889500  0.80283400  0.41150400  1
  H  H18  1  0.68467700  0.91171000  0.43479300  1
  H  H19  1  0.78635600  0.98158300  0.53343800  1
  H  H20  1  0.35220000  0.07014600  0.69345000  1
  H  H21  1  0.32339500  0.04276800  0.58328800  1
  H  H22  1  0.21525600  0.95315000  0.51696300  1
  H  H23  1  0.30352100  0.91166500  0.65255300  1
  H  H24  1  0.41182200  0.93166800  0.67834900  1
  H  H25  1  0.48308800  0.02497600  0.78365900  1
  H  H26  1  0.34498500  0.26024300  0.41769100  1
  H  H27  1  0.29905000  0.22140600  0.30361000  1
  H  H28  1  0.18507300  0.18058400  0.26019200  1
  H  H29  1  0.34899100  0.42803400  0.59362800  1
  H  H30  1  0.42595600  0.49512600  0.70737100  1
  H  H31  1  0.43122300  0.42358100  0.74897000  1
  H  H32  1  0.43946400  0.17948600  0.07477200  1
  H  H33  1  0.47771800  0.23842100  0.02583800  1
  H  H34  1  0.55521500  0.34697000  0.11128400  1
  H  H35  1  0.41004100  0.25858000  0.34280100  1
  H  H36  1  0.41191800  0.21560100  0.41457000  1
  H  H37  1  0.47680000  0.16515000  0.41094800  1
  H  H38  1  0.68568300  0.83611400  0.85478600  1
  H  H39  1  0.76215500  0.83371400  0.81907100  1
  H  H40  1  0.70028400  0.76455800  0.70439400  1
  H  H41  1  0.81565200  0.03364100  0.15959500  1
  H  H42  1  0.92201000  0.05641700  0.17412600  1
  H  H43  1  0.97763600  0.05284400  0.26918600  1
  H  H44  1  0.88722700  0.15851700  0.33727900  1
  H  H45  1  0.89545500  0.24475200  0.31288900  1
  H  H46  1  0.79240000  0.20379100  0.22245500  1
  H  H47  1  0.81827000  0.64758600  0.46460400  1
  H  H48  1  0.92904000  0.67732800  0.49422500  1
  H  H49  1  0.98920100  0.79281700  0.55140900  1
  H  H50  1  0.57761700  0.67653700  0.41827800  1
  H  H51  1  0.51475900  0.72273100  0.44642000  1
  H  H52  1  0.59100600  0.82841600  0.53796300  1
  C  C1  1  0.92365800  0.92120700  0.50231900  1
  C  C2  1  0.92424400  0.00442700  0.42323200  1
  C  C3  1  0.08664000  0.08424000  0.50431300  1
  C  C4  1  0.08592500  0.00091900  0.58341700  1
  C  C5  1  0.70838000  0.99380900  0.26599200  1
  C  C6  1  0.73422800  0.95387400  0.25515400  1
  C  C7  1  0.87936000  0.00536400  0.37992300  1
  C  C8  1  0.62944300  0.00206200  0.13347300  1
  C  C9  1  0.77043900  0.04611100  0.30973600  1
  C  C10  1  0.79521500  0.00527000  0.29815400  1
  C  C11  1  0.77374800  0.05456600  0.25979900  1
  C  C12  1  0.71288200  0.00308000  0.21690200  1
  C  C13  1  0.79876400  0.01432300  0.24903000  1
  C  C14  1  0.73747800  0.96211500  0.20509100  1
  C  C15  1  0.84141800  0.00563900  0.34323300  1
  C  C16  1  0.66690600  0.00236700  0.17124900  1
  C  C17  1  0.75722100  0.70477900  0.50139100  1
  C  C18  1  0.70791900  0.70837100  0.49698800  1
  C  C19  1  0.70278100  0.75565400  0.49542700  1
  C  C20  1  0.74800500  0.79959600  0.49875800  1
  C  C21  1  0.79779900  0.79609900  0.50385800  1
  C  C22  1  0.80260600  0.74845400  0.50505300  1
  C  C23  1  0.66422000  0.66422600  0.49810000  1
  C  C24  1  0.84208700  0.84009200  0.50312700  1
  C  C25  1  0.87924900  0.87711300  0.50263500  1
  C  C26  1  0.62767400  0.62716100  0.49914700  1
  C  C27  1  0.30214500  0.99593000  0.74533000  1
  C  C28  1  0.29821700  0.99953900  0.79434600  1
  C  C29  1  0.25119300  0.00122400  0.79930700  1
  C  C30  1  0.20768900  0.99937600  0.75545400  1
  C  C31  1  0.21131400  0.99630600  0.70672200  1
  C  C32  1  0.25854500  0.99493900  0.70133700  1
  C  C33  1  0.34167500  0.99896900  0.83952400  1
  C  C34  1  0.16706600  0.99778600  0.66322000  1
  C  C35  1  0.12998400  0.99918600  0.62676900  1
  C  C36  1  0.37835000  0.99867600  0.87748000  1
  C  C37  1  0.25561400  0.24433400  0.45263300  1
  C  C38  1  0.29935200  0.29580600  0.50480200  1
  C  C39  1  0.30015900  0.30355400  0.55689900  1
  C  C40  1  0.25817700  0.25967900  0.55648600  1
  C  C41  1  0.21381600  0.20977700  0.50456100  1
  C  C42  1  0.21220400  0.20241800  0.45280100  1
  C  C43  1  0.34327500  0.34091800  0.50480800  1
  C  C44  1  0.16907200  0.16545800  0.50439300  1
  C  C45  1  0.13144000  0.12834500  0.50431800  1
  C  C46  1  0.37994800  0.37868400  0.50457500  1
  C  C47  1  0.49888000  0.07832300  0.08445800  1
  C  C48  1  0.58529900  0.00197300  0.08834500  1
  C  C49  1  0.50866500  0.92227400  0.92641700  1
  C  C50  1  0.42233400  0.99867600  0.92264500  1
  C  C51  1  0.49952500  0.42120000  0.41814900  1
  C  C52  1  0.58415300  0.58315000  0.50046900  1
  C  C53  1  0.50789600  0.58521200  0.58625700  1
  C  C54  1  0.42342100  0.42330600  0.50388000  1
  C  C55  1  0.49706600  0.29645100  0.24533700  1
  C  C56  1  0.48849300  0.28790000  0.28829700  1
  C  C57  1  0.47870400  0.23555100  0.28786300  1
  C  C58  1  0.48042200  0.19385800  0.24573700  1
  C  C59  1  0.48853400  0.20223500  0.20250700  1
  C  C60  1  0.49559400  0.25344900  0.20139100  1
  C  C61  1  0.49304000  0.33528000  0.33424500  1
  C  C62  1  0.49256500  0.15849100  0.16142000  1
  C  C63  1  0.49571600  0.12182600  0.12665300  1
  C  C64  1  0.49646300  0.37485100  0.37262400  1
  C  C65  1  0.56511800  0.76565600  0.75877500  1
  C  C66  1  0.51287200  0.71435900  0.71472800  1
  C  C67  1  0.46100400  0.70549300  0.71446700  1
  C  C68  1  0.46043700  0.74725100  0.75742800  1
  C  C69  1  0.51193400  0.79815900  0.80110800  1
  C  C70  1  0.56403900  0.80729500  0.80191800  1
  C  C71  1  0.51128100  0.66873700  0.66971600  1
  C  C72  1  0.51119600  0.84202700  0.84549700  1
  C  C73  1  0.51022900  0.87872700  0.88254400  1
  C  C74  1  0.50970500  0.63047700  0.63171500  1
  C  C75  1  0.71100600  0.89629700  0.25268000  1
  C  C76  1  0.65495000  0.85058300  0.21264000  1
  C  C77  1  0.65124600  0.80700600  0.22543100  1
  C  C78  1  0.70533900  0.82927600  0.27241700  1
  C  C79  1  0.74283300  0.84882700  0.49418400  1
  C  C80  1  0.69701800  0.84300100  0.44897500  1
  C  C81  1  0.71025300  0.89847700  0.46070000  1
  C  C82  1  0.76324200  0.93429300  0.51205800  1
  C  C83  1  0.26293400  0.99566600  0.65067800  1
  C  C84  1  0.31129100  0.03508200  0.65428700  1
  C  C85  1  0.29655800  0.02129000  0.59815400  1
  C  C86  1  0.24023000  0.97467200  0.56420200  1
  C  C87  1  0.35082800  0.99024500  0.73973000  1
  C  C88  1  0.34410000  0.94683900  0.69201700  1
  C  C89  1  0.39927900  0.95688300  0.70522600  1
  C  C90  1  0.43582400  0.00547900  0.76009700  1
  C  C91  1  0.25278000  0.23290300  0.39627500  1
  C  C92  1  0.29947400  0.24244400  0.38645100  1
  C  C93  1  0.27604600  0.22198100  0.32798900  1
  C  C94  1  0.21675400  0.20072800  0.30599200  1
  C  C95  1  0.34519700  0.35666400  0.61343700  1
  C  C96  1  0.36361100  0.41334100  0.62416200  1
  C  C97  1  0.40247600  0.44780300  0.68247700  1
  C  C98  1  0.40460300  0.41000400  0.70351200  1
  C  C99  1  0.50365900  0.26481800  0.15619900  1
  C  C100  1  0.47318400  0.22481600  0.09723800  1
  C  C101  1  0.49210900  0.25501500  0.07191800  1
  C  C102  1  0.53220600  0.31138100  0.11683900  1
  C  C103  1  0.46856600  0.22326200  0.33185000  1
  C  C104  1  0.43428000  0.23680000  0.35356900  1
  C  C105  1  0.43451900  0.21424000  0.38980700  1
  C  C106  1  0.46825600  0.18798000  0.38732000  1
  C  C107  1  0.62119000  0.77672700  0.76010000  1
  C  C108  1  0.67553700  0.81247700  0.81010500  1
  C  C109  1  0.71487300  0.81116000  0.79206800  1
  C  C110  1  0.68209100  0.77499500  0.73243200  1
  C  C111  1  0.84986400  0.02742200  0.23942800  1
  C  C112  1  0.85063700  0.03565900  0.19388900  1
  C  C113  1  0.90477900  0.04732700  0.20138100  1
  C  C114  1  0.93318200  0.04534100  0.25097000  1
  C  C115  1  0.79742200  0.11229000  0.26263900  1
  C  C116  1  0.85350000  0.15784300  0.30301100  1
  C  C117  1  0.85764900  0.20164300  0.29051500  1
  C  C118  1  0.80376100  0.17969100  0.24340700  1
  C  C119  1  0.85510800  0.74372400  0.51044300  1
  C  C120  1  0.85516300  0.69158500  0.48904300  1
  C  C121  1  0.91177200  0.70660600  0.50387600  1
  C  C122  1  0.94247500  0.76671500  0.53347000  1
  C  C123  1  0.65191100  0.76125200  0.49450600  1
  C  C124  1  0.59419000  0.71911100  0.45426700  1
  C  C125  1  0.56209400  0.74275500  0.46837600  1
  C  C126  1  0.60232300  0.79770500  0.51597600  1
  O  O1  1  0.94483400  0.97629400  0.53969500  1
  O  O2  1  0.94111200  0.90427600  0.46488400  1
  O  O3  1  0.94531100  0.04065000  0.47858200  1
  O  O4  1  0.94150200  0.96690500  0.40534800  1
  O  O5  1  0.06916900  0.10114600  0.54174800  1
  O  O6  1  0.06543800  0.02914800  0.46695200  1
  O  O7  1  0.06872000  0.03848800  0.60129000  1
  O  O8  1  0.06491900  0.96474500  0.52805700  1
  O  O9  1  0.46271300  0.02294500  0.06363400  1
  O  O10  1  0.53681100  0.09606600  0.06767200  1
  O  O11  1  0.52996300  0.96608400  0.06834100  1
  O  O12  1  0.60249900  0.03756400  0.06905100  1
  O  O13  1  0.47073800  0.90454900  0.94320700  1
  O  O14  1  0.54485400  0.97766000  0.94726500  1
  O  O15  1  0.40511900  0.96307000  0.94193500  1
  O  O16  1  0.47765700  0.03454500  0.94260700  1
  O  O17  1  0.46278700  0.44026300  0.40303300  1
  O  O18  1  0.53779300  0.44116200  0.47273000  1
  O  O19  1  0.52857900  0.56367700  0.46537900  1
  O  O20  1  0.60205900  0.56466100  0.53682500  1
  O  O21  1  0.46968500  0.56526400  0.53168300  1
  O  O22  1  0.54470800  0.56621000  0.60138400  1
  O  O23  1  0.40547800  0.44178900  0.46752100  1
  O  O24  1  0.47898300  0.44280000  0.53901000  1
  O  O25  1  0.74206600  0.88381000  0.28930300  1
  O  O26  1  0.78350400  0.90433200  0.53264500  1
  O  O27  1  0.21934400  0.95891200  0.59592200  1
  O  O28  1  0.40659300  0.02596900  0.78151500  1
  O  O29  1  0.20216100  0.20662800  0.34722000  1
  O  O30  1  0.36933900  0.35441000  0.66182200  1
  O  O31  1  0.53902800  0.31783400  0.16823000  1
  O  O32  1  0.48865300  0.19277000  0.35165400  1
  O  O33  1  0.62503100  0.75394600  0.71262500  1
  O  O34  1  0.89990500  0.03323900  0.27446800  1
  O  O35  1  0.76675100  0.12511500  0.22612800  1
  O  O36  1  0.90831500  0.78964700  0.53778200  1
  O  O37  1  0.65719000  0.80940500  0.53201700  1
