# Generated by REPEAT Assigner based on pymatgen
data_DB0-m9_o22_o24_f0_sra.sym.73
_audit_creation_date              2022-05-24
_audit_creation_method            REPEAT_Assigner
_cell_length_a                    6.706184
_cell_length_b                    13.521284
_cell_length_c                    15.677343
_cell_angle_alpha                 90.107629
_cell_angle_beta                  89.996765
_cell_angle_gamma                 90.003793
_cell_volume                      1421.559691
_symmetry_space_group_name_H-M    P1
_symmetry_Int_Tables_number       1
loop_
    _symmetry_equiv_pos_site_id
    _symmetry_equiv_pos_as_xyz
    1  x,y,z
loop_
    _atom_site_type_symbol
    _atom_site_label
    _atom_site_fract_x
    _atom_site_fract_y
    _atom_site_fract_z
    _atom_type_partial_charge
    O  O1   0.485818  0.419700  0.404559  -0.597112
    O  O2   0.826966  0.398686  0.585128  -0.630157
    O  O3   0.985969  0.583974  0.590142  -0.595738
    C  C1   0.652593  0.382778  0.618320  0.651478
    O  O4   0.826745  0.397863  0.410328  -0.569683
    O  O5   0.985902  0.582932  0.404412  -0.566080
    C  C2   0.652362  0.383303  0.376674  0.501539
    O  O6   0.486015  0.419495  0.590335  -0.585574
    O  O7   0.660532  0.563627  0.497596  -0.568783
    V  V1   0.934430  0.488832  0.497531  1.584024
    O  O8   0.326742  0.604813  0.410393  -0.597140
    C  C3   0.152427  0.619579  0.376540  0.490335
    O  O9   0.327018  0.604775  0.585184  -0.606273
    C  C4   0.152320  0.620698  0.617970  0.574345
    V  V2   0.434436  0.514213  0.497630  1.590451
    O  O10  0.160349  0.439419  0.497592  -0.570336
    C  C5   0.952739  0.723885  0.734702  -0.067245
    C  C6   0.068796  0.717672  0.818180  -0.174371
    H  H1   0.016983  0.683539  0.878507  0.067354
    H  H2   0.802579  0.692507  0.722563  0.035681
    C  C7   0.127807  0.824711  0.807334  0.375828
    C  C8   0.011466  0.832195  0.725301  -0.157420
    C  C9   0.198710  0.802574  0.676532  -0.082115
    C  C10  0.315154  0.796463  0.759742  -0.138049
    C  C11  0.254043  0.689451  0.768923  0.008007
    C  C12  0.139868  0.695513  0.687051  0.200880
    H  H3   0.909715  0.893877  0.708690  0.071743
    H  H4   0.251817  0.836234  0.616212  0.049752
    H  H5   0.465845  0.827104  0.772066  0.058593
    C  C13  0.312278  0.827017  0.229319  0.052196
    H  H6   0.434502  0.821217  0.181919  -0.011242
    C  C14  0.335976  0.745764  0.295101  -0.136036
    H  H7   0.381190  0.778703  0.356984  0.046651
    H  H8   0.451593  0.692694  0.273503  0.044153
    H  H9   0.237111  0.694629  0.110858  0.008812
    H  H10  0.196132  0.577004  0.212576  0.074466
    C  C15  0.101738  0.710392  0.149175  0.019727
    C  C16  0.944360  0.830436  0.246585  -0.165190
    C  C17  0.113902  0.814588  0.184178  0.195972
    H  H11  0.802014  0.809307  0.215498  0.068431
    H  H12  0.937366  0.909302  0.265719  0.159632
    C  C18  0.139266  0.691941  0.305308  0.375997
    C  C19  0.089184  0.638402  0.223011  -0.288480
    C  C20  0.977034  0.766443  0.324472  -0.175703
    H  H13  0.022707  0.812964  0.379393  0.037914
    H  H14  0.836578  0.727254  0.340291  0.031349
    H  H15  0.967361  0.702623  0.108485  0.029159
    H  H16  0.935727  0.608248  0.227310  0.069188
    C  C21  0.502454  0.225202  0.665426  0.134297
    H  H17  0.357415  0.255523  0.643786  -0.017944
    H  H18  0.570117  0.180531  0.613565  -0.004595
    C  C22  0.470042  0.160728  0.743379  -0.301553
    H  H19  0.476146  0.081709  0.724474  0.059602
    H  H20  0.322574  0.177419  0.771998  0.029013
    H  H21  0.408538  0.374780  0.763606  0.087080
    H  H22  0.466369  0.286748  0.885300  0.028199
    C  C23  0.569368  0.357267  0.770106  0.032137
    C  C24  0.848674  0.267026  0.704155  0.145886
    C  C25  0.642507  0.308959  0.688732  -0.141000
    H  H23  0.943776  0.324723  0.733793  -0.003256
    H  H24  0.915603  0.242959  0.642848  0.024158
    C  C26  0.632040  0.182836  0.807975  0.513017
    C  C27  0.599818  0.285915  0.843524  -0.129070
    C  C28  0.832182  0.179264  0.763521  -0.338140
    H  H25  0.843413  0.109682  0.726268  0.052197
    H  H26  0.953950  0.182298  0.811315  0.113043
    H  H27  0.654403  0.426178  0.782415  0.007705
    H  H28  0.732922  0.308262  0.880853  0.021713
    C  C29  0.431988  0.315014  0.266927  0.174978
    H  H29  0.324977  0.280449  0.311821  -0.008204
    H  H30  0.387810  0.392749  0.254728  -0.021873
    C  C30  0.433724  0.258079  0.183748  -0.335680
    H  H31  0.445565  0.310203  0.129451  0.056846
    H  H32  0.294768  0.214099  0.178013  0.089325
    H  H33  0.594321  0.193977  0.396245  -0.015780
    H  H34  0.466563  0.108104  0.282689  -0.078013
    C  C31  0.680750  0.208365  0.337245  -0.106585
    C  C32  0.790263  0.337242  0.236973  -0.136279
    C  C33  0.639235  0.311732  0.305230  0.205585
    H  H35  0.939342  0.348139  0.266122  0.014957
    H  H36  0.743148  0.405922  0.204087  0.022364
    C  C34  0.612976  0.190301  0.183949  0.239192
    C  C35  0.618323  0.136229  0.268541  0.253733
    C  C36  0.799044  0.252682  0.173562  -0.019166
    H  H37  0.805460  0.282943  0.107916  -0.001573
    H  H38  0.933327  0.207121  0.185492  -0.013315
    H  H39  0.842495  0.200439  0.350274  0.057176
    O  O11  0.798690  0.059035  0.889285  -0.576786
    O  O12  0.429874  0.065862  0.110113  -0.690243
    O  O13  0.249494  0.894178  0.059828  -0.470229
    C  C37  0.596064  0.117826  0.113305  0.587682
    O  O14  0.483519  0.118963  0.936222  -0.582809
    O  O15  0.297696  0.945564  0.889247  -0.544538
    C  C38  0.628978  0.108828  0.878366  0.430614
    O  O16  0.748770  0.111276  0.059780  -0.520935
    O  O17  0.615191  0.936554  0.997511  -0.677971
    V  V3   0.340343  0.013590  0.998869  1.680884
    O  O18  0.984140  0.886086  0.936421  -0.554443
    C  C39  0.125078  0.898771  0.877212  0.374705
    O  O19  0.929783  0.939198  0.110114  -0.588900
    C  C40  0.096759  0.887511  0.113517  0.429609
    V  V4   0.840305  0.991477  0.998994  1.646858
    O  O20  0.115277  0.068538  0.997836  -0.676693
    C  C41  0.762500  0.050008  0.265349  -0.076267
    O  O21  0.957650  0.084905  0.260119  -0.464600
    H  H40  0.729076  0.003343  0.208888  -0.004627
    H  H41  0.745769  0.005014  0.323991  0.065289
    H  H42  0.006332  0.060759  0.204217  0.344604
    C  C42  0.393331  0.605503  0.791885  0.239881
    O  O22  0.287298  0.516839  0.793153  -0.548649
    H  H43  0.458334  0.619425  0.855834  0.041080
    H  H44  0.514983  0.600578  0.744146  -0.021555
    H  H45  0.231888  0.510561  0.734864  0.296926
    C  C43  0.322720  0.927373  0.272287  -0.029199
    O  O23  0.185346  0.931751  0.338875  -0.515175
    H  H46  0.289498  0.986243  0.225222  0.133306
    H  H47  0.474935  0.938705  0.298172  0.028766
    H  H48  0.266230  0.948378  0.389745  0.362305
