# Generated by REPEAT Assigner based on pymatgen
data_DB0-m2_o19_o22_f0_nbo.sym.25
_audit_creation_date              2022-05-24
_audit_creation_method            REPEAT_Assigner
_cell_length_a                    31.636575
_cell_length_b                    23.573250
_cell_length_c                    21.275050
_cell_angle_alpha                 90.000000
_cell_angle_beta                  131.280474
_cell_angle_gamma                 90.000000
_cell_volume                      11923.456019
_symmetry_space_group_name_H-M    P1
_symmetry_Int_Tables_number       1
loop_
    _symmetry_equiv_pos_site_id
    _symmetry_equiv_pos_as_xyz
    1  x,y,z
loop_
    _atom_site_type_symbol
    _atom_site_label
    _atom_site_fract_x
    _atom_site_fract_y
    _atom_site_fract_z
    _atom_type_partial_charge
    O   O1    0.918206  0.950227  0.922408  -0.626889
    O   O2    0.081529  0.048510  0.081889  -0.614492
    O   O3    0.081788  0.950727  0.077715  -0.627702
    O   O4    0.917956  0.047756  0.926893  -0.637267
    O   O5    0.418206  0.450227  0.922408  -0.626881
    O   O6    0.581529  0.548510  0.081889  -0.614510
    O   O7    0.581788  0.450727  0.077715  -0.627707
    O   O8    0.417956  0.547756  0.926893  -0.637275
    C   C1    0.891588  0.999014  0.896453  0.851064
    C   C2    0.108035  0.999802  0.102433  0.843620
    C   C3    0.391588  0.499014  0.896453  0.851065
    C   C4    0.608035  0.499802  0.102433  0.843623
    O   O9    0.999723  0.954172  0.906268  -0.592026
    O   O10   0.004264  0.044800  0.097536  -0.569347
    O   O11   0.004391  0.946995  0.093091  -0.603150
    O   O12   0.999303  0.051659  0.910417  -0.570231
    O   O13   0.499723  0.454172  0.906268  -0.592033
    O   O14   0.504264  0.544800  0.097536  -0.569340
    O   O15   0.504391  0.446995  0.093091  -0.603167
    O   O16   0.499303  0.551659  0.910417  -0.570238
    C   C5    0.995262  0.004005  0.875225  0.499701
    C   C6    0.004285  0.994784  0.124470  0.590294
    C   C7    0.495262  0.504005  0.875225  0.499698
    C   C8    0.504285  0.494784  0.124470  0.590323
    Cu  Cu1   0.999952  0.942910  0.997306  1.002744
    Cu  Cu2   0.999650  0.055884  0.002310  1.006801
    Cu  Cu3   0.499952  0.442910  0.997306  1.002769
    Cu  Cu4   0.499650  0.555884  0.002310  1.006793
    C   C9    0.953889  0.959719  0.740662  0.462872
    C   C10   0.041584  0.043196  0.255811  0.417138
    C   C11   0.027356  0.933792  0.241155  0.502838
    C   C12   0.981474  0.066741  0.768501  0.601290
    C   C13   0.453889  0.459719  0.740662  0.462922
    C   C14   0.541584  0.543196  0.255811  0.417099
    C   C15   0.527356  0.433792  0.241155  0.503096
    C   C16   0.481474  0.566741  0.768501  0.601292
    H   H1    0.976337  0.919129  0.770036  -0.065294
    H   H2    0.014457  0.080913  0.222641  -0.056856
    H   H3    0.999942  0.900758  0.193509  -0.108170
    H   H4    0.016514  0.093544  0.819874  -0.060489
    H   H5    0.476337  0.419129  0.770036  -0.065303
    H   H6    0.514457  0.580913  0.222641  -0.056844
    H   H7    0.499942  0.400758  0.193509  -0.108209
    H   H8    0.516514  0.593544  0.819874  -0.060488
    C   C17   0.945568  0.965576  0.661288  0.399747
    C   C18   0.050816  0.036874  0.335767  0.430496
    C   C19   0.021545  0.931451  0.307735  0.446254
    C   C20   0.982306  0.068559  0.696529  0.145133
    C   C21   0.445568  0.465576  0.661288  0.399692
    C   C22   0.550816  0.536874  0.335767  0.430594
    C   C23   0.521545  0.431451  0.307735  0.445868
    C   C24   0.482306  0.568559  0.696529  0.145109
    H   H9    0.065556  0.949027  0.870179  0.060544
    H   H10   0.929264  0.039929  0.122605  0.068677
    H   H11   0.921446  0.964667  0.121981  0.039234
    H   H12   0.082751  0.022910  0.882771  0.025015
    H   H13   0.565556  0.449027  0.870179  0.060543
    H   H14   0.429264  0.539929  0.122605  0.068684
    H   H15   0.421446  0.464667  0.121981  0.039257
    H   H16   0.582751  0.522910  0.882771  0.025012
    H   H17   0.060968  0.943891  0.760636  0.053310
    H   H18   0.934788  0.050194  0.232580  0.039430
    H   H19   0.915111  0.978911  0.219434  0.067006
    H   H20   0.085248  0.013509  0.781352  0.092635
    H   H21   0.560968  0.443891  0.760636  0.053313
    H   H22   0.434788  0.550194  0.232580  0.039419
    H   H23   0.415111  0.478911  0.219434  0.066972
    H   H24   0.585248  0.513509  0.781352  0.092639
    C   C25   0.051723  0.990483  0.837440  -0.128270
    C   C26   0.947914  0.001230  0.161973  -0.178345
    C   C27   0.551723  0.490483  0.837440  -0.128269
    C   C28   0.447914  0.501230  0.161973  -0.178415
    C   C29   0.993696  0.006040  0.804035  0.062177
    C   C30   0.007494  0.992563  0.197374  -0.008358
    C   C31   0.493696  0.506040  0.804035  0.062202
    C   C32   0.507494  0.492563  0.197374  -0.008392
    C   C33   0.992204  0.006722  0.683208  0.223061
    C   C34   0.007262  0.992395  0.316588  0.074088
    C   C35   0.492204  0.506722  0.683208  0.223059
    C   C36   0.507262  0.492395  0.316588  0.073861
    C   C37   0.050176  0.987363  0.765032  -0.193459
    C   C38   0.948387  0.006958  0.233110  -0.089526
    C   C39   0.550176  0.487363  0.765032  -0.193473
    C   C40   0.448387  0.506958  0.233110  -0.089375
    C   C41   0.830709  0.998895  0.836995  -0.230480
    C   C42   0.168905  0.999884  0.163021  -0.246581
    C   C43   0.330709  0.498895  0.836995  -0.230480
    C   C44   0.668905  0.499884  0.163021  -0.246575
    C   C45   0.779714  0.998983  0.786240  0.072400
    C   C46   0.219889  0.999872  0.214325  0.081155
    C   C47   0.279714  0.498983  0.786240  0.072393
    C   C48   0.719889  0.499872  0.214325  0.081150
    C   C49   0.719835  0.999277  0.725882  0.043293
    C   C50   0.279759  0.999867  0.275011  0.040085
    C   C51   0.219835  0.499277  0.725882  0.043304
    C   C52   0.779759  0.499867  0.275011  0.040085
    C   C53   0.668861  0.999680  0.674082  -0.192479
    C   C54   0.330729  0.999974  0.326930  -0.192026
    C   C55   0.168861  0.499680  0.674082  -0.192495
    C   C56   0.830729  0.499974  0.326930  -0.192019
    O   O17   0.950414  0.917663  0.450041  -0.575163
    O   O18   0.048730  0.082363  0.549449  -0.577775
    O   O19   0.047117  0.917571  0.554782  -0.607565
    O   O20   0.952057  0.082452  0.444589  -0.616691
    O   O21   0.450414  0.417663  0.450041  -0.575178
    O   O22   0.548730  0.582363  0.549449  -0.577783
    O   O23   0.547117  0.417571  0.554782  -0.607557
    O   O24   0.452057  0.582452  0.444589  -0.616697
    C   C57   0.998652  0.891247  0.503371  0.782879
    C   C58   0.000506  0.108786  0.496120  0.794402
    C   C59   0.498652  0.391247  0.503371  0.782866
    C   C60   0.500506  0.608786  0.496120  0.794407
    O   O25   0.947559  0.001101  0.537735  -0.558146
    O   O26   0.051563  0.998954  0.461660  -0.554514
    O   O27   0.447559  0.501101  0.537735  -0.558135
    O   O28   0.551563  0.498954  0.461660  -0.554489
    O   O29   0.044267  0.005380  0.637639  -0.574130
    O   O30   0.954849  0.994527  0.361729  -0.572554
    O   O31   0.544267  0.505380  0.637639  -0.574139
    O   O32   0.454849  0.494527  0.361729  -0.572569
    C   C61   0.994664  0.004554  0.615723  0.605552
    C   C62   0.004489  0.995027  0.383726  0.614095
    C   C63   0.494664  0.504554  0.615723  0.605572
    C   C64   0.504489  0.495027  0.383726  0.614168
    Cu  Cu5   0.943587  0.000216  0.442219  0.968613
    Cu  Cu6   0.055562  0.999811  0.557190  0.968592
    Cu  Cu7   0.443587  0.500216  0.442219  0.968661
    Cu  Cu8   0.555562  0.499811  0.557190  0.968595
    O   O33   0.499262  0.082268  0.447439  -0.596314
    O   O34   0.500208  0.917746  0.553592  -0.584516
    O   O35   0.500091  0.080044  0.557471  -0.593580
    O   O36   0.499594  0.919981  0.443510  -0.581387
    O   O37   0.999262  0.582268  0.447439  -0.596309
    O   O38   0.000208  0.417746  0.553592  -0.584511
    O   O39   0.000091  0.580044  0.557471  -0.593562
    O   O40   0.999594  0.419981  0.443510  -0.581382
    C   C65   0.499594  0.107452  0.503029  0.731516
    C   C66   0.499959  0.892606  0.497945  0.818375
    C   C67   0.999594  0.607452  0.503029  0.731550
    C   C68   0.999959  0.392606  0.497945  0.818398
    O   O41   0.583305  0.999057  0.532552  -0.602896
    O   O42   0.416281  0.996802  0.468368  -0.603754
    O   O43   0.083305  0.499057  0.532552  -0.602890
    O   O44   0.916281  0.496802  0.468368  -0.603751
    O   O45   0.579735  0.996739  0.636955  -0.576547
    O   O46   0.419851  0.998907  0.363958  -0.582216
    O   O47   0.079735  0.496739  0.636955  -0.576541
    O   O48   0.919851  0.498907  0.363958  -0.582196
    C   C69   0.608021  0.000356  0.611928  0.765555
    C   C70   0.391568  0.000358  0.389118  0.773521
    C   C71   0.108021  0.500356  0.611928  0.765594
    C   C72   0.891568  0.500358  0.389118  0.773529
    Cu  Cu9   0.501820  0.001285  0.440694  0.999113
    Cu  Cu10  0.497760  0.998750  0.560320  0.998119
    Cu  Cu11  0.001820  0.501285  0.440694  0.999125
    Cu  Cu12  0.997760  0.498750  0.560320  0.998114
    C   C73   0.998572  0.830403  0.504364  -0.212529
    C   C74   0.000594  0.169639  0.495389  -0.204672
    C   C75   0.498572  0.330403  0.504364  -0.212517
    C   C76   0.500594  0.669639  0.495389  -0.204660
    C   C77   0.998701  0.779293  0.504735  0.077489
    C   C78   0.000531  0.220754  0.495354  0.046663
    C   C79   0.498701  0.279293  0.504735  0.077475
    C   C80   0.500531  0.720754  0.495354  0.046656
    C   C81   0.498994  0.219404  0.504658  0.019627
    C   C82   0.500354  0.780647  0.495859  0.084636
    C   C83   0.998994  0.719404  0.504658  0.019612
    C   C84   0.000354  0.280647  0.495859  0.084631
    C   C85   0.499284  0.168297  0.504157  -0.156958
    C   C86   0.500168  0.831756  0.496655  -0.254441
    C   C87   0.999284  0.668297  0.504157  -0.156962
    C   C88   0.000168  0.331756  0.496655  -0.254441
    N   N1    0.902323  0.954542  0.727067  -0.785676
    H   H25   0.874487  0.926793  0.677545  0.249473
    H   H26   0.883191  0.993374  0.717156  0.278398
    N   N2    0.092566  0.055138  0.269644  -0.735771
    H   H27   0.113695  0.089330  0.310693  0.238102
    H   H28   0.119511  0.020640  0.292188  0.272925
    N   N3    0.084734  0.920308  0.278045  -0.891021
    H   H29   0.088095  0.876167  0.279956  0.307390
    H   H30   0.091717  0.933286  0.238797  0.338764
    N   N4    0.931138  0.090826  0.748245  -0.865588
    H   H31   0.935175  0.134927  0.752366  0.305537
    H   H32   0.893964  0.079958  0.689228  0.310367
    N   N5    0.402323  0.454542  0.727067  -0.785705
    H   H33   0.374487  0.426793  0.677545  0.249483
    H   H34   0.383191  0.493374  0.717156  0.278406
    N   N6    0.592566  0.555138  0.269644  -0.735784
    H   H35   0.613695  0.589330  0.310693  0.238110
    H   H36   0.619511  0.520640  0.292188  0.272930
    N   N7    0.584734  0.420308  0.278045  -0.891036
    H   H37   0.588095  0.376167  0.279956  0.307387
    H   H38   0.591717  0.433286  0.238797  0.338754
    N   N8    0.431138  0.590826  0.748245  -0.865600
    H   H39   0.435175  0.634927  0.752366  0.305542
    H   H40   0.393964  0.579958  0.689228  0.310370
    N   N9    0.889537  0.986494  0.589245  -0.663013
    H   H41   0.871235  0.011731  0.605479  0.205104
    H   H42   0.862566  0.952486  0.554109  0.284883
    N   N10   0.108365  0.019514  0.407879  -0.642548
    H   H43   0.125369  0.991042  0.392609  0.209808
    H   H44   0.134686  0.054880  0.435456  0.272445
    N   N11   0.073307  0.910359  0.387507  -0.743976
    H   H45   0.083049  0.870278  0.379336  0.282747
    H   H46   0.065666  0.903240  0.427629  0.305538
    N   N12   0.930413  0.092197  0.619623  -0.776645
    H   H47   0.936043  0.098502  0.577031  0.354867
    H   H48   0.923665  0.132682  0.631371  0.267746
    N   N13   0.389537  0.486494  0.589245  -0.663015
    H   H49   0.371235  0.511731  0.605479  0.205106
    H   H50   0.362566  0.452486  0.554109  0.284885
    N   N14   0.608365  0.519514  0.407879  -0.642522
    H   H51   0.625369  0.491042  0.392609  0.209813
    H   H52   0.634686  0.554880  0.435456  0.272434
    N   N15   0.573307  0.410359  0.387507  -0.743905
    H   H53   0.583049  0.370278  0.379336  0.282759
    H   H54   0.565666  0.403240  0.427629  0.305532
    N   N16   0.430413  0.592197  0.619623  -0.776629
    H   H55   0.436043  0.598502  0.577031  0.354859
    H   H56   0.423665  0.632682  0.631371  0.267746
    N   N17   0.951988  0.909735  0.638143  -0.767833
    H   H57   0.921337  0.882544  0.626188  0.285606
    H   H58   0.990309  0.890809  0.686435  0.271641
    N   N18   0.040966  0.091563  0.356959  -0.747216
    H   H59   0.069926  0.121046  0.368267  0.278760
    H   H60   0.001474  0.108149  0.308042  0.268642
    N   N19   0.976265  0.892556  0.281280  -0.862102
    H   H61   0.991945  0.851227  0.297645  0.281640
    H   H62   0.943547  0.892668  0.216568  0.305636
    N   N20   0.028428  0.104784  0.719981  -0.771898
    H   H63   0.015817  0.147101  0.710533  0.278945
    H   H64   0.064262  0.101001  0.783059  0.285143
    N   N21   0.451988  0.409735  0.638143  -0.767789
    H   H65   0.421337  0.382544  0.626188  0.285595
    H   H66   0.490309  0.390809  0.686435  0.271635
    N   N22   0.540966  0.591563  0.356959  -0.747216
    H   H67   0.569926  0.621046  0.368267  0.278754
    H   H68   0.501474  0.608149  0.308042  0.268645
    N   N23   0.476265  0.392556  0.281280  -0.861831
    H   H69   0.491945  0.351227  0.297645  0.281582
    H   H70   0.443547  0.392668  0.216568  0.305583
    N   N24   0.528428  0.604784  0.719981  -0.771902
    H   H71   0.515817  0.647101  0.710533  0.278949
    H   H72   0.564262  0.601001  0.783059  0.285146
