# Generated by REPEAT Assigner based on pymatgen
data_DB0-m29_o90_o500_f0_pts.sym.30
_audit_creation_date              2022-05-24
_audit_creation_method            REPEAT_Assigner
_cell_length_a                    13.018347
_cell_length_b                    16.745095
_cell_length_c                    13.092570
_cell_angle_alpha                 105.570538
_cell_angle_beta                  111.254318
_cell_angle_gamma                 111.059017
_cell_volume                      2206.140354
_symmetry_space_group_name_H-M    P1
_symmetry_Int_Tables_number       1
loop_
    _symmetry_equiv_pos_site_id
    _symmetry_equiv_pos_as_xyz
    1  x,y,z
loop_
    _atom_site_type_symbol
    _atom_site_label
    _atom_site_fract_x
    _atom_site_fract_y
    _atom_site_fract_z
    _atom_type_partial_charge
    C   C1   0.259066  0.942177  0.906110  -0.118632
    C   C2   0.199882  0.949013  0.973435  0.008507
    C   C3   0.082761  0.944050  0.922061  0.046782
    C   C4   0.022215  0.924481  0.798377  -0.000569
    C   C5   0.087283  0.924183  0.734579  -0.130954
    C   C6   0.207383  0.935340  0.789795  0.057573
    C   C7   0.027381  0.960707  0.000415  -0.159909
    C   C8   0.972141  0.014491  0.996597  -0.130741
    H   H1   0.037392  0.931895  0.065951  0.156660
    H   H2   0.964675  0.044347  0.932160  0.139978
    C   C9   0.819295  0.050328  0.038851  -0.029339
    C   C10  0.769964  0.067996  0.113695  -0.118842
    C   C11  0.819581  0.069976  0.227846  0.065245
    C   C12  0.929943  0.064363  0.272776  -0.079149
    C   C13  0.979768  0.046840  0.197417  -0.104354
    H   H3   0.066534  0.043962  0.233170  0.131717
    C   C14  0.921776  0.035711  0.078417  0.119994
    H   H4   0.353192  0.951367  0.951009  0.148274
    H   H5   0.043777  0.913891  0.640924  0.133579
    H   H6   0.682608  0.069840  0.075276  0.145474
    O   O1   0.644314  0.076237  0.243224  -0.555268
    C   C15  0.741376  0.062616  0.286798  0.486638
    O   O2   0.506151  0.850562  0.203932  -0.483988
    O   O3   0.750514  0.023651  0.361819  -0.372183
    O   O4   0.517151  0.943440  0.373312  -0.540777
    C   C16  0.513552  0.865761  0.310721  0.529968
    Fe  Fe1  0.514921  0.025809  0.289683  1.458680
    O   O5   0.345844  0.936526  0.131984  -0.599334
    O   O6   0.307631  0.058872  0.186836  -0.496253
    C   C17  0.275967  0.976298  0.103951  0.610490
    O   O7   0.545873  0.148576  0.407710  -0.635883
    O   O8   0.394651  0.043953  0.427967  -0.441812
    C   C18  0.478156  0.132588  0.461409  0.708163
    O   O9   0.465674  0.880261  0.606640  -0.654672
    O   O10  0.637414  0.974954  0.601079  -0.430969
    C   C19  0.537437  0.890310  0.556569  0.756321
    O   O11  0.701199  0.084133  0.886182  -0.646207
    O   O12  0.678962  0.936088  0.827513  -0.468910
    C   C20  0.742247  0.026474  0.910037  0.660724
    O   O13  0.248185  0.949820  0.627105  -0.436093
    O   O14  0.528262  0.095998  0.663271  -0.561755
    C   C21  0.484135  0.150824  0.698021  0.559185
    O   O15  0.404867  0.967968  0.799728  -0.590069
    C   C22  0.287014  0.947426  0.733206  0.570238
    O   O16  0.454357  0.148698  0.783225  -0.473425
    Fe  Fe2  0.523488  0.007723  0.738499  1.481631
    C   C23  0.482435  0.214203  0.543704  -0.076959
    C   C24  0.487201  0.286090  0.509635  0.104495
    H   H7   0.489983  0.279774  0.426540  0.079965
    C   C25  0.483818  0.363014  0.577326  -0.462778
    C   C26  0.476584  0.368143  0.681309  0.175761
    H   H8   0.473663  0.427402  0.736261  0.044700
    C   C27  0.473986  0.297556  0.717356  -0.218235
    H   H9   0.471118  0.304715  0.800637  0.148961
    C   C28  0.478263  0.220478  0.650344  0.109671
    N   N1   0.488063  0.514633  0.605368  -0.244135
    N   N2   0.491220  0.581706  0.569464  -0.209390
    C   C29  0.492635  0.573280  0.464857  0.753104
    N   N3   0.490793  0.496055  0.396976  -0.229280
    N   N4   0.487831  0.429082  0.432965  -0.235363
    C   C30  0.486548  0.437517  0.537605  0.774338
    C   C31  0.495076  0.639174  0.316940  0.136957
    H   H10  0.486436  0.575594  0.256675  0.044510
    C   C32  0.501791  0.710849  0.282192  -0.212584
    H   H11  0.497021  0.700212  0.195126  0.153711
    C   C33  0.513665  0.794086  0.356431  0.149112
    C   C34  0.519304  0.804212  0.468014  -0.109737
    C   C35  0.508825  0.730803  0.500160  0.070585
    H   H12  0.513725  0.740428  0.587068  0.106553
    C   C36  0.498054  0.648574  0.426118  -0.418928
    N   N5   0.891889  0.900412  0.734063  0.540857
    O   O17  0.810034  0.848432  0.757070  -0.319088
    O   O18  0.849479  0.910816  0.634930  -0.308982
    N   N6   0.995343  0.079100  0.396422  0.614303
    O   O19  0.001910  0.143304  0.484581  -0.347822
    O   O20  0.071048  0.044924  0.424794  -0.330034
