# generated using pymatgen
data_Zn2H49C61N11O16
_symmetry_space_group_name_H-M   'P 1'
_cell_length_a   13.45248400
_cell_length_b   15.46657000
_cell_length_c   11.72180000
_cell_angle_alpha   90.00000000
_cell_angle_beta   90.14626000
_cell_angle_gamma   90.00000000
_symmetry_Int_Tables_number   1
_chemical_formula_structural   Zn2H49C61N11O16
_chemical_formula_sum   'Zn2 H49 C61 N11 O16'
_cell_volume   2438.87413408
_cell_formula_units_Z   1
loop_
 _symmetry_equiv_pos_site_id
 _symmetry_equiv_pos_as_xyz
  1  'x, y, z'
loop_
 _atom_site_type_symbol
 _atom_site_label
 _atom_site_symmetry_multiplicity
 _atom_site_fract_x
 _atom_site_fract_y
 _atom_site_fract_z
 _atom_site_occupancy
  Zn  Zn1  1  0.90250500  0.49634000  0.50217700  1
  Zn  Zn2  1  0.12383700  0.49656500  0.49921700  1
  H  H1  1  0.85916600  0.30468700  0.77009600  1
  H  H2  1  0.86159700  0.68404200  0.77794500  1
  H  H3  1  0.85867600  0.17544500  0.88737500  1
  H  H4  1  0.86176300  0.81045500  0.90171500  1
  H  H5  1  0.17069500  0.28134500  0.26860400  1
  H  H6  1  0.15759200  0.67044400  0.19601900  1
  H  H7  1  0.85352200  0.28962600  0.26974800  1
  H  H8  1  0.86815200  0.73014800  0.32017800  1
  H  H9  1  0.16388000  0.14995800  0.15517100  1
  H  H10  1  0.15168000  0.79849700  0.07411700  1
  H  H11  1  0.01230600  0.00096900  0.79503800  1
  H  H12  1  0.00446200  0.99305700  0.21292700  1
  H  H13  1  0.26148900  0.52950900  0.67728500  1
  H  H14  1  0.43815300  0.53464000  0.68527000  1
  H  H15  1  0.59061600  0.50881500  0.68749700  1
  H  H16  1  0.26806600  0.47089800  0.32749800  1
  H  H17  1  0.76612400  0.50558400  0.67730500  1
  H  H18  1  0.19380700  0.07610600  0.85181600  1
  H  H19  1  0.38891600  0.10642700  0.92353100  1
  H  H20  1  0.30388800  0.05769300  0.02475100  1
  H  H21  1  0.37084200  0.15517700  0.06203700  1
  H  H22  1  0.24484100  0.83190800  0.87790000  1
  H  H23  1  0.35208500  0.97100000  0.81745400  1
  H  H24  1  0.33828500  0.97976500  0.66420300  1
  H  H25  1  0.37194200  0.87734600  0.72810200  1
  H  H26  1  0.78055400  0.43275000  0.25164500  1
  H  H27  1  0.82977000  0.50135000  0.08686800  1
  H  H28  1  0.85656200  0.61504400  0.10200500  1
  H  H29  1  0.73528100  0.58081000  0.05425700  1
  H  H30  1  0.59464400  0.49872200  0.14076300  1
  H  H31  1  0.49198200  0.42452600  0.99509100  1
  H  H32  1  0.50774500  0.30868600  0.00037900  1
  H  H33  1  0.61476400  0.37805900  0.98017900  1
  H  H34  1  0.23035200  0.22503900  0.67255300  1
  H  H35  1  0.38201700  0.33268400  0.65107700  1
  H  H36  1  0.39219500  0.26231400  0.77352900  1
  H  H37  1  0.40349100  0.37792300  0.79178100  1
  H  H38  1  0.25539600  0.72456900  0.73245800  1
  H  H39  1  0.35444500  0.72966000  0.57408500  1
  H  H40  1  0.31346300  0.82402100  0.49591000  1
  H  H41  1  0.29014800  0.71706800  0.43970700  1
  H  H42  1  0.82344400  0.08549800  0.12900700  1
  H  H43  1  0.67071400  0.08452100  0.04932500  1
  H  H44  1  0.66368600  0.16993900  0.94465200  1
  H  H45  1  0.59931000  0.18021600  0.07914000  1
  H  H46  1  0.81615600  0.89714600  0.12092800  1
  H  H47  1  0.69001900  0.97131000  0.21169200  1
  H  H48  1  0.74974200  0.03035500  0.32636600  1
  H  H49  1  0.66799600  0.94090500  0.35807500  1
  C  C1  1  0.01665600  0.30339800  0.74154700  1
  C  C2  1  0.01470100  0.69671100  0.72969100  1
  C  C3  1  0.01119300  0.07572200  0.94735300  1
  C  C4  1  0.01199800  0.91973000  0.94229300  1
  C  C5  1  0.10440600  0.18805800  0.83938400  1
  C  C6  1  0.10032400  0.81791200  0.81559800  1
  C  C7  1  0.92915500  0.27362400  0.78938000  1
  C  C8  1  0.92943300  0.72078300  0.78747600  1
  C  C9  1  0.10524100  0.25929500  0.76674200  1
  C  C10  1  0.10112000  0.74628100  0.74371200  1
  C  C11  1  0.01551700  0.15789300  0.88385400  1
  C  C12  1  0.01442100  0.84064000  0.87290800  1
  C  C13  1  0.92858900  0.20080800  0.85759400  1
  C  C14  1  0.92938900  0.79203200  0.85842900  1
  C  C15  1  0.01235600  0.29810800  0.27143000  1
  C  C16  1  0.01220100  0.69069300  0.26529200  1
  C  C17  1  0.00730800  0.07309400  0.06543800  1
  C  C18  1  0.00731400  0.91739600  0.06060900  1
  C  C19  1  0.91848500  0.19096800  0.16754200  1
  C  C20  1  0.92649000  0.81729700  0.19737300  1
  C  C21  1  0.09937500  0.25776500  0.23958000  1
  C  C22  1  0.09185200  0.71062400  0.19603200  1
  C  C23  1  0.92218700  0.26292400  0.23794300  1
  C  C24  1  0.93015100  0.74423300  0.26513400  1
  C  C25  1  0.00669100  0.15212500  0.13418700  1
  C  C26  1  0.00532100  0.83586400  0.12521100  1
  C  C27  1  0.09590600  0.18397000  0.17407900  1
  C  C28  1  0.08801000  0.78253600  0.12600000  1
  C  C29  1  0.01179800  0.99889000  0.88710300  1
  C  C30  1  0.00603600  0.99430100  0.12075000  1
  C  C31  1  0.01158300  0.62067900  0.65280600  1
  C  C32  1  0.01261400  0.37605800  0.65855000  1
  C  C33  1  0.01473800  0.61642600  0.34348400  1
  C  C34  1  0.01500800  0.37268900  0.34883000  1
  C  C35  1  0.30615700  0.48295500  0.40713000  1
  C  C36  1  0.30267700  0.51604200  0.60039000  1
  C  C37  1  0.40531500  0.51769200  0.60455800  1
  C  C38  1  0.46070100  0.49879800  0.50771000  1
  C  C39  1  0.40848800  0.48332400  0.40870800  1
  C  C40  1  0.62226800  0.50389200  0.60362700  1
  C  C41  1  0.56515200  0.49624900  0.50525800  1
  C  C42  1  0.61403000  0.48405900  0.40171300  1
  C  C43  1  0.55575200  0.46668300  0.30436000  1
  C  C44  1  0.72428600  0.50156200  0.59873100  1
  C  C45  1  0.71887800  0.48941100  0.39951500  1
  C  C46  1  0.25141700  0.17317800  0.94458700  1
  C  C47  1  0.33389400  0.11955900  0.99161200  1
  C  C48  1  0.22014800  0.91431400  0.74912100  1
  C  C49  1  0.32738800  0.93708000  0.73915000  1
  C  C50  1  0.76314700  0.56301800  0.23235500  1
  C  C51  1  0.79837500  0.56490900  0.11156900  1
  C  C52  1  0.55596400  0.37626900  0.14938900  1
  C  C53  1  0.54190200  0.37157200  0.02334600  1
  C  C54  1  0.25595500  0.33267700  0.76143400  1
  C  C55  1  0.36529300  0.32609800  0.74321700  1
  C  C56  1  0.19705700  0.75432500  0.57824200  1
  C  C57  1  0.29496900  0.75632600  0.51869700  1
  C  C58  1  0.75650500  0.19864800  0.08772800  1
  C  C59  1  0.66729700  0.15552100  0.03724100  1
  C  C60  1  0.81061200  0.90523300  0.29483100  1
  C  C61  1  0.72432100  0.96576200  0.29744300  1
  N  N1  1  0.25424400  0.49710100  0.50289000  1
  N  N2  1  0.45640300  0.46737100  0.31151600  1
  N  N3  1  0.77175200  0.49606900  0.49834200  1
  N  N4  1  0.19388900  0.14220100  0.85939300  1
  N  N5  1  0.18876000  0.86481800  0.83675300  1
  N  N6  1  0.77125400  0.48995400  0.29503800  1
  N  N7  1  0.59647000  0.44750500  0.19668500  1
  N  N8  1  0.19425300  0.27743500  0.70726900  1
  N  N9  1  0.19022900  0.72436000  0.68638100  1
  N  N10  1  0.82596500  0.15104500  0.14280300  1
  N  N11  1  0.83876800  0.86800500  0.19551600  1
  O  O1  1  0.09562900  0.59098200  0.61276600  1
  O  O2  1  0.09652700  0.40484600  0.61686100  1
  O  O3  1  0.92509800  0.58836800  0.62151500  1
  O  O4  1  0.92572800  0.40718200  0.62525300  1
  O  O5  1  0.93012800  0.58856700  0.38505700  1
  O  O6  1  0.93043500  0.40175900  0.38852400  1
  O  O7  1  0.10101400  0.58527600  0.37589200  1
  O  O8  1  0.10140000  0.40426900  0.38049700  1
  O  O9  1  0.23594000  0.24475600  0.98417400  1
  O  O10  1  0.16127600  0.94011500  0.67758900  1
  O  O11  1  0.72539700  0.62740200  0.27373300  1
  O  O12  1  0.53050000  0.31578500  0.20933700  1
  O  O13  1  0.22280600  0.38664000  0.82696300  1
  O  O14  1  0.12296900  0.77988200  0.52847200  1
  O  O15  1  0.76750100  0.27627700  0.07499900  1
  O  O16  1  0.85602700  0.89072400  0.38293300  1
