# Generated by REPEAT Assigner based on pymatgen
data_DB0-m2_o3_o3_f0_pcu.sym.2
_audit_creation_date              2022-05-24
_audit_creation_method            REPEAT_Assigner
_cell_length_a                    27.369914
_cell_length_b                    27.364525
_cell_length_c                    17.966463
_cell_angle_alpha                 90.000000
_cell_angle_beta                  90.000000
_cell_angle_gamma                 90.000000
_cell_volume                      13456.245804
_symmetry_space_group_name_H-M    P1
_symmetry_Int_Tables_number       1
loop_
    _symmetry_equiv_pos_site_id
    _symmetry_equiv_pos_as_xyz
    1  x,y,z
loop_
    _atom_site_type_symbol
    _atom_site_label
    _atom_site_fract_x
    _atom_site_fract_y
    _atom_site_fract_z
    _atom_type_partial_charge
    O   O1    0.048820  0.448442  0.563004  -0.578083
    O   O2    0.950391  0.551162  0.436755  -0.617525
    O   O3    0.949039  0.549437  0.564417  -0.560298
    O   O4    0.051357  0.451330  0.435361  -0.596199
    O   O5    0.950944  0.448389  0.437027  -0.576644
    O   O6    0.049425  0.551219  0.563144  -0.617921
    O   O7    0.050773  0.549340  0.435558  -0.562059
    O   O8    0.948419  0.451432  0.564731  -0.594561
    O   O9    0.549072  0.948565  0.563041  -0.578711
    O   O10   0.450464  0.051221  0.436733  -0.616539
    O   O11   0.449249  0.049521  0.564374  -0.561406
    O   O12   0.551444  0.951404  0.435362  -0.595657
    O   O13   0.451048  0.948444  0.437075  -0.577266
    O   O14   0.549618  0.051341  0.563150  -0.616799
    O   O15   0.550860  0.049410  0.435490  -0.561010
    O   O16   0.448653  0.951512  0.564713  -0.597062
    C   C1    0.066382  0.433626  0.499112  0.879940
    C   C2    0.933453  0.566642  0.500662  0.882932
    C   C3    0.933397  0.433679  0.500995  0.874156
    C   C4    0.066363  0.566663  0.499233  0.883374
    C   C5    0.566546  0.933715  0.499089  0.877185
    C   C6    0.433599  0.066710  0.500675  0.883290
    C   C7    0.433548  0.933721  0.501068  0.877451
    C   C8    0.566484  0.066721  0.499146  0.881900
    Cu  Cu1   0.000204  0.500119  0.574369  0.716019
    Cu  Cu2   0.999597  0.500028  0.425643  0.718126
    Cu  Cu3   0.500255  0.000171  0.574351  0.719663
    Cu  Cu4   0.499753  0.000116  0.425632  0.715446
    C   C9    0.019221  0.461649  0.723297  0.088889
    C   C10   0.019496  0.537464  0.276575  0.104347
    C   C11   0.980253  0.537416  0.723510  0.103736
    C   C12   0.980915  0.461479  0.276688  0.090775
    C   C13   0.519340  0.961797  0.723281  0.086838
    C   C14   0.519506  0.037440  0.276467  0.102624
    C   C15   0.480834  0.037830  0.723449  0.104013
    C   C16   0.480732  0.961570  0.276721  0.089725
    H   H1    0.034632  0.430925  0.693953  0.113139
    H   H2    0.034691  0.568338  0.305790  0.105525
    H   H3    0.964969  0.568256  0.694318  0.105154
    H   H4    0.965685  0.430663  0.306049  0.112860
    H   H5    0.534547  0.930927  0.693988  0.114306
    H   H6    0.534759  0.068321  0.305535  0.105045
    H   H7    0.465700  0.068674  0.694124  0.105118
    H   H8    0.465469  0.930805  0.306197  0.113469
    C   C17   0.020096  0.461280  0.799991  -0.285682
    C   C18   0.020698  0.537553  0.199909  -0.291876
    C   C19   0.978915  0.537386  0.800210  -0.291120
    C   C20   0.979979  0.461185  0.199965  -0.286169
    C   C21   0.520487  0.961575  0.799969  -0.284661
    C   C22   0.520740  0.037424  0.199817  -0.290448
    C   C23   0.479743  0.037934  0.800166  -0.291709
    C   C24   0.479731  0.961226  0.199981  -0.286372
    H   H9    0.037966  0.431114  0.827447  0.132498
    H   H10   0.038396  0.567785  0.172351  0.133955
    H   H11   0.960934  0.567448  0.827801  0.133690
    H   H12   0.962221  0.430936  0.172493  0.132387
    H   H13   0.538251  0.931323  0.827375  0.132026
    H   H14   0.538746  0.067495  0.172337  0.133843
    H   H15   0.461946  0.068110  0.827772  0.134016
    H   H16   0.462025  0.930998  0.172392  0.132385
    C   C25   0.145104  0.600627  0.453087  0.443277
    C   C26   0.899287  0.355527  0.548181  0.435561
    C   C27   0.855447  0.399288  0.453469  0.436208
    C   C28   0.100345  0.645235  0.545974  0.441495
    C   C29   0.854707  0.600512  0.546690  0.444931
    C   C30   0.100527  0.355374  0.452100  0.439389
    C   C31   0.144449  0.399318  0.546523  0.439563
    C   C32   0.899587  0.645195  0.454034  0.445702
    C   C33   0.645197  0.100625  0.453271  0.442986
    C   C34   0.399319  0.855535  0.548105  0.435555
    C   C35   0.355497  0.899406  0.453455  0.436067
    C   C36   0.600262  0.145330  0.545819  0.444511
    C   C37   0.354878  0.100501  0.546822  0.443857
    C   C38   0.600653  0.855488  0.451842  0.436787
    C   C39   0.644525  0.899229  0.546581  0.439850
    C   C40   0.399624  0.145239  0.454092  0.443532
    C   C41   0.180543  0.636572  0.453587  -0.406635
    C   C42   0.863412  0.320029  0.547874  -0.413004
    C   C43   0.820191  0.363201  0.453450  -0.407205
    C   C44   0.136444  0.680523  0.546084  -0.417729
    C   C45   0.819234  0.636411  0.546065  -0.407918
    C   C46   0.136403  0.319861  0.452520  -0.417299
    C   C47   0.179713  0.363213  0.546641  -0.410537
    C   C48   0.863476  0.680434  0.453775  -0.419400
    C   C49   0.680567  0.136607  0.453767  -0.408053
    C   C50   0.363362  0.820103  0.547749  -0.411365
    C   C51   0.320157  0.863373  0.453431  -0.406070
    C   C52   0.636281  0.180668  0.545968  -0.419234
    C   C53   0.319430  0.136424  0.546434  -0.406597
    C   C54   0.636546  0.819981  0.452106  -0.413693
    C   C55   0.679790  0.863142  0.546510  -0.408989
    C   C56   0.363523  0.180489  0.454026  -0.418117
    H   H17   0.212464  0.632934  0.418650  0.151660
    H   H18   0.866825  0.288500  0.583688  0.153503
    H   H19   0.788732  0.366496  0.417477  0.152273
    H   H20   0.132852  0.712323  0.581301  0.154023
    H   H21   0.787278  0.632784  0.580925  0.151690
    H   H22   0.132991  0.288276  0.416824  0.154173
    H   H23   0.211250  0.366603  0.582451  0.152918
    H   H24   0.867175  0.712246  0.418615  0.154460
    H   H25   0.712514  0.132899  0.418941  0.152099
    H   H26   0.366727  0.788512  0.583427  0.152925
    H   H27   0.288647  0.866702  0.417528  0.151864
    H   H28   0.632580  0.212454  0.581206  0.154563
    H   H29   0.287520  0.132722  0.581377  0.151564
    H   H30   0.633161  0.788433  0.416299  0.153347
    H   H31   0.711292  0.866426  0.582393  0.152642
    H   H32   0.367126  0.212276  0.418800  0.154381
    C   C57   0.176411  0.676455  0.499914  0.154213
    C   C58   0.823904  0.323684  0.500652  0.151713
    C   C59   0.823425  0.676301  0.499750  0.154737
    C   C60   0.175952  0.323584  0.499664  0.157133
    C   C61   0.676341  0.176536  0.500010  0.155786
    C   C62   0.323862  0.823798  0.500505  0.149991
    C   C63   0.323521  0.176334  0.500102  0.154219
    C   C64   0.676035  0.823612  0.499388  0.153878
    N   N1    0.000874  0.500178  0.685791  -0.056508
    N   N2    0.999049  0.500105  0.314212  -0.059065
    N   N3    0.501071  0.000324  0.685775  -0.057454
    N   N4    0.499102  0.000075  0.314200  -0.056761
    C   C65   0.000445  0.542899  0.961577  -0.148561
    C   C66   0.000821  0.456055  0.038444  -0.148816
    C   C67   0.999862  0.455996  0.961752  -0.150327
    C   C68   0.999736  0.542951  0.038300  -0.150918
    C   C69   0.500691  0.043041  0.961815  -0.147790
    C   C70   0.500497  0.956032  0.038223  -0.152209
    C   C71   0.499747  0.956144  0.961509  -0.147506
    C   C72   0.499724  0.042930  0.038513  -0.150545
    C   C73   0.999651  0.499362  0.839857  0.188361
    C   C74   0.000243  0.499430  0.160174  0.189146
    C   C75   0.500241  0.999782  0.839832  0.190295
    C   C76   0.500095  0.999368  0.160149  0.188527
    C   C77   0.104387  0.604772  0.499222  -0.548281
    C   C78   0.895419  0.395678  0.501050  -0.536619
    C   C79   0.895448  0.604713  0.500653  -0.551172
    C   C80   0.104391  0.395614  0.499097  -0.542849
    C   C81   0.604428  0.104835  0.499173  -0.549423
    C   C82   0.395498  0.895743  0.501071  -0.537750
    C   C83   0.395546  0.104730  0.500681  -0.549582
    C   C84   0.604483  0.895630  0.499070  -0.540341
    C   C85   0.231902  0.732668  0.566508  -0.189242
    C   C86   0.768210  0.267740  0.434164  -0.187626
    C   C87   0.767810  0.267936  0.566914  -0.189640
    C   C88   0.232802  0.731956  0.433741  -0.190734
    C   C89   0.768117  0.732675  0.433232  -0.190541
    C   C90   0.231797  0.267691  0.566135  -0.187331
    C   C91   0.232041  0.267797  0.433365  -0.188670
    C   C92   0.767139  0.731802  0.565979  -0.187985
    C   C93   0.731781  0.232723  0.566767  -0.189320
    C   C94   0.268112  0.767865  0.433858  -0.187236
    C   C95   0.267898  0.767881  0.566634  -0.189437
    C   C96   0.732871  0.231870  0.434028  -0.189729
    C   C97   0.268050  0.232570  0.433466  -0.189323
    C   C98   0.731839  0.767712  0.565922  -0.190164
    C   C99   0.732137  0.767908  0.433160  -0.188379
    C   C100  0.267106  0.231780  0.566222  -0.189744
    H   H33   0.218400  0.718930  0.619019  0.125293
    H   H34   0.782481  0.280828  0.381742  0.122577
    H   H35   0.780902  0.282074  0.619420  0.125216
    H   H36   0.219144  0.718495  0.381160  0.123229
    H   H37   0.781750  0.719008  0.380762  0.125539
    H   H38   0.217674  0.280836  0.618611  0.122609
    H   H39   0.218967  0.281893  0.380820  0.125138
    H   H40   0.780874  0.718319  0.618505  0.122649
    H   H41   0.718154  0.218960  0.619189  0.125298
    H   H42   0.282278  0.780964  0.381374  0.122824
    H   H43   0.281031  0.781856  0.619214  0.125393
    H   H44   0.719239  0.218319  0.381486  0.122802
    H   H45   0.281652  0.218889  0.380971  0.125147
    H   H46   0.717729  0.780864  0.618416  0.123274
    H   H47   0.719099  0.782100  0.380668  0.124982
    H   H48   0.280839  0.218340  0.618763  0.122993
    C   C101  0.786036  0.285810  0.500590  0.167401
    C   C102  0.214312  0.714335  0.500068  0.168235
    C   C103  0.213860  0.285706  0.499716  0.164579
    C   C104  0.785584  0.714201  0.499636  0.168392
    C   C105  0.286010  0.785885  0.500319  0.167466
    C   C106  0.714269  0.214360  0.500302  0.167346
    C   C107  0.713908  0.785728  0.499502  0.166927
    C   C108  0.285579  0.214159  0.499901  0.167733
    C   C109  0.000233  0.499504  0.077835  0.085760
    C   C110  0.999964  0.499412  0.922203  0.086196
    C   C111  0.500034  0.999419  0.077822  0.087933
    C   C112  0.500220  0.999648  0.922188  0.082807
    H   H49   0.001984  0.577715  0.933458  0.119895
    H   H50   0.002700  0.421261  0.066537  0.120015
    H   H51   0.998425  0.421113  0.933855  0.120507
    H   H52   0.998214  0.577832  0.066217  0.120708
    H   H53   0.502462  0.077915  0.933931  0.119806
    H   H54   0.502130  0.921148  0.066108  0.121060
    H   H55   0.498221  0.921325  0.933420  0.119993
    H   H56   0.498200  0.077730  0.066663  0.119942
    C   C113  0.152976  0.556860  0.404744  -0.427264
    H   H57   0.149395  0.522903  0.438002  0.120681
    H   H58   0.126412  0.556879  0.358195  0.105983
    H   H59   0.190177  0.557627  0.380443  0.096328
    C   C114  0.942771  0.348471  0.597357  -0.378640
    H   H60   0.976907  0.351785  0.564438  0.097202
    H   H61   0.942418  0.375713  0.643012  0.099492
    H   H62   0.941975  0.311592  0.622776  0.083622
    C   C115  0.848149  0.442779  0.404312  -0.412369
    H   H63   0.850900  0.476856  0.437444  0.114658
    H   H64   0.875520  0.442918  0.358858  0.099764
    H   H65   0.811417  0.441630  0.378453  0.094362
    C   C116  0.056473  0.653132  0.594198  -0.366702
    H   H66   0.022632  0.650249  0.560569  0.092209
    H   H67   0.055849  0.626233  0.640326  0.097057
    H   H68   0.057562  0.690100  0.619288  0.080707
    C   C117  0.846820  0.556710  0.594967  -0.426717
    H   H69   0.850243  0.522796  0.561574  0.120359
    H   H70   0.873462  0.556506  0.641423  0.105926
    H   H71   0.809668  0.557598  0.619411  0.096056
    C   C118  0.057038  0.348209  0.402958  -0.379799
    H   H72   0.022935  0.351346  0.435978  0.096875
    H   H73   0.057242  0.375472  0.357323  0.099674
    H   H74   0.057938  0.311348  0.377472  0.083995
    C   C119  0.151789  0.442925  0.595403  -0.413703
    H   H75   0.149071  0.476928  0.562073  0.114885
    H   H76   0.124405  0.443155  0.640827  0.099876
    H   H77   0.188512  0.441821  0.621301  0.094578
    C   C120  0.943543  0.653106  0.406035  -0.370828
    H   H78   0.977362  0.649698  0.439609  0.094060
    H   H79   0.943921  0.626492  0.359528  0.097986
    H   H80   0.942758  0.690262  0.381565  0.081174
    C   C121  0.653307  0.056651  0.405471  -0.422882
    H   H81   0.649537  0.022835  0.439021  0.119248
    H   H82   0.627023  0.056431  0.358547  0.105038
    H   H83   0.690668  0.057318  0.381738  0.095074
    C   C122  0.442942  0.848220  0.596960  -0.382838
    H   H84   0.476951  0.850880  0.563591  0.098489
    H   H85   0.443236  0.875690  0.642304  0.100123
    H   H86   0.441794  0.811498  0.622889  0.085094
    C   C123  0.348364  0.942810  0.404041  -0.411582
    H   H87   0.351102  0.976961  0.436987  0.114345
    H   H88   0.375843  0.942769  0.358753  0.099600
    H   H89   0.311712  0.941683  0.377917  0.094197
    C   C124  0.556484  0.153041  0.594245  -0.370637
    H   H90   0.522533  0.149170  0.561115  0.093838
    H   H91   0.556645  0.126603  0.641000  0.098494
    H   H92   0.557044  0.190309  0.618321  0.080891
    C   C125  0.347002  0.056573  0.594862  -0.427784
    H   H93   0.350409  0.022749  0.561244  0.120637
    H   H94   0.373670  0.056275  0.641276  0.105655
    H   H95   0.309869  0.057350  0.619382  0.096590
    C   C126  0.557106  0.848353  0.402768  -0.381771
    H   H96   0.523079  0.851000  0.436057  0.097909
    H   H97   0.556916  0.875948  0.357615  0.100013
    H   H98   0.558224  0.811708  0.376566  0.084732
    C   C127  0.651845  0.942623  0.595897  -0.416391
    H   H99   0.648763  0.976813  0.563097  0.116073
    H   H100  0.624698  0.942418  0.641658  0.101206
    H   H101  0.688726  0.941577  0.621302  0.094908
    C   C128  0.443422  0.153103  0.405774  -0.370545
    H   H102  0.477383  0.149333  0.438942  0.093596
    H   H103  0.443376  0.126726  0.358924  0.098528
    H   H104  0.442743  0.190406  0.381842  0.080993
