# generated using pymatgen
data_CuH17C20NO6
_symmetry_space_group_name_H-M   'P 1'
_cell_length_a   10.88308900
_cell_length_b   13.00012400
_cell_length_c   11.49354200
_cell_angle_alpha   99.76086100
_cell_angle_beta   94.32875000
_cell_angle_gamma   89.99278400
_symmetry_Int_Tables_number   1
_chemical_formula_structural   CuH17C20NO6
_chemical_formula_sum   'Cu2 H34 C40 N2 O12'
_cell_volume   1597.87938639
_cell_formula_units_Z   2
loop_
 _symmetry_equiv_pos_site_id
 _symmetry_equiv_pos_as_xyz
  1  'x, y, z'
loop_
 _atom_site_type_symbol
 _atom_site_label
 _atom_site_symmetry_multiplicity
 _atom_site_fract_x
 _atom_site_fract_y
 _atom_site_fract_z
 _atom_site_occupancy
  Cu  Cu1  1  0.52550700  0.52971100  0.62811800  1
  Cu  Cu2  1  0.49903100  0.51115900  0.39206200  1
  H  H1  1  0.11896700  0.58828600  0.36740500  1
  H  H2  1  0.22962200  0.45131700  0.72938300  1
  H  H3  1  0.89840900  0.31204800  0.79396200  1
  H  H4  1  0.79457300  0.36580400  0.62498600  1
  H  H5  1  0.89552100  0.58653600  0.35608400  1
  H  H6  1  0.49691100  0.83348500  0.35451400  1
  H  H7  1  0.53008400  0.86126900  0.73087900  1
  H  H8  1  0.52909700  0.04993100  0.75089300  1
  H  H9  1  0.49304000  0.17986700  0.28804600  1
  H  H10  1  0.52143300  0.20376800  0.66527200  1
  H  H11  1  0.44800000  0.40189300  0.79682200  1
  H  H12  1  0.39772500  0.33154300  0.96555200  1
  H  H13  1  0.39432800  0.34858700  0.18163100  1
  H  H14  1  0.57620500  0.63872500  0.22547600  1
  H  H15  1  0.80532000  0.61144400  0.80430300  1
  H  H16  1  0.83007000  0.73382100  0.90468900  1
  H  H17  1  0.80595200  0.83717800  0.75275600  1
  H  H18  1  0.92153200  0.73985700  0.71706200  1
  H  H19  1  0.76933300  0.72457500  0.64103000  1
  H  H20  1  0.83291900  0.62817500  0.03987400  1
  H  H21  1  0.77700700  0.62901700  0.18156000  1
  H  H22  1  0.82987600  0.81438200  0.24507200  1
  H  H23  1  0.96316200  0.74058500  0.19861200  1
  H  H24  1  0.88567100  0.82092000  0.10247400  1
  H  H25  1  0.97573500  0.39999100  0.99073700  1
  H  H26  1  0.02444700  0.51061600  0.92682200  1
  H  H27  1  0.21749200  0.52412200  0.05304400  1
  H  H28  1  0.08488000  0.53265700  0.13952800  1
  H  H29  1  0.17028600  0.41256800  0.11685000  1
  H  H30  1  0.34620700  0.04810000  0.15670500  1
  H  H31  1  0.30325000  0.98371900  0.27600200  1
  H  H32  1  0.34999000  0.81227500  0.15823400  1
  H  H33  1  0.23474700  0.88120800  0.08066700  1
  H  H34  1  0.39181500  0.87613800  0.03830300  1
  C  C1  1  0.50941800  0.32027900  0.49092400  1
  C  C2  1  0.27594100  0.51892200  0.51718700  1
  C  C3  1  0.51272200  0.72049900  0.52899800  1
  C  C4  1  0.74811000  0.51441700  0.50279200  1
  C  C5  1  0.13442100  0.43652300  0.70156300  1
  C  C6  1  0.06785000  0.38926100  0.77596100  1
  C  C7  1  0.94855700  0.35778500  0.74238000  1
  C  C8  1  0.88914000  0.39092700  0.64668700  1
  C  C9  1  0.94916500  0.45497500  0.58289200  1
  C  C10  1  0.07661000  0.46835500  0.60134800  1
  C  C11  1  0.14000900  0.51441800  0.52011100  1
  C  C12  1  0.07225100  0.55156900  0.42978900  1
  C  C13  1  0.94529800  0.54958300  0.42208600  1
  C  C14  1  0.88280300  0.50340700  0.49988100  1
  C  C15  1  0.51330700  0.83453000  0.54062300  1
  C  C16  1  0.50809700  0.20574000  0.47853000  1
  C  C17  1  0.49544000  0.03720300  0.35406300  1
  C  C18  1  0.49848100  0.14468300  0.36696800  1
  C  C19  1  0.51549100  0.15779000  0.57730900  1
  C  C20  1  0.51485100  0.05016200  0.56439400  1
  C  C21  1  0.50536500  0.98950600  0.45314300  1
  C  C22  1  0.50451300  0.88152300  0.44130200  1
  C  C23  1  0.52311200  0.89586800  0.65163100  1
  C  C24  1  0.52298900  0.00310000  0.66337000  1
  C  C25  1  0.43706400  0.40005500  0.02265600  1
  C  C26  1  0.43416800  0.41020600  0.14411700  1
  C  C27  1  0.53723800  0.57062000  0.16801200  1
  C  C28  1  0.54871300  0.55945000  0.04729500  1
  C  C29  1  0.49373700  0.47554500  0.97418600  1
  C  C30  1  0.49526900  0.46733700  0.85308100  1
  C  C31  1  0.61024600  0.62330100  0.87594900  1
  C  C32  1  0.61456800  0.63117300  0.99888900  1
  C  C33  1  0.78049400  0.69505500  0.82187400  1
  C  C34  1  0.82179800  0.75231200  0.72664400  1
  C  C35  1  0.78862800  0.67734000  0.11283300  1
  C  C36  1  0.87224300  0.76918300  0.16790800  1
  C  C37  1  0.05583600  0.44176000  0.96555300  1
  C  C38  1  0.13826400  0.48009000  0.07607000  1
  C  C39  1  0.36333100  0.97972400  0.20147700  1
  C  C40  1  0.33292500  0.88070900  0.11370500  1
  N  N1  1  0.54527100  0.54380600  0.80488200  1
  N  N2  1  0.48030900  0.49704800  0.21535400  1
  O  O1  1  0.52611000  0.37740300  0.59687000  1
  O  O2  1  0.49517400  0.36135500  0.39450300  1
  O  O3  1  0.34589800  0.53280800  0.61640600  1
  O  O4  1  0.32246500  0.50936600  0.41333200  1
  O  O5  1  0.52942400  0.67959000  0.62504500  1
  O  O6  1  0.49813600  0.66358800  0.42332800  1
  O  O7  1  0.70175800  0.53034800  0.60618400  1
  O  O8  1  0.67900500  0.50742100  0.40327200  1
  O  O9  1  0.65320600  0.70608400  0.82936100  1
  O  O10  1  0.67452200  0.71401100  0.07144200  1
  O  O11  1  0.12020300  0.37442100  0.88381900  1
  O  O12  1  0.48747100  0.97870700  0.24274400  1
