# Generated by REPEAT Assigner based on pymatgen
data_DB0-m2_o3_o26_f0_pcu.sym.103
_audit_creation_date              2022-05-24
_audit_creation_method            REPEAT_Assigner
_cell_length_a                    17.381157
_cell_length_b                    17.894163
_cell_length_c                    19.322115
_cell_angle_alpha                 89.984277
_cell_angle_beta                  90.013085
_cell_angle_gamma                 86.034243
_cell_volume                      5995.198429
_symmetry_space_group_name_H-M    P1
_symmetry_Int_Tables_number       1
loop_
    _symmetry_equiv_pos_site_id
    _symmetry_equiv_pos_as_xyz
    1  x,y,z
loop_
    _atom_site_type_symbol
    _atom_site_label
    _atom_site_fract_x
    _atom_site_fract_y
    _atom_site_fract_z
    _atom_type_partial_charge
    O   O1   0.501024  0.437946  0.599447  -0.632544
    O   O2   0.497724  0.565552  0.397958  -0.613038
    O   O3   0.494133  0.566701  0.599081  -0.576465
    O   O4   0.505496  0.436804  0.398341  -0.597458
    C   C1   0.497249  0.502517  0.631771  0.728258
    C   C2   0.502379  0.501002  0.365636  0.734513
    O   O5   0.612639  0.431194  0.498414  -0.591541
    O   O6   0.386507  0.572278  0.499393  -0.600501
    O   O7   0.610583  0.559668  0.502685  -0.596684
    O   O8   0.388597  0.443767  0.494405  -0.609483
    C   C3   0.647752  0.493488  0.501367  0.637150
    C   C4   0.351383  0.509903  0.496333  0.700923
    Cu  Cu1  0.500847  0.426948  0.499002  0.909908
    Cu  Cu2  0.498404  0.576530  0.498440  0.869310
    C   C5   0.732245  0.489009  0.503161  -0.055385
    C   C6   0.266832  0.514245  0.494749  -0.107150
    C   C7   0.770912  0.553759  0.506636  -0.078920
    C   C8   0.227993  0.449509  0.490861  -0.039364
    C   C9   0.850325  0.550422  0.508207  -0.222709
    C   C10  0.148295  0.453086  0.489574  -0.228327
    C   C11  0.892300  0.481750  0.505603  0.277753
    C   C12  0.106523  0.521800  0.492298  0.274959
    C   C13  0.853320  0.417133  0.502641  -0.252564
    C   C14  0.145702  0.586273  0.494889  -0.259742
    C   C15  0.773939  0.420501  0.501141  -0.050844
    C   C16  0.225066  0.582775  0.496615  -0.018510
    C   C17  0.977215  0.474046  0.507779  -0.228994
    C   C18  0.021594  0.529582  0.490685  -0.220524
    H   H1   0.739671  0.608093  0.508270  0.107085
    H   H2   0.259396  0.395198  0.488588  0.091155
    H   H3   0.253500  0.634453  0.499618  0.089221
    H   H4   0.745213  0.369027  0.497887  0.101542
    H   H5   0.995644  0.583613  0.475145  0.135059
    H   H6   0.002933  0.419887  0.523297  0.132716
    H   H7   0.884924  0.363036  0.500576  0.130894
    H   H8   0.114447  0.640489  0.496720  0.128762
    H   H9   0.119983  0.401501  0.485022  0.132832
    H   H10  0.878004  0.602361  0.512969  0.128495
    C   C19  0.497254  0.566377  0.252894  -0.112130
    C   C20  0.496211  0.437041  0.744316  -0.084547
    H   H11  0.491801  0.619818  0.279197  0.109420
    H   H12  0.496986  0.383690  0.717996  0.114375
    C   C21  0.498340  0.565132  0.181602  -0.133192
    C   C22  0.495692  0.438027  0.815610  -0.111649
    H   H13  0.493487  0.617538  0.153534  0.114243
    H   H14  0.497444  0.385632  0.843627  0.080515
    C   C23  0.503157  0.497900  0.146129  -0.113966
    C   C24  0.495018  0.504984  0.851138  -0.100112
    C   C25  0.508372  0.430992  0.182895  0.361835
    C   C26  0.492706  0.571822  0.814433  0.369652
    C   C27  0.508539  0.432791  0.254453  -0.168556
    C   C28  0.494197  0.570639  0.743074  -0.245848
    H   H15  0.514933  0.380581  0.282463  0.140877
    H   H16  0.492660  0.623338  0.715601  0.115567
    C   C29  0.502588  0.500169  0.289721  -0.097951
    C   C30  0.496022  0.503313  0.707661  -0.086485
    C   C31  0.447166  0.461133  0.034371  -0.244220
    C   C32  0.550347  0.542377  0.963073  -0.239725
    H   H17  0.405017  0.430798  0.061894  0.138895
    H   H18  0.592163  0.573154  0.935781  0.122009
    C   C33  0.445894  0.462640  0.963037  -0.109538
    C   C34  0.551782  0.540631  0.034303  -0.151538
    H   H19  0.403449  0.432644  0.935453  0.128639
    H   H20  0.593927  0.570770  0.061787  0.104844
    C   C35  0.497022  0.503751  0.927041  0.190204
    C   C36  0.500977  0.499234  0.070279  0.226214
    C   C37  0.547241  0.274567  0.543790  0.092248
    C   C38  0.451743  0.729150  0.453659  0.066175
    H   H21  0.584057  0.302442  0.578952  0.097956
    H   H22  0.414490  0.701708  0.418224  0.117112
    C   C39  0.548018  0.197420  0.544269  -0.241517
    C   C40  0.452035  0.806148  0.453265  -0.231414
    H   H23  0.584836  0.165848  0.580539  0.117044
    H   H24  0.415611  0.837503  0.416966  0.120821
    C   C41  0.500422  0.161424  0.499888  0.156065
    C   C42  0.499565  0.841911  0.497876  0.162050
    C   C43  0.453754  0.204238  0.455105  -0.213544
    C   C44  0.546505  0.798899  0.542247  -0.238149
    H   H25  0.417467  0.178604  0.417915  0.117841
    H   H26  0.583365  0.824861  0.579167  0.116803
    C   C45  0.454708  0.281202  0.455771  0.040922
    C   C46  0.544519  0.722018  0.541483  0.081941
    H   H27  0.418394  0.314286  0.420078  0.140981
    H   H28  0.580714  0.688672  0.576671  0.100996
    N   N1   0.502042  0.315105  0.498963  -0.127342
    N   N2   0.497107  0.688363  0.498268  -0.124705
    C   C47  0.431484  0.045085  0.491834  -0.147048
    C   C48  0.567532  0.958380  0.507763  -0.146764
    H   H29  0.377419  0.078255  0.486267  0.116527
    H   H30  0.621822  0.925360  0.511505  0.117826
    C   C49  0.431364  0.967993  0.490953  -0.140575
    C   C50  0.567675  0.035345  0.508624  -0.146374
    H   H31  0.377108  0.942698  0.484937  0.116116
    H   H32  0.622241  0.060369  0.512736  0.118614
    C   C51  0.499454  0.924067  0.498816  0.068930
    C   C52  0.499732  0.079325  0.500455  0.079139
    N   N3   0.521783  0.361329  0.148641  -0.655338
    C   C53  0.464627  0.314017  0.153586  0.831947
    O   O9   0.412261  0.326321  0.194869  -0.590030
    C   C54  0.463671  0.247289  0.107340  -0.590758
    H   H33  0.553674  0.358858  0.103724  0.293997
    H   H34  0.515336  0.242775  0.073566  0.130624
    H   H35  0.411031  0.252161  0.074712  0.159349
    H   H36  0.462721  0.196019  0.139508  0.164471
    N   N4   0.488603  0.641526  0.848935  -0.560620
    C   C55  0.417159  0.664642  0.871041  0.816039
    O   O10  0.367114  0.620364  0.875270  -0.574027
    C   C56  0.398398  0.744701  0.889641  -0.613064
    H   H37  0.518641  0.683048  0.826900  0.280647
    H   H38  0.450132  0.777293  0.884969  0.128838
    H   H39  0.377270  0.747994  0.943796  0.177530
    H   H40  0.352643  0.768722  0.854529  0.164098
