data_DB0-m3_o11_o28_f0_pcu.sym.66_repeat
_audit_creation_date              2024-02-20
_audit_creation_method            'Materials Studio'
_symmetry_space_group_name_H-M    'P1'
_symmetry_Int_Tables_number       1
_symmetry_cell_setting            triclinic
loop_
_symmetry_equiv_pos_as_xyz
  x,y,z
_cell_length_a                    23.4477
_cell_length_b                    11.1387
_cell_length_c                    9.9078
_cell_angle_alpha                 89.9974
_cell_angle_beta                  89.9814
_cell_angle_gamma                 90.0113
loop_
_atom_site_label
_atom_site_type_symbol
_atom_site_fract_x
_atom_site_fract_y
_atom_site_fract_z
_atom_site_U_iso_or_equiv
_atom_site_adp_type
_atom_site_occupancy
O1     O     0.50046   0.31029   0.64648   0.00000  Uiso   1.00
O2     O     0.50233   0.30921   0.41402   0.00000  Uiso   1.00
C1     C     0.50123   0.25367   0.53059   0.00000  Uiso   1.00
O3     O     0.41524   0.48920   0.63670   0.00000  Uiso   1.00
O4     O     0.41714   0.48786   0.40431   0.00000  Uiso   1.00
C2     C     0.38945   0.48839   0.51939   0.00000  Uiso   1.00
Zn1    Zn    0.49963   0.48961   0.68030   0.00000  Uiso   1.00
Zn2    Zn    0.50257   0.48748   0.37329   0.00000  Uiso   1.00
O5     O     0.50047   0.66776   0.64007   0.00000  Uiso   1.00
O6     O     0.50235   0.66712   0.40665   0.00000  Uiso   1.00
O7     O     0.58510   0.48943   0.64966   0.00000  Uiso   1.00
O8     O     0.58700   0.48808   0.41648   0.00000  Uiso   1.00
C3     C     0.50125   0.72332   0.52352   0.00000  Uiso   1.00
C4     C     0.61273   0.48867   0.53416   0.00000  Uiso   1.00
C5     C     0.88392   0.57414   0.59121   0.00000  Uiso   1.00
N1     N     0.85446   0.48279   0.53556   0.00000  Uiso   1.00
C6     C     0.88207   0.39068   0.47618   0.00000  Uiso   1.00
C7     C     0.94110   0.38903   0.47082   0.00000  Uiso   1.00
C8     C     0.97177   0.48140   0.52650   0.00000  Uiso   1.00
C9     C     0.94291   0.57467   0.58758   0.00000  Uiso   1.00
C10    C     0.96934   0.29560   0.40909   0.00000  Uiso   1.00
C11    C     0.02825   0.29267   0.40172   0.00000  Uiso   1.00
C12    C     0.06011   0.38688   0.45959   0.00000  Uiso   1.00
C13    C     0.03078   0.48081   0.52099   0.00000  Uiso   1.00
C14    C     0.06055   0.57521   0.57761   0.00000  Uiso   1.00
C15    C     0.03160   0.66886   0.63841   0.00000  Uiso   1.00
C16    C     0.97306   0.66863   0.64351   0.00000  Uiso   1.00
C17    C     0.11998   0.39102   0.46036   0.00000  Uiso   1.00
N2     N     0.14773   0.48502   0.51561   0.00000  Uiso   1.00
C18    C     0.11925   0.57627   0.57325   0.00000  Uiso   1.00
O9     O     0.85567   0.66662   0.64706   0.00000  Uiso   1.00
O10    O     0.85193   0.29910   0.42408   0.00000  Uiso   1.00
H1     H     0.94501   0.22402   0.36349   0.00000  Uiso   1.00
O11    O     0.15155   0.30086   0.41075   0.00000  Uiso   1.00
O12    O     0.14834   0.66945   0.62508   0.00000  Uiso   1.00
H2     H     0.05409   0.74355   0.68320   0.00000  Uiso   1.00
H3     H     0.95163   0.74297   0.69181   0.00000  Uiso   1.00
C19    C     0.23860   0.48722   0.39589   0.00000  Uiso   1.00
H4     H     0.21605   0.48818   0.30072   0.00000  Uiso   1.00
C20    C     0.29745   0.48809   0.39656   0.00000  Uiso   1.00
H5     H     0.31992   0.48896   0.30133   0.00000  Uiso   1.00
C21    C     0.32687   0.48799   0.51757   0.00000  Uiso   1.00
C22    C     0.29671   0.48722   0.63761   0.00000  Uiso   1.00
H6     H     0.31848   0.48681   0.73370   0.00000  Uiso   1.00
C23    C     0.23795   0.48643   0.63663   0.00000  Uiso   1.00
H7     H     0.21495   0.48456   0.73120   0.00000  Uiso   1.00
C24    C     0.20862   0.48629   0.51592   0.00000  Uiso   1.00
C25    C     0.76401   0.48475   0.41577   0.00000  Uiso   1.00
H8     H     0.78681   0.48445   0.32091   0.00000  Uiso   1.00
C26    C     0.70527   0.48638   0.41537   0.00000  Uiso   1.00
H9     H     0.68338   0.48627   0.31943   0.00000  Uiso   1.00
C27    C     0.67532   0.48804   0.53568   0.00000  Uiso   1.00
C28    C     0.70496   0.48859   0.65640   0.00000  Uiso   1.00
H10    H     0.68265   0.48970   0.75184   0.00000  Uiso   1.00
C29    C     0.76383   0.48725   0.65648   0.00000  Uiso   1.00
H11    H     0.78653   0.48643   0.75145   0.00000  Uiso   1.00
C30    C     0.79358   0.48493   0.53613   0.00000  Uiso   1.00
C31    C     0.50217   0.92318   0.41769   0.00000  Uiso   1.00
C32    C     0.50131   0.85474   0.52863   0.00000  Uiso   1.00
H12    H     0.50288   0.88038   0.31950   0.00000  Uiso   1.00
H13    H     0.50056   0.89313   0.62851   0.00000  Uiso   1.00
C33    C     0.50215   0.05629   0.42052   0.00000  Uiso   1.00
C34    C     0.50133   0.12212   0.53390   0.00000  Uiso   1.00
H14    H     0.50280   0.10152   0.32373   0.00000  Uiso   1.00
H15    H     0.50065   0.08186   0.63289   0.00000  Uiso   1.00
C35    C     0.53147   0.55969   0.95114   0.00000  Uiso   1.00
N3     N     0.49727   0.49369   0.88205   0.00000  Uiso   1.00
H16    H     0.56320   0.61330   0.89916   0.00000  Uiso   1.00
H17    H     0.46309   0.45717   0.93223   0.00000  Uiso   1.00
C36    C     0.52680   0.56975   0.09973   0.00000  Uiso   1.00
N4     N     0.50573   0.48456   0.17156   0.00000  Uiso   1.00
H18    H     0.54380   0.64889   0.14899   0.00000  Uiso   1.00
H19    H     0.49700   0.40529   0.12286   0.00000  Uiso   1.00
C37    C     0.05317   0.18707   0.32776   0.00000  Uiso   1.00
C38    C     0.07172   0.22334   0.18633   0.00000  Uiso   1.00
C39    C     0.10275   0.12007   0.11901   0.00000  Uiso   1.00
H20    H     0.14198   0.09827   0.17649   0.00000  Uiso   1.00
H21    H     0.07459   0.04013   0.11528   0.00000  Uiso   1.00
H22    H     0.11460   0.14628   0.01472   0.00000  Uiso   1.00
H23    H     0.03333   0.24600   0.12616   0.00000  Uiso   1.00
H24    H     0.09997   0.30293   0.18867   0.00000  Uiso   1.00
H25    H     0.08759   0.14293   0.38576   0.00000  Uiso   1.00
H26    H     0.02013   0.11676   0.31602   0.00000  Uiso   1.00
