# generated using pymatgen
data_ZnH19C23N7O4
_symmetry_space_group_name_H-M   'P 1'
_cell_length_a   15.27665900
_cell_length_b   11.96046300
_cell_length_c   9.39884300
_cell_angle_alpha   90.16330400
_cell_angle_beta   89.99690000
_cell_angle_gamma   90.00000000
_symmetry_Int_Tables_number   1
_chemical_formula_structural   ZnH19C23N7O4
_chemical_formula_sum   'Zn2 H38 C46 N14 O8'
_cell_volume   1717.31121827
_cell_formula_units_Z   2
loop_
 _symmetry_equiv_pos_site_id
 _symmetry_equiv_pos_as_xyz
  1  'x, y, z'
loop_
 _atom_site_type_symbol
 _atom_site_label
 _atom_site_symmetry_multiplicity
 _atom_site_fract_x
 _atom_site_fract_y
 _atom_site_fract_z
 _atom_site_occupancy
  Zn  Zn1  1  0.49913800  0.49608100  0.84059100  1
  Zn  Zn2  1  0.49935500  0.50434000  0.15822600  1
  H  H1  1  0.32847700  0.79796200  0.19763700  1
  H  H2  1  0.67003700  0.20252300  0.80111500  1
  H  H3  1  0.12705100  0.80348500  0.79003100  1
  H  H4  1  0.87149400  0.19691300  0.20867200  1
  H  H5  1  0.20793900  0.05784000  0.82011300  1
  H  H6  1  0.78992700  0.94344100  0.17758500  1
  H  H7  1  0.99908100  0.79658600  0.97182900  1
  H  H8  1  0.99947400  0.20376600  0.02711300  1
  H  H9  1  0.50264600  0.28616800  0.75188900  1
  H  H10  1  0.49563400  0.71443100  0.24713600  1
  H  H11  1  0.51821300  0.12217000  0.62752000  1
  H  H12  1  0.48137300  0.87861000  0.37253400  1
  H  H13  1  0.50524700  0.28781400  0.24372200  1
  H  H14  1  0.49330600  0.71404000  0.75549400  1
  H  H15  1  0.24791100  0.93300200  0.30076800  1
  H  H16  1  0.13959100  0.91900900  0.27178500  1
  H  H17  1  0.75056600  0.06746100  0.69795200  1
  H  H18  1  0.85889300  0.08140300  0.72690600  1
  H  H19  1  0.53489000  0.90953000  0.71500400  1
  H  H20  1  0.42442600  0.89837900  0.71577500  1
  H  H21  1  0.58258900  0.06035700  0.38128600  1
  H  H22  1  0.52454600  0.10924900  0.24218000  1
  H  H23  1  0.25776300  0.70294400  0.66992500  1
  H  H24  1  0.19394300  0.60882400  0.75494600  1
  H  H25  1  0.74080300  0.29745100  0.32882600  1
  H  H26  1  0.80462400  0.39158400  0.24383000  1
  H  H27  1  0.30576800  0.33079400  0.29819000  1
  H  H28  1  0.25547400  0.42943400  0.19212800  1
  H  H29  1  0.69352500  0.66810700  0.70099600  1
  H  H30  1  0.74336800  0.56998100  0.80833700  1
  H  H31  1  0.37354600  0.09782300  0.78393800  1
  H  H32  1  0.31340300  0.19211100  0.69253600  1
  H  H33  1  0.62370200  0.90382700  0.21123900  1
  H  H34  1  0.68368100  0.81089900  0.30524800  1
  H  H35  1  0.14813200  0.18626400  0.33535300  1
  H  H36  1  0.08682600  0.28217300  0.24712500  1
  H  H37  1  0.85095600  0.81268600  0.66369700  1
  H  H38  1  0.91217300  0.71720500  0.75282200  1
  C  C1  1  0.29858700  0.72821000  0.99417100  1
  C  C2  1  0.69995700  0.27225700  0.00458200  1
  C  C3  1  0.07783300  0.94226900  0.99326300  1
  C  C4  1  0.92067300  0.05810700  0.00542900  1
  C  C5  1  0.21494100  0.87460100  0.10592400  1
  C  C6  1  0.78357200  0.12585000  0.89278500  1
  C  C7  1  0.24192300  0.73114400  0.87875600  1
  C  C8  1  0.75663100  0.26929600  0.11998100  1
  C  C9  1  0.28470500  0.80037600  0.10736800  1
  C  C10  1  0.71382000  0.20009500  0.89137100  1
  C  C11  1  0.15835300  0.87590100  0.99103500  1
  C  C12  1  0.84017500  0.12453000  0.00765100  1
  C  C13  1  0.17217500  0.80396000  0.87865800  1
  C  C14  1  0.82637000  0.19646600  0.12004600  1
  C  C15  1  0.30332000  0.26558000  0.00959300  1
  C  C16  1  0.69518100  0.73473800  0.98909300  1
  C  C17  1  0.07825800  0.05694200  0.01279600  1
  C  C18  1  0.92024100  0.94341500  0.98585900  1
  C  C19  1  0.21897100  0.11560800  0.90694200  1
  C  C20  1  0.77919100  0.88524800  0.09112100  1
  C  C21  1  0.24416800  0.26899000  0.12325200  1
  C  C22  1  0.75462600  0.73076400  0.87589800  1
  C  C23  1  0.28988800  0.18733900  0.90219400  1
  C  C24  1  0.70823900  0.81357300  0.09583300  1
  C  C25  1  0.15973200  0.12169000  0.01725700  1
  C  C26  1  0.83876700  0.87862200  0.98131500  1
  C  C27  1  0.17311900  0.19755800  0.12562100  1
  C  C28  1  0.82564200  0.80224900  0.87339900  1
  C  C29  1  0.99899600  0.88673200  0.98001700  1
  C  C30  1  0.99951800  0.11362700  0.01876600  1
  C  C31  1  0.62119900  0.65486800  0.99808500  1
  C  C32  1  0.37725200  0.34557100  0.00068700  1
  C  C33  1  0.62701600  0.35261600  0.00044000  1
  C  C34  1  0.37152700  0.64785500  0.99834300  1
  C  C35  1  0.50562100  0.29817200  0.64101800  1
  C  C36  1  0.49299900  0.70234400  0.35804000  1
  C  C37  1  0.51371100  0.19962800  0.56940700  1
  C  C38  1  0.48577600  0.80090500  0.43008800  1
  C  C39  1  0.51475600  0.19931800  0.42582600  1
  C  C40  1  0.48554700  0.80052400  0.57364600  1
  C  C41  1  0.50746800  0.29864800  0.35442200  1
  C  C42  1  0.49176200  0.70147100  0.64469000  1
  C  C43  1  0.50349700  0.40288500  0.42334300  1
  C  C44  1  0.49522000  0.59736500  0.57562400  1
  C  C45  1  0.50229500  0.40200700  0.57318200  1
  C  C46  1  0.49631000  0.59834700  0.42573400  1
  N  N1  1  0.50089700  0.50146800  0.34810800  1
  N  N2  1  0.49759300  0.49884800  0.65073700  1
  N  N3  1  0.19841100  0.94488200  0.22584400  1
  N  N4  1  0.80007000  0.05555900  0.77286200  1
  N  N5  1  0.47953500  0.90295400  0.65034600  1
  N  N6  1  0.52279400  0.09557300  0.35170300  1
  N  N7  1  0.25151400  0.65551800  0.76246400  1
  N  N8  1  0.74705000  0.34489700  0.23630200  1
  N  N9  1  0.25136900  0.34927400  0.23534700  1
  N  N10  1  0.74771300  0.64989100  0.76444100  1
  N  N11  1  0.34911200  0.17930500  0.78579400  1
  N  N12  1  0.64841400  0.82248300  0.21128400  1
  N  N13  1  0.11326600  0.20175100  0.24190500  1
  N  N14  1  0.88568400  0.79762300  0.75739500  1
  O  O1  1  0.59405700  0.61958100  0.12337000  1
  O  O2  1  0.40437400  0.38093900  0.87548800  1
  O  O3  1  0.58823800  0.61669800  0.87878600  1
  O  O4  1  0.41026000  0.38372300  0.11993600  1
  O  O5  1  0.59610800  0.38511500  0.87690400  1
  O  O6  1  0.40238900  0.61531900  0.12193800  1
  O  O7  1  0.59594100  0.39002600  0.12115500  1
  O  O8  1  0.40264900  0.61053400  0.87757700  1
