# Generated by REPEAT Assigner based on pymatgen
data_DB0-m29_o97_o42_f0_pts.sym.40
_audit_creation_date              2022-05-24
_audit_creation_method            REPEAT_Assigner
_cell_length_a                    17.751485
_cell_length_b                    9.416782
_cell_length_c                    15.111394
_cell_angle_alpha                 87.543900
_cell_angle_beta                  79.600067
_cell_angle_gamma                 106.271440
_cell_volume                      2373.325147
_symmetry_space_group_name_H-M    P1
_symmetry_Int_Tables_number       1
loop_
    _symmetry_equiv_pos_site_id
    _symmetry_equiv_pos_as_xyz
    1  x,y,z
loop_
    _atom_site_type_symbol
    _atom_site_label
    _atom_site_fract_x
    _atom_site_fract_y
    _atom_site_fract_z
    _atom_type_partial_charge
    C   C1   0.229140  0.025823  0.156803  -0.113122
    C   C2   0.094862  0.043047  0.197187  -0.119346
    C   C3   0.290496  0.005738  0.093271  -0.060868
    C   C4   0.279906  0.982700  0.005525  -0.053553
    C   C5   0.156585  0.023481  0.133812  0.140098
    C   C6   0.144023  0.994108  0.047963  0.013543
    C   C7   0.204065  0.965017  0.985937  0.078121
    C   C8   0.186083  0.912625  0.906094  -0.115034
    C   C9   0.024462  0.046488  0.173432  -0.174675
    C   C10  0.012999  0.029026  0.085543  0.044960
    C   C11  0.071580  0.994045  0.024036  0.020537
    C   C12  0.057974  0.958527  0.938927  0.033731
    C   C13  0.114522  0.909105  0.882954  -0.119728
    C   C14  0.887210  0.091354  0.115229  -0.130986
    C   C15  0.942736  0.038873  0.059676  0.056188
    C   C16  0.929010  0.003217  0.974839  0.012953
    C   C17  0.986865  0.965479  0.913468  0.067460
    C   C18  0.973057  0.940357  0.826732  -0.174418
    C   C19  0.815725  0.089519  0.092283  -0.108282
    C   C20  0.797264  0.036390  0.012794  0.088733
    C   C21  0.856819  0.004855  0.951341  -0.016923
    C   C22  0.843577  0.973172  0.866502  0.248011
    C   C23  0.721508  0.019703  0.992790  -0.083287
    C   C24  0.711097  0.995772  0.905003  0.064049
    C   C25  0.902119  0.943744  0.804126  -0.181761
    C   C26  0.772305  0.973035  0.842828  -0.287025
    H   H1   0.098593  0.053741  0.267129  0.093581
    H   H2   0.225454  0.866133  0.861392  0.129714
    H   H3   0.978799  0.057209  0.227840  0.155853
    H   H4   0.105381  0.862367  0.820784  0.120467
    H   H5   0.897711  0.140101  0.176580  0.120376
    H   H6   0.016327  0.921071  0.772744  0.147498
    H   H7   0.776946  0.137737  0.136590  0.127193
    H   H8   0.892808  0.922732  0.736569  0.145965
    H   H9   0.762632  0.948496  0.775826  0.160271
    O   O1   0.585036  0.025652  0.049496  -0.525751
    C   C27  0.651551  0.006080  0.066275  0.589820
    O   O2   0.505930  0.709101  0.151156  -0.500944
    O   O3   0.652107  0.958076  0.148884  -0.496462
    O   O4   0.499815  0.854466  0.266211  -0.575351
    C   C28  0.502231  0.725513  0.237492  0.619251
    Fe  Fe1  0.506084  0.999107  0.164015  1.444231
    O   O5   0.397079  0.920289  0.134602  -0.631847
    O   O6   0.410304  0.168130  0.125874  -0.527415
    C   C29  0.368830  0.031795  0.118084  0.780440
    O   O7   0.539066  0.202673  0.205843  -0.630291
    O   O8   0.460617  0.086391  0.339780  -0.419659
    C   C30  0.504983  0.208402  0.289495  0.538259
    O   O9   0.465032  0.807399  0.788091  -0.631220
    O   O10  0.559724  0.927808  0.665288  -0.501143
    C   C31  0.508954  0.804920  0.708865  0.574131
    O   O11  0.604776  0.085026  0.865871  -0.636788
    O   O12  0.593958  0.838625  0.864593  -0.525203
    C   C32  0.633744  0.972941  0.878367  0.691852
    O   O13  0.349253  0.047711  0.849500  -0.518086
    O   O14  0.503913  0.157000  0.733640  -0.576180
    C   C33  0.495034  0.281469  0.763702  0.619857
    O   O15  0.416147  0.976000  0.947800  -0.567783
    C   C34  0.349842  0.997585  0.931653  0.604556
    O   O16  0.487035  0.295192  0.850699  -0.491524
    Fe  Fe2  0.496587  0.008140  0.833932  1.500250
    C   C35  0.504398  0.601838  0.299670  0.031814
    C   C36  0.501292  0.615065  0.391312  -0.168820
    H   H10  0.493840  0.717034  0.415150  0.141757
    C   C37  0.506094  0.499299  0.449662  0.106725
    C   C38  0.509497  0.367696  0.413166  -0.229676
    H   H11  0.513848  0.273313  0.452006  0.100248
    C   C39  0.509262  0.352680  0.323237  0.193792
    C   C40  0.509141  0.470173  0.265968  -0.255815
    C   C41  0.497824  0.391645  0.609639  -0.163930
    H   H12  0.491425  0.281765  0.589478  0.173874
    C   C42  0.496631  0.406764  0.700689  0.016277
    C   C43  0.496762  0.541124  0.732876  -0.235176
    C   C44  0.505845  0.662422  0.673713  0.173452
    C   C45  0.513990  0.650938  0.582286  -0.281032
    H   H13  0.525066  0.752063  0.539878  0.157564
    C   C46  0.505782  0.513693  0.548338  0.099211
    H   H14  0.509242  0.455936  0.195403  0.220080
    H   H15  0.493775  0.554287  0.803970  0.218223
    C   C47  0.244918  0.059692  0.246576  0.224210
    C   C48  0.259403  0.954463  0.302220  -0.265971
    C   C49  0.273331  0.985312  0.387230  -0.205791
    C   C50  0.273365  0.122177  0.416664  0.305066
    C   C51  0.287028  0.156137  0.508815  -0.397885
    C   C52  0.260306  0.228306  0.360439  -0.237979
    C   C53  0.246389  0.197399  0.275456  -0.108771
    H   H16  0.258524  0.846613  0.279836  0.151137
    H   H17  0.283662  0.901236  0.430509  0.148425
    H   H18  0.297082  0.059996  0.544698  0.110838
    H   H19  0.233839  0.181100  0.547860  0.090482
    H   H20  0.340257  0.254211  0.503346  0.120344
    H   H21  0.260660  0.335801  0.383084  0.128903
    H   H22  0.236115  0.280918  0.231680  0.101127
