data_DB0-m3_o12_o25_f0_pcu.sym.64_repeat
_audit_creation_date              2024-02-23
_audit_creation_method            'Materials Studio'
_symmetry_space_group_name_H-M    'P1'
_symmetry_Int_Tables_number       1
_symmetry_cell_setting            triclinic
loop_
_symmetry_equiv_pos_as_xyz
  x,y,z
_cell_length_a                    10.0080
_cell_length_b                    11.2477
_cell_length_c                    16.0075
_cell_angle_alpha                 89.9896
_cell_angle_beta                  80.7932
_cell_angle_gamma                 92.4473
loop_
_atom_site_label
_atom_site_type_symbol
_atom_site_fract_x
_atom_site_fract_y
_atom_site_fract_z
_atom_site_U_iso_or_equiv
_atom_site_adp_type
_atom_site_occupancy
O1     O     0.42654   0.69109   0.50779   0.00000  Uiso   1.00
O2     O     0.57588   0.30964   0.49197   0.00000  Uiso   1.00
O3     O     0.65613   0.65988   0.48361   0.00000  Uiso   1.00
O4     O     0.34629   0.34084   0.51615   0.00000  Uiso   1.00
C1     C     0.55358   0.73032   0.49442   0.00000  Uiso   1.00
C2     C     0.44884   0.27041   0.50534   0.00000  Uiso   1.00
O5     O     0.38863   0.51587   0.63613   0.00000  Uiso   1.00
O6     O     0.61379   0.48486   0.36363   0.00000  Uiso   1.00
O7     O     0.61831   0.48462   0.61209   0.00000  Uiso   1.00
O8     O     0.38411   0.51611   0.38767   0.00000  Uiso   1.00
C3     C     0.50390   0.50025   0.66284   0.00000  Uiso   1.00
C4     C     0.49852   0.50048   0.33692   0.00000  Uiso   1.00
Zn1    Zn    0.34988   0.52110   0.51582   0.00000  Uiso   1.00
Zn2    Zn    0.65255   0.47962   0.48394   0.00000  Uiso   1.00
C5     C     0.45324   0.59885   0.03153   0.00000  Uiso   1.00
C6     C     0.54917   0.40188   0.96823   0.00000  Uiso   1.00
C7     C     0.57927   0.59202   0.96545   0.00000  Uiso   1.00
C8     C     0.42315   0.40871   0.03431   0.00000  Uiso   1.00
H1     H     0.64262   0.66859   0.93548   0.00000  Uiso   1.00
H2     H     0.35980   0.33214   0.06428   0.00000  Uiso   1.00
H3     H     0.73074   0.48138   0.02986   0.00000  Uiso   1.00
H4     H     0.27168   0.51935   0.96990   0.00000  Uiso   1.00
C9     C     0.50457   0.50047   0.75241   0.00000  Uiso   1.00
C10    C     0.49785   0.50026   0.24734   0.00000  Uiso   1.00
C11    C     0.37546   0.50999   0.98437   0.00000  Uiso   1.00
C12    C     0.62696   0.49073   0.01538   0.00000  Uiso   1.00
C13    C     0.50223   0.50157   0.91932   0.00000  Uiso   1.00
C14    C     0.50019   0.49916   0.08044   0.00000  Uiso   1.00
C15    C     0.50397   0.50088   0.82775   0.00000  Uiso   1.00
C16    C     0.49845   0.49985   0.17201   0.00000  Uiso   1.00
H5     H     0.62330   0.09545   0.48705   0.00000  Uiso   1.00
H6     H     0.37912   0.90527   0.51271   0.00000  Uiso   1.00
C17    C     0.58342   0.85912   0.49128   0.00000  Uiso   1.00
C18    C     0.41900   0.14161   0.50847   0.00000  Uiso   1.00
C19    C     0.48453   0.93619   0.50164   0.00000  Uiso   1.00
C20    C     0.51789   0.06454   0.49811   0.00000  Uiso   1.00
H7     H     0.31414   0.10898   0.51949   0.00000  Uiso   1.00
H8     H     0.68828   0.89175   0.48027   0.00000  Uiso   1.00
H9     H     0.11793   0.42833   0.44635   0.00000  Uiso   1.00
H10    H     0.88449   0.57240   0.55341   0.00000  Uiso   1.00
N1     N     0.85113   0.45170   0.46257   0.00000  Uiso   1.00
N2     N     0.15130   0.54903   0.53719   0.00000  Uiso   1.00
C21    C     0.92805   0.50963   0.50646   0.00000  Uiso   1.00
C22    C     0.07437   0.49110   0.49329   0.00000  Uiso   1.00
H11    H     0.10400   0.60741   0.58054   0.00000  Uiso   1.00
H12    H     0.89842   0.39332   0.41922   0.00000  Uiso   1.00
C23    C     0.39790   0.71221   0.07233   0.00000  Uiso   1.00
C24    C     0.35935   0.79496   0.00596   0.00000  Uiso   1.00
C25    C     0.30430   0.90773   0.04753   0.00000  Uiso   1.00
H13    H     0.21306   0.88543   0.09487   0.00000  Uiso   1.00
H14    H     0.38262   0.95364   0.07916   0.00000  Uiso   1.00
H15    H     0.27651   0.96755   0.99857   0.00000  Uiso   1.00
H16    H     0.44975   0.81863   0.95835   0.00000  Uiso   1.00
H17    H     0.28046   0.75050   0.97409   0.00000  Uiso   1.00
H18    H     0.30720   0.68919   0.11993   0.00000  Uiso   1.00
H19    H     0.47643   0.75733   0.10421   0.00000  Uiso   1.00
C26    C     0.60452   0.28852   0.92743   0.00000  Uiso   1.00
C27    C     0.64308   0.20577   0.99380   0.00000  Uiso   1.00
C28    C     0.69811   0.09300   0.95223   0.00000  Uiso   1.00
H20    H     0.61978   0.04708   0.92061   0.00000  Uiso   1.00
H21    H     0.78935   0.11529   0.90488   0.00000  Uiso   1.00
H22    H     0.72591   0.03318   0.00119   0.00000  Uiso   1.00
H23    H     0.72197   0.25023   0.02566   0.00000  Uiso   1.00
H24    H     0.55268   0.18210   0.04141   0.00000  Uiso   1.00
H25    H     0.52599   0.24340   0.89555   0.00000  Uiso   1.00
H26    H     0.69522   0.31154   0.87983   0.00000  Uiso   1.00
