# Generated by REPEAT Assigner based on pymatgen
data_DB0-m3_o2_o7_f0_pcu.sym.55_sqe
_audit_creation_date              2022-05-24
_audit_creation_method            REPEAT_Assigner
_cell_length_a                    15.214268
_cell_length_b                    13.998068
_cell_length_c                    17.920027
_cell_angle_alpha                 90.000000
_cell_angle_beta                  89.995297
_cell_angle_gamma                 90.000000
_cell_volume                      3816.434840
_symmetry_space_group_name_H-M    P1
_symmetry_Int_Tables_number       1
loop_
    _symmetry_equiv_pos_site_id
    _symmetry_equiv_pos_as_xyz
    1  x,y,z
loop_
    _atom_site_type_symbol
    _atom_site_label
    _atom_site_fract_x
    _atom_site_fract_y
    _atom_site_fract_z
    _atom_type_partial_charge
    O   O1   0.369036  0.582406  0.499066  -0.620355
    O   O2   0.630963  0.418189  0.499064  -0.618569
    O   O3   0.630963  0.582406  0.500934  -0.620355
    O   O4   0.369036  0.418189  0.500936  -0.618566
    C   C1   0.327805  0.500298  0.500002  0.614773
    C   C2   0.672194  0.500298  0.499998  0.614775
    O   O5   0.501142  0.582145  0.388824  -0.618913
    O   O6   0.501121  0.418450  0.611176  -0.616433
    O   O7   0.498857  0.582145  0.611176  -0.618896
    O   O8   0.498878  0.418450  0.388824  -0.616451
    C   C3   0.500013  0.500297  0.352955  0.741321
    C   C4   0.499986  0.500297  0.647045  0.741286
    Zn  Zn1  0.500000  0.608528  0.500000  1.008610
    Zn  Zn2  0.500000  0.392067  0.500000  0.998494
    C   C5   0.516488  0.582947  0.847898  -0.330845
    C   C6   0.516513  0.417642  0.152101  -0.331556
    C   C7   0.483511  0.582947  0.152102  -0.330849
    C   C8   0.483486  0.417642  0.847899  -0.331551
    H   H1   0.530377  0.647780  0.878474  0.142025
    H   H2   0.530399  0.352807  0.121524  0.142429
    H   H3   0.469622  0.647780  0.121526  0.142025
    H   H4   0.469600  0.352807  0.878476  0.142431
    C   C9   0.517829  0.584003  0.770941  0.171975
    C   C10  0.517863  0.416589  0.229058  0.172832
    C   C11  0.482170  0.584003  0.229059  0.171973
    C   C12  0.482136  0.416589  0.770942  0.172828
    C   C13  0.499982  0.500297  0.730352  -0.255003
    C   C14  0.500017  0.500297  0.269648  -0.255013
    C   C15  0.499991  0.500293  0.886314  0.345526
    C   C16  0.500009  0.500293  0.113685  0.345540
    C   C17  0.499997  0.500291  0.966382  -0.150433
    C   C18  0.500002  0.500291  0.033618  -0.150448
    C   C19  0.095025  0.582232  0.481918  -0.236275
    C   C20  0.904978  0.418364  0.481918  -0.235697
    C   C21  0.904974  0.582232  0.518082  -0.236265
    C   C22  0.095021  0.418364  0.518082  -0.235712
    H   H5   0.061655  0.646864  0.465251  0.140628
    H   H6   0.938351  0.353732  0.465250  0.140472
    H   H7   0.938344  0.646864  0.534749  0.140628
    H   H8   0.061648  0.353732  0.534750  0.140476
    C   C23  0.185637  0.582506  0.483006  -0.070233
    C   C24  0.814366  0.418089  0.483004  -0.070337
    C   C25  0.814362  0.582506  0.516994  -0.070243
    C   C26  0.185633  0.418089  0.516996  -0.070323
    H   H9   0.220033  0.647489  0.468891  0.126611
    H   H10  0.779973  0.353107  0.468890  0.126175
    H   H11  0.779966  0.647489  0.531109  0.126611
    H   H12  0.220026  0.353107  0.531110  0.126169
    C   C27  0.231472  0.500298  0.500001  -0.032308
    C   C28  0.768528  0.500298  0.499999  -0.032296
    C   C29  0.048562  0.500298  0.500000  0.138241
    C   C30  0.951437  0.500298  0.500000  0.138228
    C   C31  0.426863  0.102945  0.476914  -0.222111
    C   C32  0.573142  0.897650  0.476917  -0.222780
    C   C33  0.573136  0.102945  0.523086  -0.222104
    C   C34  0.426857  0.897650  0.523083  -0.222792
    H   H13  0.369009  0.066112  0.457026  0.110500
    H   H14  0.631001  0.934483  0.457032  0.110752
    H   H15  0.630990  0.066112  0.542973  0.110495
    H   H16  0.368998  0.934483  0.542968  0.110758
    C   C35  0.428164  0.201400  0.476825  0.168330
    C   C36  0.571841  0.799195  0.476827  0.169114
    C   C37  0.571835  0.201400  0.523175  0.168333
    C   C38  0.428158  0.799195  0.523173  0.169116
    H   H17  0.371070  0.240089  0.457623  0.052754
    H   H18  0.628939  0.760506  0.457628  0.052344
    H   H19  0.628929  0.240089  0.542377  0.052750
    H   H20  0.371060  0.760506  0.542372  0.052345
    N   N1   0.500000  0.249146  0.500000  -0.119736
    N   N2   0.500000  0.751449  0.500000  -0.123111
    C   C39  0.500000  0.052700  0.500000  0.166949
    C   C40  0.500000  0.947895  0.500000  0.168576
    C   C41  0.540469  0.675692  0.736699  0.100027
    C   C42  0.623680  0.690950  0.708272  -0.063347
    C   C43  0.646404  0.779754  0.680983  0.015882
    Cl  Cl1  0.752365  0.799982  0.646359  -0.107770
    C   C44  0.586176  0.853317  0.682131  -0.087763
    C   C45  0.503426  0.838439  0.711154  -0.148809
    C   C46  0.480866  0.749975  0.739003  -0.148990
    H   H21  0.671346  0.633685  0.708232  0.084221
    H   H22  0.604043  0.922868  0.660745  0.089029
    H   H23  0.456432  0.896334  0.712521  0.118280
    H   H24  0.416307  0.738809  0.762633  0.107311
    C   C47  0.540509  0.324903  0.263298  0.097733
    C   C48  0.623718  0.309656  0.291722  -0.060608
    C   C49  0.646447  0.220856  0.319011  0.015192
    Cl  Cl2  0.752406  0.200642  0.353631  -0.107857
    C   C50  0.586227  0.147286  0.317869  -0.087846
    C   C51  0.503479  0.162152  0.288849  -0.148364
    C   C52  0.480914  0.250613  0.261000  -0.149085
    H   H25  0.671378  0.366927  0.291758  0.083418
    H   H26  0.604098  0.077738  0.339256  0.089039
    H   H27  0.456491  0.104252  0.287485  0.118118
    H   H28  0.416357  0.261770  0.237373  0.107368
    C   C53  0.459530  0.675692  0.263301  0.100020
    C   C54  0.376319  0.690950  0.291728  -0.063329
    C   C55  0.353595  0.779754  0.319016  0.015868
    Cl  Cl3  0.247634  0.799982  0.353641  -0.107774
    C   C56  0.413823  0.853317  0.317869  -0.087755
    C   C57  0.496573  0.838439  0.288846  -0.148820
    C   C58  0.519133  0.749975  0.260997  -0.148972
    H   H29  0.328653  0.633685  0.291767  0.084220
    H   H30  0.395956  0.922868  0.339254  0.089031
    H   H31  0.543567  0.896335  0.287479  0.118281
    H   H32  0.583692  0.738810  0.237367  0.107305
    C   C59  0.459490  0.324903  0.736702  0.097733
    C   C60  0.376282  0.309656  0.708278  -0.060600
    C   C61  0.353552  0.220856  0.680989  0.015181
    Cl  Cl4  0.247593  0.200642  0.646369  -0.107852
    C   C62  0.413772  0.147286  0.682131  -0.087842
    C   C63  0.496520  0.162152  0.711151  -0.148361
    C   C64  0.519085  0.250613  0.739000  -0.149091
    H   H33  0.328621  0.366927  0.708242  0.083416
    H   H34  0.395901  0.077738  0.660744  0.089040
    H   H35  0.543508  0.104252  0.712514  0.118118
    H   H36  0.583643  0.261770  0.762627  0.107367
