# Generated by REPEAT Assigner based on pymatgen
data_DB0-m3_o146_o158_f0_fsc.sym.9_sqe
_audit_creation_date              2022-05-24
_audit_creation_method            REPEAT_Assigner
_cell_length_a                    15.663667
_cell_length_b                    11.683568
_cell_length_c                    13.595004
_cell_angle_alpha                 90.144511
_cell_angle_beta                  89.993364
_cell_angle_gamma                 90.000000
_cell_volume                      2487.980052
_symmetry_space_group_name_H-M    P1
_symmetry_Int_Tables_number       1
loop_
    _symmetry_equiv_pos_site_id
    _symmetry_equiv_pos_as_xyz
    1  x,y,z
loop_
    _atom_site_type_symbol
    _atom_site_label
    _atom_site_fract_x
    _atom_site_fract_y
    _atom_site_fract_z
    _atom_type_partial_charge
    C   C1    0.300837  0.729417  0.999049  -0.106227
    C   C2    0.077059  0.939741  0.001541  0.020385
    C   C3    0.189123  0.829918  0.086868  -0.202466
    C   C4    0.261642  0.764802  0.911452  0.150394
    C   C5    0.259883  0.759860  0.087263  0.189369
    C   C6    0.156765  0.873319  0.000600  0.296631
    C   C7    0.191378  0.835999  0.913159  -0.209026
    C   C8    0.301896  0.267361  0.002339  -0.022944
    C   C9    0.077092  0.058888  0.004030  0.063417
    C   C10   0.188032  0.168924  0.916317  -0.172908
    C   C11   0.265609  0.228359  0.090500  0.075678
    C   C12   0.258691  0.239358  0.914948  0.136531
    C   C13   0.156914  0.125062  0.003071  0.274780
    C   C14   0.193979  0.159847  0.089853  -0.166020
    C   C15   0.700395  0.729849  0.999500  -0.117842
    C   C16   0.923509  0.940086  0.003222  -0.022544
    C   C17   0.809793  0.833864  0.088209  -0.241807
    C   C18   0.739645  0.766003  0.912031  0.189175
    C   C19   0.739761  0.762495  0.088163  0.177652
    C   C20   0.843650  0.874641  0.001960  0.330943
    C   C21   0.809301  0.838255  0.914269  -0.217977
    C   C22   0.000167  0.881465  0.000564  -0.197194
    C   C23   0.698915  0.266455  0.004129  -0.069448
    C   C24   0.923491  0.058657  0.008120  0.115399
    C   C25   0.804364  0.149571  0.921362  -0.312007
    H   H1    0.831478  0.118285  0.853389  0.137318
    C   C26   0.742309  0.243547  0.092403  0.125489
    C   C27   0.734253  0.220695  0.917641  0.146460
    C   C28   0.843419  0.123773  0.008721  0.288683
    C   C29   0.813011  0.173074  0.093747  -0.177257
    C   C30   0.000227  0.117296  0.007074  -0.241051
    O   O1    0.593224  0.615213  0.081972  -0.505023
    O   O2    0.591241  0.617957  0.914945  -0.515999
    C   C31   0.623854  0.652693  0.998611  0.594414
    O   O3    0.592888  0.381264  0.917488  -0.511883
    O   O4    0.589379  0.378336  0.086342  -0.519749
    C   C32   0.622311  0.343582  0.002317  0.551250
    O   O5    0.408345  0.382347  0.917978  -0.462311
    O   O6    0.410934  0.378944  0.086593  -0.523777
    C   C33   0.378444  0.344435  0.002280  0.509236
    O   O7    0.407878  0.615608  0.082162  -0.504922
    O   O8    0.411131  0.618671  0.915229  -0.527059
    C   C34   0.377910  0.653262  0.998636  0.597206
    Zn  Zn1   0.500901  0.498054  0.890832  0.865690
    Zn  Zn2   0.500417  0.500143  0.109406  0.885130
    C   C35   0.503130  0.404457  0.288746  0.043502
    N   N1    0.500523  0.503829  0.238950  -0.069224
    C   C36   0.499401  0.603752  0.290089  0.095341
    C   C37   0.499864  0.604588  0.393374  0.199265
    C   C38   0.501290  0.502256  0.444787  -0.001076
    C   C39   0.502978  0.401809  0.391054  0.141201
    C   C40   0.499821  0.717588  0.445988  -0.177226
    C   C41   0.500438  0.715883  0.556109  -0.184994
    C   C42   0.501655  0.600914  0.606851  0.191740
    C   C43   0.502626  0.499935  0.553345  -0.003175
    C   C44   0.502736  0.396939  0.604229  0.180279
    C   C45   0.501657  0.283782  0.549330  -0.277943
    C   C46   0.510911  0.287952  0.438814  -0.008779
    C   C47   0.501601  0.597871  0.710115  0.110324
    N   N2    0.500770  0.496944  0.760744  -0.119748
    C   C48   0.500046  0.397384  0.708059  0.107085
    H   H2    0.506567  0.325340  0.247746  0.039721
    Cl  Cl1   0.134562  0.850208  0.198001  0.025383
    Cl  Cl2   0.713027  0.714997  0.794588  -0.139074
    Cl  Cl3   0.712890  0.708740  0.204564  -0.108841
    Cl  Cl4   0.858630  0.874911  0.803007  0.030926
    Cl  Cl5   0.719851  0.310449  0.205176  -0.108898
    Cl  Cl6   0.700864  0.255217  0.798536  -0.118274
    Cl  Cl7   0.867635  0.154832  0.205082  0.002363
    Cl  Cl8   0.999753  0.731271  0.996096  0.012381
    Cl  Cl9   0.000142  0.267570  0.007916  0.006600
    Cl  Cl10  0.499008  0.734614  0.225349  -0.024563
    Cl  Cl11  0.288612  0.712876  0.794416  -0.108568
    Cl  Cl12  0.405759  0.796985  0.416936  0.073094
    Cl  Cl13  0.406056  0.794143  0.586696  0.021585
    Cl  Cl14  0.493447  0.265827  0.770867  0.040444
    Cl  Cl15  0.403011  0.211531  0.570562  0.060103
    Cl  Cl16  0.612891  0.230234  0.410362  0.024785
    Cl  Cl17  0.593083  0.798090  0.415801  0.026487
    Cl  Cl18  0.593841  0.796857  0.585503  0.051832
    Cl  Cl19  0.589122  0.195225  0.585072  0.047166
    Cl  Cl20  0.432162  0.193299  0.391208  -0.014743
    Cl  Cl21  0.285093  0.703797  0.203393  -0.149493
    Cl  Cl22  0.501327  0.730050  0.773552  0.024241
    Cl  Cl23  0.140146  0.865520  0.801631  0.019045
    Cl  Cl24  0.132140  0.148220  0.806126  0.019495
    Cl  Cl25  0.299856  0.269203  0.208236  -0.072387
    Cl  Cl26  0.281533  0.298164  0.799151  -0.129990
    Cl  Cl27  0.145052  0.129586  0.202571  0.020252
    Cl  Cl28  0.860380  0.862903  0.200395  0.028568
