# Generated by REPEAT Assigner based on pymatgen
data_DB0-m3_o160_o510_f0_fsc.sym.32
_audit_creation_date              2022-05-24
_audit_creation_method            REPEAT_Assigner
_cell_length_a                    8.535253
_cell_length_b                    13.032992
_cell_length_c                    13.397500
_cell_angle_alpha                 90.600199
_cell_angle_beta                  89.992517
_cell_angle_gamma                 95.322496
_cell_volume                      1483.828614
_symmetry_space_group_name_H-M    P1
_symmetry_Int_Tables_number       1
loop_
    _symmetry_equiv_pos_site_id
    _symmetry_equiv_pos_as_xyz
    1  x,y,z
loop_
    _atom_site_type_symbol
    _atom_site_label
    _atom_site_fract_x
    _atom_site_fract_y
    _atom_site_fract_z
    _atom_type_partial_charge
    C   C1   0.152379  0.704999  0.015213  -0.009799
    C   C2   0.162171  0.811600  0.019949  -0.311412
    C   C3   0.025084  0.861509  0.016267  0.220320
    C   C4   0.880224  0.804604  0.020040  -0.214501
    H   H1   0.773169  0.842492  0.026076  0.097307
    C   C5   0.872386  0.698967  0.014714  -0.015219
    C   C6   0.007690  0.650680  0.007117  -0.143989
    C   C7   0.032471  0.974415  0.019160  -0.118815
    C   C8   0.932823  0.028374  0.968019  -0.371647
    H   H2   0.114877  0.014119  0.071202  0.124631
    C   C9   0.798717  0.189302  0.995328  -0.291003
    C   C10  0.807827  0.292157  0.023842  -0.028840
    C   C11  0.952155  0.343198  0.045178  -0.161251
    C   C12  0.087987  0.298271  0.024813  -0.041135
    C   C13  0.080378  0.196483  0.996416  -0.307982
    H   H3   0.187926  0.161512  0.981105  0.138871
    C   C14  0.936091  0.139809  0.987215  0.400623
    H   H4   0.275724  0.855732  0.023631  0.143728
    H   H5   0.000675  0.568477  0.998333  0.126478
    H   H6   0.684476  0.147786  0.984331  0.145514
    H   H7   0.958674  0.422167  0.069801  0.139822
    O   O1   0.330193  0.602843  0.933404  -0.727485
    O   O2   0.337784  0.615325  0.105039  -0.733959
    C   C15  0.288529  0.644487  0.017713  0.847149
    O   O3   0.292662  0.401537  0.107832  -0.753306
    O   O4   0.296549  0.388771  0.935706  -0.668741
    C   C16  0.236475  0.362843  0.023099  0.853773
    O   O5   0.630458  0.395219  0.107118  -0.732544
    O   O6   0.622476  0.382627  0.935187  -0.632362
    C   C17  0.672455  0.353815  0.022510  0.780202
    O   O7   0.667519  0.596492  0.932749  -0.734345
    O   O8   0.663749  0.609272  0.104604  -0.771533
    C   C18  0.723337  0.635492  0.017303  0.903512
    Zn  Zn1  0.481013  0.503931  0.131401  1.091766
    Zn  Zn2  0.479349  0.494095  0.908994  1.003111
    C   C19  0.463063  0.404706  0.722104  -0.367251
    N   N1   0.478400  0.491283  0.778115  0.194122
    C   C20  0.494749  0.584075  0.734497  -0.200583
    C   C21  0.496423  0.592822  0.632342  -0.014089
    C   C22  0.481099  0.505163  0.572469  -0.342789
    C   C23  0.464163  0.410341  0.619026  0.752760
    C   C24  0.498630  0.600184  0.414998  -0.263179
    C   C25  0.482055  0.508852  0.468303  0.366160
    C   C26  0.465782  0.417327  0.415044  -0.098926
    C   C27  0.449143  0.324669  0.464408  0.289341
    N   N2   0.448647  0.322657  0.564663  -0.654798
    C   C28  0.498322  0.597690  0.312086  -0.114983
    N   N3   0.482061  0.507365  0.262255  0.172992
    C   C29  0.465990  0.417889  0.312011  -0.159967
    H   H8   0.506951  0.653268  0.780009  0.185591
    H   H9   0.453032  0.345904  0.270726  0.156151
    H   H10  0.436419  0.253002  0.422573  0.083505
    H   H11  0.509963  0.669681  0.603443  0.097607
    H   H12  0.512129  0.675125  0.449759  0.170318
    H   H13  0.449934  0.330369  0.757731  0.201144
    H   H14  0.511179  0.669112  0.271333  0.173706
    C   C30  0.834199  0.981726  0.886067  0.797771
    O   O9   0.733310  0.029774  0.849136  -0.543353
    O   O10  0.867314  0.892216  0.843409  -0.277475
    C   C31  0.782672  0.852570  0.762646  0.005958
    H   H15  0.826665  0.778523  0.739441  0.064167
    H   H16  0.796628  0.907484  0.699875  0.039366
    H   H17  0.656552  0.839020  0.783005  0.039798
