# Generated by REPEAT Assigner based on pymatgen
data_DB0-m2_o2_o10_f0_pcu.sym.98_sqe
_audit_creation_date              2022-05-24
_audit_creation_method            REPEAT_Assigner
_cell_length_a                    8.842201
_cell_length_b                    15.091914
_cell_length_c                    13.639569
_cell_angle_alpha                 89.996764
_cell_angle_beta                  97.824704
_cell_angle_gamma                 89.997878
_cell_volume                      1803.195317
_symmetry_space_group_name_H-M    P1
_symmetry_Int_Tables_number       1
loop_
    _symmetry_equiv_pos_site_id
    _symmetry_equiv_pos_as_xyz
    1  x,y,z
loop_
    _atom_site_type_symbol
    _atom_site_label
    _atom_site_fract_x
    _atom_site_fract_y
    _atom_site_fract_z
    _atom_type_partial_charge
    O   O1   0.528967  0.360597  0.587471  -0.564761
    O   O2   0.537633  0.619100  0.420210  -0.530195
    O   O3   0.536907  0.361582  0.419802  -0.537487
    O   O4   0.530261  0.618095  0.587857  -0.399206
    C   C1   0.529118  0.319398  0.502785  0.627920
    C   C2   0.529955  0.660305  0.504037  0.465030
    O   O5   0.313433  0.486681  0.570949  -0.559590
    O   O6   0.754184  0.493051  0.437224  -0.681014
    O   O7   0.310565  0.493748  0.402114  -0.628381
    O   O8   0.757069  0.485910  0.605696  -0.733115
    C   C3   0.240640  0.490439  0.480674  0.815076
    C   C4   0.827072  0.489230  0.527326  0.914644
    Cu  Cu1  0.535634  0.489368  0.602096  0.904230
    Cu  Cu2  0.532024  0.490317  0.405697  0.840621
    C   C5   0.073355  0.491165  0.465735  -0.245534
    C   C6   0.994343  0.488517  0.542278  -0.263130
    H   H1   0.014696  0.493996  0.390693  0.139318
    H   H2   0.052973  0.485623  0.617325  0.159018
    C   C7   0.581038  0.085799  0.590405  -0.209167
    C   C8   0.590356  0.893878  0.428920  -0.145137
    H   H3   0.619186  0.052009  0.659191  0.122196
    H   H4   0.635909  0.927702  0.369528  0.105285
    C   C9   0.574731  0.177048  0.589009  0.017690
    C   C10  0.584301  0.802652  0.429042  -0.087192
    H   H5   0.609517  0.212947  0.656883  0.088784
    H   H6   0.626794  0.766704  0.369942  0.121154
    C   C11  0.526625  0.221992  0.501977  -0.147924
    C   C12  0.526846  0.757717  0.504250  0.009414
    C   C13  0.482477  0.173846  0.415741  -0.005610
    C   C14  0.472434  0.805739  0.579371  -0.044236
    C   C15  0.496367  0.082680  0.416992  -0.190592
    C   C16  0.486474  0.897012  0.581166  -0.213741
    H   H7   0.458264  0.045367  0.350642  0.133976
    H   H8   0.441645  0.934893  0.637746  0.136666
    C   C17  0.543671  0.038323  0.504138  0.117707
    C   C18  0.543493  0.941301  0.505729  0.109424
    C   C19  0.647356  0.522690  0.117390  -0.094679
    C   C20  0.473498  0.423973  0.895249  -0.302752
    H   H9   0.748693  0.542058  0.086506  0.038287
    H   H10  0.432083  0.367143  0.931834  0.162919
    C   C21  0.650662  0.520419  0.218565  -0.002057
    C   C22  0.479916  0.420922  0.794900  0.204493
    H   H11  0.753153  0.541001  0.265119  0.158171
    H   H12  0.438653  0.362713  0.753642  0.067714
    N   N1   0.529294  0.490562  0.258679  -0.025970
    N   N2   0.539227  0.489166  0.749156  -0.207175
    C   C23  0.400074  0.467397  0.199899  -0.071102
    C   C24  0.586359  0.562872  0.800374  0.167437
    H   H13  0.303335  0.444917  0.233136  0.193007
    H   H14  0.629930  0.618018  0.762516  0.062616
    C   C25  0.388995  0.473732  0.097845  -0.131227
    C   C26  0.574559  0.570254  0.900082  -0.214587
    C   C27  0.516046  0.500203  0.055912  0.102855
    C   C28  0.518364  0.499386  0.948584  0.128423
    C   C29  0.408345  0.215447  0.324276  0.809713
    O   O9   0.317225  0.275603  0.327937  -0.550356
    N   N3   0.428386  0.178418  0.230700  -0.953081
    H   H15  0.468650  0.228780  0.188593  0.340068
    H   H16  0.320936  0.159221  0.195817  0.355561
    C   C30  0.388122  0.763025  0.652441  0.651190
    O   O10  0.300043  0.702473  0.627261  -0.509393
    N   N4   0.397333  0.797326  0.750612  -0.789328
    H   H17  0.346270  0.750876  0.792387  0.348205
    H   H18  0.330416  0.854460  0.747914  0.295581
    C   C31  0.240817  0.456712  0.036800  0.695468
    O   O11  0.214550  0.486278  0.953054  -0.480449
    N   N5   0.122837  0.410305  0.077113  -0.811739
    H   H19  0.079677  0.452622  0.127135  0.309494
    H   H20  0.034861  0.399170  0.019201  0.324941
    C   C32  0.613311  0.655213  0.950283  0.750951
    O   O12  0.556611  0.675752  0.023671  -0.532200
    N   N6   0.710196  0.716789  0.909582  -0.672898
    H   H21  0.722271  0.771972  0.956148  0.296137
    H   H22  0.817284  0.687138  0.911695  0.243623
