# generated using pymatgen
data_Zn2H11C29N5O8
_symmetry_space_group_name_H-M   'P 1'
_cell_length_a   8.52900600
_cell_length_b   10.72868700
_cell_length_c   13.40864500
_cell_angle_alpha   97.66115400
_cell_angle_beta   90.09584500
_cell_angle_gamma   90.00838200
_symmetry_Int_Tables_number   1
_chemical_formula_structural   Zn2H11C29N5O8
_chemical_formula_sum   'Zn2 H11 C29 N5 O8'
_cell_volume   1216.00469391
_cell_formula_units_Z   1
loop_
 _symmetry_equiv_pos_site_id
 _symmetry_equiv_pos_as_xyz
  1  'x, y, z'
loop_
 _atom_site_type_symbol
 _atom_site_label
 _atom_site_symmetry_multiplicity
 _atom_site_fract_x
 _atom_site_fract_y
 _atom_site_fract_z
 _atom_site_occupancy
  Zn  Zn1  1  0.49957100  0.49464600  0.10962100  1
  Zn  Zn2  1  0.49887000  0.50086300  0.88759000  1
  H  H1  1  0.99613600  0.58933100  0.05406500  1
  H  H2  1  0.99515500  0.40543100  0.94292400  1
  H  H3  1  0.25457100  0.90162600  0.99070300  1
  H  H4  1  0.25437600  0.09404400  0.00734700  1
  H  H5  1  0.61048800  0.10181200  0.98500100  1
  H  H6  1  0.49952400  0.70055100  0.77226900  1
  H  H7  1  0.49991000  0.29768400  0.23303100  1
  H  H8  1  0.50028400  0.71043000  0.59554100  1
  H  H9  1  0.50072500  0.70680800  0.44194400  1
  H  H10  1  0.49860400  0.30590900  0.72393700  1
  H  H11  1  0.50062000  0.69087800  0.26357100  1
  C  C1  1  0.99783700  0.68693000  0.04250800  1
  C  C2  1  0.13811700  0.74424000  0.02840100  1
  C  C3  1  0.14141400  0.86590100  0.00761700  1
  C  C4  1  0.85935400  0.74767500  0.02912800  1
  C  C5  1  0.86113100  0.87276400  0.01314700  1
  C  C6  1  0.00309300  0.93433200  0.00577500  1
  C  C7  1  0.00296600  0.06081000  0.99171800  1
  C  C8  1  0.14115300  0.12952400  0.99012500  1
  C  C9  1  0.13769200  0.25100200  0.96897500  1
  C  C10  1  0.72230200  0.05621500  0.99140600  1
  C  C11  1  0.86064800  0.12158600  0.98386400  1
  C  C12  1  0.85849900  0.24701700  0.96785500  1
  C  C13  1  0.99709100  0.30787200  0.95459400  1
  C  C14  1  0.27948100  0.66789000  0.01922900  1
  C  C15  1  0.27923300  0.32756700  0.97804800  1
  C  C16  1  0.71696000  0.32485600  0.97754700  1
  C  C17  1  0.71711300  0.67076100  0.01957600  1
  C  C18  1  0.49890000  0.39459800  0.69401000  1
  C  C19  1  0.49941300  0.61390300  0.72087200  1
  C  C20  1  0.49986700  0.61837500  0.61864600  1
  C  C21  1  0.49982000  0.50770200  0.55161200  1
  C  C22  1  0.49935300  0.39522900  0.59118200  1
  C  C23  1  0.50057100  0.61361600  0.40118800  1
  C  C24  1  0.50018600  0.50522000  0.44713200  1
  C  C25  1  0.50006300  0.39023400  0.38617700  1
  C  C26  1  0.49970400  0.28018700  0.42969000  1
  C  C27  1  0.50058300  0.60543800  0.29807000  1
  C  C28  1  0.50016100  0.38606500  0.28214000  1
  C  C29  1  0.49962500  0.15942200  0.36881000  1
  N  N1  1  0.72499000  0.93417000  0.00524900  1
  N  N2  1  0.49881100  0.50309400  0.75709200  1
  N  N3  1  0.49934400  0.28504100  0.53032500  1
  N  N4  1  0.50025200  0.49315700  0.24022200  1
  N  N5  1  0.49956100  0.06214300  0.31977100  1
  O  O1  1  0.32993000  0.62866300  0.92814900  1
  O  O2  1  0.33497400  0.62729900  0.10026400  1
  O  O3  1  0.33036500  0.36675200  0.06923500  1
  O  O4  1  0.33428000  0.36812900  0.89682700  1
  O  O5  1  0.66808800  0.36633400  0.06880300  1
  O  O6  1  0.66270800  0.36747400  0.89689200  1
  O  O7  1  0.66765900  0.62912900  0.92848700  1
  O  O8  1  0.66341200  0.62796400  0.10008000  1
