# generated using pymatgen
data_CuH4(C3O2)2
_symmetry_space_group_name_H-M   'P 1'
_cell_length_a   21.77596800
_cell_length_b   14.18808200
_cell_length_c   28.50155500
_cell_angle_alpha   97.03160800
_cell_angle_beta   85.88319600
_cell_angle_gamma   63.31131100
_symmetry_Int_Tables_number   1
_chemical_formula_structural   CuH4(C3O2)2
_chemical_formula_sum   'Cu10 H40 C60 O40'
_cell_volume   7728.26219986
_cell_formula_units_Z   10
loop_
 _symmetry_equiv_pos_site_id
 _symmetry_equiv_pos_as_xyz
  1  'x, y, z'
loop_
 _atom_site_type_symbol
 _atom_site_label
 _atom_site_symmetry_multiplicity
 _atom_site_fract_x
 _atom_site_fract_y
 _atom_site_fract_z
 _atom_site_occupancy
  Cu  Cu1  1  0.95559000  0.52673600  0.49780200  1
  Cu  Cu2  1  0.01917000  0.32183100  0.46160200  1
  Cu  Cu3  1  0.41509300  0.69586500  0.45454000  1
  Cu  Cu4  1  0.47159000  0.48631000  0.44440000  1
  Cu  Cu5  1  0.18523700  0.03519400  0.78710700  1
  Cu  Cu6  1  0.29732500  0.06066400  0.77758800  1
  Cu  Cu7  1  0.90125900  0.62511900  0.11094600  1
  Cu  Cu8  1  0.98273500  0.41776200  0.10034200  1
  Cu  Cu9  1  0.39473900  0.65403200  0.08880900  1
  Cu  Cu10  1  0.47591100  0.46608000  0.03627200  1
  H  H1  1  0.68056500  0.42209700  0.47411600  1
  H  H2  1  0.74831900  0.57798600  0.48408300  1
  H  H3  1  0.63310400  0.65682800  0.46533300  1
  H  H4  1  0.80309000  0.33840200  0.48451700  1
  H  H5  1  0.13031200  0.60089300  0.47036300  1
  H  H6  1  0.29010100  0.43951300  0.44302400  1
  H  H7  1  0.21652600  0.35762300  0.44232100  1
  H  H8  1  0.20690000  0.68407100  0.46031300  1
  H  H9  1  0.13231200  0.23717300  0.58459700  1
  H  H10  1  0.06841000  0.25391900  0.68927000  1
  H  H11  1  0.99192600  0.39661700  0.64254300  1
  H  H12  1  0.21515800  0.19574300  0.64349400  1
  H  H13  1  0.96427400  0.35928600  0.23814100  1
  H  H14  1  0.97049500  0.33839200  0.32041300  1
  H  H15  1  0.88793900  0.60291400  0.27261600  1
  H  H16  1  0.92516000  0.57909000  0.34343100  1
  H  H17  1  0.46453200  0.71719600  0.59565500  1
  H  H18  1  0.43370200  0.78270400  0.68222900  1
  H  H19  1  0.38734900  0.58640100  0.61158100  1
  H  H20  1  0.30757000  0.74758400  0.66484200  1
  H  H21  1  0.50338700  0.41494200  0.27975200  1
  H  H22  1  0.45919400  0.60064200  0.21916000  1
  H  H23  1  0.44910200  0.65810300  0.29617600  1
  H  H24  1  0.51553600  0.35944700  0.18648700  1
  H  H25  1  0.09557200  0.41259500  0.97141500  1
  H  H26  1  0.04474700  0.35896400  0.87734600  1
  H  H27  1  0.95196500  0.52102800  0.94014000  1
  H  H28  1  0.18464300  0.33115500  0.90458700  1
  H  H29  1  0.22567700  0.86859700  0.90901500  1
  H  H30  1  0.27317400  0.80004500  0.98320300  1
  H  H31  1  0.37299000  0.84125600  0.88884800  1
  H  H32  1  0.40407200  0.66068000  0.91081300  1
  H  H33  1  0.17803600  0.42717300  0.09009300  1
  H  H34  1  0.21324600  0.61605100  0.12162900  1
  H  H35  1  0.09360500  0.66286600  0.13626500  1
  H  H36  1  0.29088600  0.39761300  0.05600400  1
  H  H37  1  0.71259000  0.63610100  0.08135800  1
  H  H38  1  0.66771100  0.45828400  0.05149700  1
  H  H39  1  0.78540900  0.39042700  0.06847700  1
  H  H40  1  0.59049100  0.70334400  0.07786700  1
  C  C1  1  0.96006400  0.47133900  0.39599300  1
  C  C2  1  0.10372800  0.43221500  0.46388600  1
  C  C3  1  0.01375900  0.37775400  0.56381500  1
  C  C4  1  0.87013600  0.41750700  0.48969900  1
  C  C5  1  0.46071100  0.57908200  0.35757300  1
  C  C6  1  0.56354200  0.58373400  0.45665000  1
  C  C7  1  0.42564400  0.60626800  0.54115900  1
  C  C8  1  0.32163400  0.60015300  0.44875100  1
  C  C9  1  0.28999200  0.93384900  0.84831700  1
  C  C10  1  0.30429200  0.87122400  0.72111000  1
  C  C11  1  0.19642500  0.15187600  0.71270700  1
  C  C12  1  0.17981400  0.22417600  0.84434900  1
  C  C13  1  0.97211000  0.51079400  0.01498700  1
  C  C14  1  0.04536900  0.55863900  0.11939500  1
  C  C15  1  0.91839400  0.52657600  0.19664500  1
  C  C16  1  0.83795400  0.48779400  0.08886200  1
  C  C17  1  0.39489100  0.64278800  0.98695300  1
  C  C18  1  0.53768800  0.60512200  0.06033700  1
  C  C19  1  0.47354900  0.48232500  0.13944500  1
  C  C20  1  0.33688300  0.50659800  0.06953600  1
  C  C21  1  0.80379000  0.41484100  0.48802200  1
  C  C22  1  0.74685200  0.50254100  0.48358200  1
  C  C23  1  0.62949900  0.58294200  0.46467700  1
  C  C24  1  0.68327200  0.49646600  0.47386900  1
  C  C25  1  0.25235800  0.60623600  0.45279100  1
  C  C26  1  0.24491200  0.51758700  0.45038800  1
  C  C27  1  0.17037000  0.43342500  0.45449100  1
  C  C28  1  0.17585700  0.52379800  0.45946400  1
  C  C29  1  0.17543700  0.19948300  0.66995400  1
  C  C30  1  0.10945000  0.24343600  0.66206200  1
  C  C31  1  0.02990800  0.35136500  0.61110100  1
  C  C32  1  0.09257000  0.27536200  0.61560000  1
  C  C33  1  0.94318200  0.49718200  0.34879600  1
  C  C34  1  0.95150900  0.41947800  0.31352400  1
  C  C35  1  0.91267300  0.52708900  0.24830300  1
  C  C36  1  0.94268200  0.43318300  0.26369700  1
  C  C37  1  0.33889200  0.77781200  0.68291400  1
  C  C38  1  0.40488800  0.74623000  0.66514400  1
  C  C39  1  0.41538600  0.62087300  0.59309000  1
  C  C40  1  0.43280700  0.69089900  0.61586200  1
  C  C41  1  0.49308500  0.44396000  0.18442400  1
  C  C42  1  0.47946800  0.51750500  0.22307600  1
  C  C43  1  0.46669500  0.57984000  0.30624100  1
  C  C44  1  0.48683500  0.49493200  0.27186700  1
  C  C45  1  0.14954100  0.31531900  0.88372700  1
  C  C46  1  0.08137500  0.37083900  0.89800500  1
  C  C47  1  0.99142800  0.49723700  0.96356300  1
  C  C48  1  0.05801800  0.43271800  0.94655100  1
  C  C49  1  0.37101500  0.69248500  0.94508000  1
  C  C50  1  0.30786400  0.77657100  0.94994200  1
  C  C51  1  0.31953900  0.86486600  0.88371000  1
  C  C52  1  0.28071900  0.83633400  0.91112500  1
  C  C53  1  0.28249500  0.47424500  0.07513500  1
  C  C54  1  0.22288200  0.53833200  0.10304400  1
  C  C55  1  0.10370300  0.58126800  0.12375100  1
  C  C56  1  0.16772100  0.50708600  0.10612300  1
  C  C57  1  0.59785500  0.62319100  0.06534400  1
  C  C58  1  0.66048400  0.53926700  0.06100100  1
  C  C59  1  0.77939100  0.47107700  0.07632600  1
  C  C60  1  0.71931900  0.55510300  0.07351100  1
  O  O1  1  0.94266000  0.54916000  0.43227100  1
  O  O2  1  0.99223800  0.37076400  0.40163600  1
  O  O3  1  0.04783800  0.51875100  0.48533200  1
  O  O4  1  0.10136000  0.34212000  0.45091800  1
  O  O5  1  0.97496300  0.47767200  0.55917500  1
  O  O6  1  0.03843200  0.30083700  0.52641800  1
  O  O7  1  0.87125000  0.50934400  0.50083000  1
  O  O8  1  0.92801300  0.32852300  0.47515300  1
  O  O9  1  0.43085400  0.67253400  0.38567600  1
  O  O10  1  0.48235000  0.49000400  0.37531500  1
  O  O11  1  0.50929000  0.67603700  0.45663300  1
  O  O12  1  0.55806700  0.49457000  0.45177300  1
  O  O13  1  0.40935500  0.69221600  0.52198600  1
  O  O14  1  0.45067200  0.51116100  0.51442700  1
  O  O15  1  0.32727500  0.68907500  0.45439200  1
  O  O16  1  0.37707900  0.50654200  0.44265400  1
  O  O17  1  0.22860200  0.95296300  0.83670500  1
  O  O18  1  0.32649200  0.97391300  0.82764400  1
  O  O19  1  0.23918100  0.90516800  0.73912600  1
  O  O20  1  0.33682000  0.92699800  0.73308200  1
  O  O21  1  0.15796700  0.11717000  0.73515300  1
  O  O22  1  0.25692000  0.13505900  0.72531800  1
  O  O23  1  0.14593000  0.16999600  0.83278800  1
  O  O24  1  0.24456200  0.18913200  0.82552300  1
  O  O25  1  0.92649500  0.60314600  0.04084400  1
  O  O26  1  0.00139600  0.42519200  0.03443600  1
  O  O27  1  0.98399500  0.63916900  0.12009600  1
  O  O28  1  0.05522600  0.45929900  0.11187800  1
  O  O29  1  0.88931200  0.61620200  0.17938500  1
  O  O30  1  0.95812500  0.43557600  0.16823200  1
  O  O31  1  0.82886300  0.58598600  0.09946900  1
  O  O32  1  0.89915700  0.40550000  0.08761700  1
  O  O33  1  0.36754800  0.70127700  0.02936900  1
  O  O34  1  0.44331900  0.54260700  0.98225900  1
  O  O35  1  0.47586300  0.67885600  0.08100100  1
  O  O36  1  0.54752000  0.51069800  0.03980200  1
  O  O37  1  0.43085700  0.58410200  0.14177500  1
  O  O38  1  0.49708500  0.41727600  0.09796600  1
  O  O39  1  0.32678500  0.60019600  0.09176900  1
  O  O40  1  0.39589400  0.44019300  0.04286700  1
