# generated using pymatgen
data_CuH29C26N3O4
_symmetry_space_group_name_H-M   'P 1'
_cell_length_a   10.69126800
_cell_length_b   15.57082600
_cell_length_c   17.01824100
_cell_angle_alpha   96.36141800
_cell_angle_beta   90.00597400
_cell_angle_gamma   92.83782600
_symmetry_Int_Tables_number   1
_chemical_formula_structural   CuH29C26N3O4
_chemical_formula_sum   'Cu2 H58 C52 N6 O8'
_cell_volume   2812.11716771
_cell_formula_units_Z   2
loop_
 _symmetry_equiv_pos_site_id
 _symmetry_equiv_pos_as_xyz
  1  'x, y, z'
loop_
 _atom_site_type_symbol
 _atom_site_label
 _atom_site_symmetry_multiplicity
 _atom_site_fract_x
 _atom_site_fract_y
 _atom_site_fract_z
 _atom_site_occupancy
  Cu  Cu1  1  0.48209700  0.41314600  0.49604900  1
  Cu  Cu2  1  0.49184000  0.58580900  0.50269900  1
  H  H1  1  0.91768200  0.57427900  0.38954000  1
  H  H2  1  0.05611900  0.42453400  0.60860800  1
  H  H3  1  0.89641200  0.35180800  0.48343600  1
  H  H4  1  0.07751400  0.64702900  0.51463600  1
  H  H5  1  0.47590500  0.37982200  0.74202400  1
  H  H6  1  0.50270300  0.61904100  0.25663700  1
  H  H7  1  0.47979800  0.38731800  0.88276700  1
  H  H8  1  0.50466900  0.61129600  0.11587100  1
  H  H9  1  0.47277600  0.34327500  0.24441300  1
  H  H10  1  0.50610400  0.65559800  0.75446300  1
  H  H11  1  0.62970000  0.28789400  0.56825800  1
  H  H12  1  0.34780400  0.70980600  0.42815800  1
  H  H13  1  0.63329900  0.89198600  0.60659500  1
  H  H14  1  0.33645400  0.10731900  0.39386300  1
  H  H15  1  0.63986700  0.73424000  0.59462000  1
  H  H16  1  0.32983700  0.26517900  0.40689300  1
  H  H17  1  0.07327100  0.37925000  0.19532500  1
  H  H18  1  0.05837800  0.27794500  0.23841600  1
  H  H19  1  0.92822400  0.31415900  0.18513900  1
  H  H20  1  0.89569500  0.33826300  0.32969200  1
  H  H21  1  0.90989600  0.43932600  0.28648800  1
  H  H22  1  0.13427400  0.45715600  0.32694500  1
  H  H23  1  0.12100500  0.35563600  0.36939300  1
  H  H24  1  0.91358100  0.72042000  0.75980100  1
  H  H25  1  0.89921900  0.61887700  0.80251000  1
  H  H26  1  0.04375200  0.68452200  0.81331500  1
  H  H27  1  0.06368300  0.55983600  0.71162600  1
  H  H28  1  0.07711800  0.66110800  0.66870900  1
  H  H29  1  0.85224700  0.64298800  0.62857000  1
  H  H30  1  0.83928900  0.54145000  0.67099900  1
  H  H31  1  0.55719100  0.14663800  0.05245700  1
  H  H32  1  0.52940100  0.19351800  0.96161300  1
  H  H33  1  0.68759700  0.17672800  0.99191500  1
  H  H34  1  0.64002400  0.33064600  0.01850100  1
  H  H35  1  0.66572900  0.28417700  0.10944400  1
  H  H36  1  0.43631600  0.26033900  0.12545300  1
  H  H37  1  0.40721400  0.30869100  0.03690300  1
  H  H38  1  0.62884100  0.84884400  0.94777900  1
  H  H39  1  0.59415400  0.80163000  0.03843400  1
  H  H40  1  0.75448200  0.81486900  0.00640000  1
  H  H41  1  0.67552800  0.66250900  0.97937800  1
  H  H42  1  0.71016200  0.70925500  0.88884900  1
  H  H43  1  0.48650500  0.73926100  0.87367100  1
  H  H44  1  0.44760700  0.69179700  0.96225100  1
  H  H45  1  0.78513500  0.02418400  0.66666667  1
  H  H46  1  0.85350200  0.13336800  0.68489500  1
  H  H47  1  0.75021700  0.09089500  0.75693200  1
  H  H48  1  0.64292700  0.19192200  0.67997300  1
  H  H49  1  0.57267000  0.08364500  0.66343500  1
  H  H50  1  0.70118100  0.05818700  0.53864500  1
  H  H51  1  0.76462200  0.16629200  0.55609000  1
  H  H52  1  0.11550500  0.98248500  0.39840100  1
  H  H53  1  0.04260500  0.87666100  0.40817300  1
  H  H54  1  0.01893500  0.96587900  0.48312600  1
  H  H55  1  0.17218500  0.86522700  0.52656400  1
  H  H56  1  0.24084600  0.97258300  0.52043600  1
  H  H57  1  0.33098600  0.92168500  0.38784500  1
  H  H58  1  0.24945000  0.82030300  0.39007700  1
  C  C1  1  0.48624600  0.48765600  0.34741200  1
  C  C2  1  0.48829300  0.51129000  0.65135000  1
  C  C3  1  0.24673100  0.49745400  0.49924500  1
  C  C4  1  0.72717300  0.50147500  0.49922300  1
  C  C5  1  0.02324600  0.45927400  0.43270400  1
  C  C6  1  0.95062800  0.53958000  0.56542300  1
  C  C7  1  0.95007000  0.54066400  0.43937600  1
  C  C8  1  0.02377800  0.45818600  0.55876100  1
  C  C9  1  0.86628400  0.50100700  0.49878200  1
  C  C10  1  0.10759600  0.49786300  0.49937200  1
  C  C11  1  0.93792700  0.41892700  0.49106100  1
  C  C12  1  0.03592100  0.57993800  0.50707200  1
  C  C13  1  0.48700200  0.48160800  0.26066600  1
  C  C14  1  0.49029900  0.51726700  0.73809400  1
  C  C15  1  0.49634300  0.55585700  0.22307700  1
  C  C16  1  0.48338000  0.44294200  0.77563600  1
  C  C17  1  0.49755700  0.55089400  0.14171400  1
  C  C18  1  0.48584600  0.44776400  0.85698800  1
  C  C19  1  0.48975100  0.47087400  0.09648600  1
  C  C20  1  0.49555600  0.52772200  0.90226200  1
  C  C21  1  0.48122500  0.39629900  0.13418000  1
  C  C22  1  0.50307000  0.60236200  0.86463600  1
  C  C23  1  0.47929200  0.40191200  0.21583800  1
  C  C24  1  0.49995600  0.59691800  0.78298000  1
  C  C25  1  0.41227400  0.75134000  0.46572300  1
  C  C26  1  0.56272800  0.24723000  0.53176300  1
  C  C27  1  0.40346100  0.84029700  0.47151900  1
  C  C28  1  0.57089600  0.15837200  0.52555700  1
  C  C29  1  0.48719700  0.89229200  0.52131900  1
  C  C30  1  0.48617300  0.10667000  0.47658000  1
  C  C31  1  0.57036600  0.85286300  0.56596500  1
  C  C32  1  0.40083200  0.14627000  0.43367400  1
  C  C33  1  0.57475600  0.76410000  0.55878000  1
  C  C34  1  0.39642700  0.23509100  0.44151200  1
  C  C35  1  0.06986400  0.41257000  0.35601100  1
  C  C36  1  0.96070300  0.38267700  0.30091300  1
  C  C37  1  0.00853900  0.33543400  0.22502200  1
  C  C38  1  0.90360400  0.58617600  0.64202600  1
  C  C39  1  0.01241800  0.61632000  0.69728400  1
  C  C40  1  0.96382700  0.66308600  0.77316400  1
  C  C41  1  0.47290800  0.30907900  0.08737400  1
  C  C42  1  0.60177000  0.28404000  0.05811900  1
  C  C43  1  0.59317600  0.19432300  0.01310900  1
  C  C44  1  0.51297500  0.68949700  0.91155600  1
  C  C45  1  0.64663600  0.71055800  0.94041100  1
  C  C46  1  0.65641200  0.79986400  0.98623600  1
  C  C47  1  0.68040500  0.12407100  0.56508100  1
  C  C48  1  0.65725300  0.12492500  0.65329100  1
  C  C49  1  0.76896100  0.09107600  0.69285800  1
  C  C50  1  0.29737000  0.87444300  0.42804900  1
  C  C51  1  0.20119100  0.91316200  0.48568000  1
  C  C52  1  0.08720700  0.93595200  0.44073400  1
  N  N1  1  0.48893400  0.46363400  0.01272200  1
  N  N2  1  0.49656600  0.53491000  0.98602200  1
  N  N3  1  0.49818800  0.71486200  0.50758200  1
  N  N4  1  0.47514400  0.28411300  0.49155500  1
  N  N5  1  0.48804700  0.98382600  0.53090500  1
  N  N6  1  0.48585900  0.01521300  0.46681300  1
  O  O1  1  0.47756100  0.41616600  0.38164200  1
  O  O2  1  0.49652600  0.58269600  0.61708900  1
  O  O3  1  0.49482100  0.56462600  0.38745900  1
  O  O4  1  0.47917500  0.43442800  0.61127800  1
  O  O5  1  0.30074400  0.42331900  0.49377200  1
  O  O6  1  0.67322600  0.57571800  0.50488900  1
  O  O7  1  0.30945500  0.57205000  0.50505400  1
  O  O8  1  0.66450000  0.42679300  0.49367000  1
