# generated using pymatgen
data_Fe2H29C46N3O16
_symmetry_space_group_name_H-M   'P 1'
_cell_length_a   16.17430600
_cell_length_b   9.37383900
_cell_length_c   15.17732100
_cell_angle_alpha   94.27217300
_cell_angle_beta   85.06440300
_cell_angle_gamma   112.08430900
_symmetry_Int_Tables_number   1
_chemical_formula_structural   Fe2H29C46N3O16
_chemical_formula_sum   'Fe2 H29 C46 N3 O16'
_cell_volume   2122.16416402
_cell_formula_units_Z   1
loop_
 _symmetry_equiv_pos_site_id
 _symmetry_equiv_pos_as_xyz
  1  'x, y, z'
loop_
 _atom_site_type_symbol
 _atom_site_label
 _atom_site_symmetry_multiplicity
 _atom_site_fract_x
 _atom_site_fract_y
 _atom_site_fract_z
 _atom_site_occupancy
  Fe  Fe1  1  0.53351100  0.02720600  0.12921700  1
  Fe  Fe2  1  0.49853000  0.90954200  0.81059700  1
  H  H1  1  0.92684500  0.90037400  0.82659700  1
  H  H2  1  0.02327400  0.86183300  0.88725000  1
  H  H3  1  0.78298100  0.86280100  0.78243700  1
  H  H4  1  0.11021200  0.13818000  0.16904100  1
  H  H5  1  0.83359000  0.15828900  0.13645500  1
  H  H6  1  0.53698100  0.48747500  0.16015600  1
  H  H7  1  0.50969900  0.78554400  0.37711800  1
  H  H8  1  0.48777300  0.44262400  0.77927000  1
  H  H9  1  0.51413500  0.14476600  0.56194800  1
  H  H10  1  0.52757900  0.22206800  0.41741000  1
  H  H11  1  0.49749500  0.70925200  0.52198600  1
  H  H12  1  0.16330200  0.04335400  0.80442300  1
  H  H13  1  0.08888200  0.87834300  0.74420000  1
  H  H14  1  0.20720400  0.94586500  0.71733800  1
  H  H15  1  0.07566500  0.65143200  0.90877500  1
  H  H16  1  0.13602200  0.59518300  0.81633500  1
  H  H17  1  0.04621400  0.65559600  0.79713600  1
  H  H18  1  0.15790900  0.93173300  0.21809800  1
  H  H19  1  0.18531500  0.10335400  0.28985100  1
  H  H20  1  0.25816000  0.99715900  0.27737800  1
  H  H21  1  0.26129300  0.31738800  0.10973900  1
  H  H22  1  0.35147100  0.35226100  0.18025000  1
  H  H23  1  0.24079600  0.31858500  0.22846800  1
  H  H24  1  0.97209900  0.38827100  0.14514500  1
  H  H25  1  0.05411800  0.43872200  0.22672400  1
  H  H26  1  0.93682700  0.37639800  0.26178900  1
  H  H27  1  0.92779700  0.00092100  0.27704200  1
  H  H28  1  0.85670300  0.11054900  0.27845000  1
  H  H29  1  0.95360700  0.17771500  0.34408000  1
  C  C1  1  0.88239700  0.92650400  0.87610900  1
  C  C2  1  0.27205000  0.93207800  0.94908900  1
  C  C3  1  0.18813700  0.90540200  0.92067000  1
  C  C4  1  0.12799700  0.95442000  0.97377200  1
  C  C5  1  0.04453400  0.93243900  0.94543200  1
  C  C6  1  0.98741400  0.99412400  0.99303200  1
  C  C7  1  0.80032900  0.90849200  0.84873100  1
  C  C8  1  0.73923600  0.94415000  0.90490700  1
  C  C9  1  0.90559300  0.98155900  0.96175000  1
  C  C10  1  0.84609200  0.02821500  0.01664100  1
  C  C11  1  0.76086100  0.00255000  0.99002200  1
  C  C12  1  0.29395400  0.99885000  0.03278900  1
  C  C13  1  0.23523900  0.04912100  0.08486300  1
  C  C14  1  0.15230800  0.02903600  0.05497300  1
  C  C15  1  0.09319200  0.08216300  0.10530300  1
  C  C16  1  0.01195300  0.06663200  0.07455100  1
  C  C17  1  0.95567100  0.12493000  0.12544500  1
  C  C18  1  0.87326600  0.10435800  0.09693600  1
  C  C19  1  0.69016500  0.01526700  0.05454300  1
  C  C20  1  0.52552700  0.76280200  0.19975300  1
  C  C21  1  0.38309400  0.03726700  0.06470400  1
  C  C22  1  0.52468900  0.25292200  0.25079100  1
  C  C23  1  0.50373500  0.68027600  0.68903100  1
  C  C24  1  0.64969900  0.90315000  0.87470200  1
  C  C25  1  0.49711900  0.16584900  0.73909900  1
  C  C26  1  0.34024700  0.90819400  0.88545600  1
  C  C27  1  0.52778300  0.40303500  0.28837900  1
  C  C28  1  0.53178200  0.51268900  0.23058600  1
  C  C29  1  0.52429900  0.64955200  0.26191400  1
  C  C30  1  0.51523100  0.67836300  0.35197000  1
  C  C31  1  0.51388100  0.57118900  0.41039300  1
  C  C32  1  0.51992400  0.43304000  0.37910900  1
  C  C33  1  0.50599000  0.60322400  0.50032800  1
  C  C34  1  0.50580000  0.49874900  0.56037700  1
  C  C35  1  0.51134000  0.36024000  0.52900000  1
  C  C36  1  0.51954200  0.32846600  0.43911000  1
  C  C37  1  0.49838300  0.52887500  0.65120200  1
  C  C38  1  0.49278400  0.41777500  0.70878700  1
  C  C39  1  0.49916400  0.28011800  0.67722600  1
  C  C40  1  0.50910200  0.25225000  0.58722900  1
  C  C41  1  0.15523600  0.92902900  0.77242300  1
  C  C42  1  0.10240100  0.67599300  0.83944700  1
  C  C43  1  0.21331800  0.03538200  0.24220700  1
  C  C44  1  0.27938600  0.28569500  0.17227100  1
  C  C45  1  0.98594700  0.35976300  0.21052600  1
  C  C46  1  0.92667300  0.11878800  0.28075100  1
  N  N1  1  0.16699800  0.83201000  0.83611900  1
  N  N2  1  0.26335900  0.12296600  0.16775300  1
  N  N3  1  0.98145700  0.20311700  0.20777600  1
  O  O1  1  0.62308100  0.04530000  0.02902700  1
  O  O2  1  0.53367200  0.73414400  0.11415500  1
  O  O3  1  0.68791100  0.97763100  0.13653000  1
  O  O4  1  0.52049200  0.89478100  0.22922000  1
  O  O5  1  0.41252000  0.92892100  0.08013000  1
  O  O6  1  0.43009100  0.18109700  0.08737300  1
  O  O7  1  0.57410800  0.24544400  0.17861900  1
  O  O8  1  0.46136500  0.12668700  0.27908000  1
  O  O9  1  0.45753200  0.68995700  0.76318300  1
  O  O10  1  0.56593700  0.80548300  0.65815800  1
  O  O11  1  0.62065500  0.01050800  0.85700500  1
  O  O12  1  0.60318000  0.75855200  0.85319800  1
  O  O13  1  0.33636400  0.92076000  0.80051800  1
  O  O14  1  0.50874400  0.03884000  0.70982700  1
  O  O15  1  0.41114000  0.89345400  0.91258400  1
  O  O16  1  0.48377800  0.19015100  0.82446800  1
