# generated using pymatgen
data_ZnH9C13(NO2)3
_symmetry_space_group_name_H-M   'P 1'
_cell_length_a   16.00867600
_cell_length_b   11.13813500
_cell_length_c   9.89377200
_cell_angle_alpha   89.99736300
_cell_angle_beta   89.99460700
_cell_angle_gamma   90.00341500
_symmetry_Int_Tables_number   1
_chemical_formula_structural   ZnH9C13(NO2)3
_chemical_formula_sum   'Zn2 H18 C26 N6 O12'
_cell_volume   1764.12675761
_cell_formula_units_Z   2
loop_
 _symmetry_equiv_pos_site_id
 _symmetry_equiv_pos_as_xyz
  1  'x, y, z'
loop_
 _atom_site_type_symbol
 _atom_site_label
 _atom_site_symmetry_multiplicity
 _atom_site_fract_x
 _atom_site_fract_y
 _atom_site_fract_z
 _atom_site_occupancy
  Zn  Zn1  1  0.48417300  0.50760700  0.65738600  1
  Zn  Zn2  1  0.47994100  0.51912000  0.34997900  1
  H  H1  1  0.04161700  0.33528500  0.38986800  1
  H  H2  1  0.03133600  0.69101200  0.38850000  1
  H  H3  1  0.92325000  0.68533000  0.61441600  1
  H  H4  1  0.02875200  0.51297100  0.73656300  1
  H  H5  1  0.49277600  0.90023900  0.31173600  1
  H  H6  1  0.42713100  0.10673900  0.56061000  1
  H  H7  1  0.57039300  0.64081300  0.87593300  1
  H  H8  1  0.46186300  0.43007500  0.91095200  1
  H  H9  1  0.59408300  0.59891300  0.12711100  1
  H  H10  1  0.42173900  0.51154000  0.09769300  1
  H  H11  1  0.84085800  0.18803900  0.69415500  1
  H  H12  1  0.82657500  0.24700400  0.53901900  1
  H  H13  1  0.84521600  0.49835900  0.08806100  1
  H  H14  1  0.82870900  0.40910800  0.22297400  1
  H  H15  1  0.58417500  0.08272300  0.70112900  1
  H  H16  1  0.63259300  0.99362500  0.58557700  1
  H  H17  1  0.64518000  0.09913400  0.14196300  1
  H  H18  1  0.54573800  0.05013500  0.12998600  1
  C  C1  1  0.47586500  0.27882700  0.49253100  1
  C  C2  1  0.31900100  0.52303400  0.51110900  1
  C  C3  1  0.48954700  0.74802600  0.51497500  1
  C  C4  1  0.64508200  0.50388400  0.49629100  1
  C  C5  1  0.95701800  0.41354200  0.56294300  1
  C  C6  1  0.01441200  0.41485900  0.44086900  1
  C  C7  1  0.22937000  0.52288200  0.51291900  1
  C  C8  1  0.73470900  0.50296600  0.49426300  1
  C  C9  1  0.00702200  0.51240100  0.63013300  1
  C  C10  1  0.06283800  0.51545000  0.50706100  1
  C  C11  1  0.95083100  0.60595500  0.56355100  1
  C  C12  1  0.90142000  0.50578100  0.49760900  1
  C  C13  1  0.00841000  0.60927400  0.44067600  1
  C  C14  1  0.95838700  0.50880000  0.37665500  1
  C  C15  1  0.15412100  0.52048500  0.51149000  1
  C  C16  1  0.80998100  0.50367300  0.49488400  1
  C  C17  1  0.50041500  0.94488200  0.40815500  1
  C  C18  1  0.50114500  0.87889200  0.52205400  1
  C  C19  1  0.51370400  0.07612400  0.40546100  1
  C  C20  1  0.47011800  0.14730200  0.48950400  1
  C  C21  1  0.53297500  0.57429900  0.92815900  1
  C  C22  1  0.53823700  0.56660500  0.07707500  1
  C  C23  1  0.93055600  0.30148400  0.63384300  1
  C  C24  1  0.93348100  0.50745400  0.23125100  1
  C  C25  1  0.52175300  0.93094400  0.65499800  1
  C  C26  1  0.57611700  0.12279300  0.30882500  1
  N  N1  1  0.48836800  0.50043700  0.85927600  1
  N  N2  1  0.47662900  0.52813000  0.14812500  1
  N  N3  1  0.84476700  0.26709400  0.63780400  1
  N  N4  1  0.84796700  0.49473800  0.19341300  1
  N  N5  1  0.59842400  0.99417700  0.67538800  1
  N  N6  1  0.59796100  0.05312700  0.19312200  1
  O  O1  1  0.47803700  0.33063600  0.61139200  1
  O  O2  1  0.47539600  0.33906000  0.37845100  1
  O  O3  1  0.35925300  0.51728600  0.62626100  1
  O  O4  1  0.35638300  0.52514500  0.39345900  1
  O  O5  1  0.48942300  0.68759600  0.62902200  1
  O  O6  1  0.48579300  0.69623900  0.39577800  1
  O  O7  1  0.60783800  0.50175100  0.61447000  1
  O  O8  1  0.60496600  0.51083300  0.38069700  1
  O  O9  1  0.98290000  0.23866300  0.68865600  1
  O  O10  1  0.98685300  0.51711800  0.14403900  1
  O  O11  1  0.47598800  0.91213900  0.75123800  1
  O  O12  1  0.61508100  0.21436200  0.33296100  1
