# generated using pymatgen
data_FeH10C20NO9
_symmetry_space_group_name_H-M   'P 1'
_cell_length_a   14.88902700
_cell_length_b   9.35726600
_cell_length_c   20.34690700
_cell_angle_alpha   93.83084700
_cell_angle_beta   104.06743000
_cell_angle_gamma   106.73457000
_symmetry_Int_Tables_number   1
_chemical_formula_structural   FeH10C20NO9
_chemical_formula_sum   'Fe2 H20 C40 N2 O18'
_cell_volume   2604.56577951
_cell_formula_units_Z   2
loop_
 _symmetry_equiv_pos_site_id
 _symmetry_equiv_pos_as_xyz
  1  'x, y, z'
loop_
 _atom_site_type_symbol
 _atom_site_label
 _atom_site_symmetry_multiplicity
 _atom_site_fract_x
 _atom_site_fract_y
 _atom_site_fract_z
 _atom_site_occupancy
  Fe  Fe1  1  0.48892800  0.96973900  0.84973300  1
  Fe  Fe2  1  0.51093600  0.99672400  0.15024800  1
  H  H1  1  0.81923000  0.07502400  0.16927600  1
  H  H2  1  0.83046300  0.95003300  0.93363900  1
  H  H3  1  0.02595000  0.89059200  0.85186000  1
  H  H4  1  0.18100600  0.89589400  0.83023400  1
  H  H5  1  0.16691900  0.00858600  0.06611200  1
  H  H6  1  0.48664100  0.68443500  0.66090200  1
  H  H7  1  0.47249800  0.22184000  0.62840300  1
  H  H8  1  0.39679600  0.60965400  0.54745700  1
  H  H9  1  0.40664500  0.62990900  0.43118200  1
  H  H10  1  0.59139200  0.35090400  0.45196600  1
  H  H11  1  0.58184100  0.33098600  0.56821000  1
  H  H12  1  0.51764100  0.74043100  0.37201100  1
  H  H13  1  0.51020100  0.54245900  0.17633500  1
  H  H14  1  0.50016900  0.27597900  0.33811000  1
  H  H15  1  0.99998200  0.29041400  0.12379100  1
  H  H16  1  0.10610300  0.28317100  0.18744900  1
  H  H17  1  0.99733900  0.28456300  0.21215700  1
  H  H18  1  0.64018500  0.48187700  0.83615400  1
  H  H19  1  0.61711400  0.41028200  0.91273600  1
  H  H20  1  0.61692900  0.59919500  0.90013200  1
  C  C1  1  0.82167700  0.05036400  0.11719800  1
  C  C2  1  0.90891000  0.05178200  0.10500000  1
  C  C3  1  0.91254500  0.01059400  0.03965600  1
  C  C4  1  0.82866500  0.97581000  0.98570100  1
  C  C5  1  0.74088800  0.97653300  0.99739500  1
  C  C6  1  0.73700000  0.00912500  0.06420700  1
  C  C7  1  0.09077300  0.91684900  0.89434200  1
  C  C8  1  0.17810100  0.91835100  0.88235100  1
  C  C9  1  0.26232000  0.95703200  0.93566700  1
  C  C10  1  0.25755000  0.98589400  0.00258000  1
  C  C11  1  0.16948300  0.98583200  0.01402300  1
  C  C12  1  0.08623500  0.95419300  0.95978200  1
  C  C13  1  0.47748400  0.16765300  0.75518800  1
  C  C14  1  0.35499400  0.97948800  0.91859900  1
  C  C15  1  0.65643700  0.95253400  0.93756700  1
  C  C16  1  0.48134800  0.69603800  0.79194900  1
  C  C17  1  0.50947400  0.26824900  0.20718600  1
  C  C18  1  0.34125200  0.00738000  0.06270100  1
  C  C19  1  0.64458800  0.98706700  0.08153300  1
  C  C20  1  0.52016800  0.79846200  0.24603200  1
  C  C21  1  0.48566700  0.56840300  0.74773000  1
  C  C22  1  0.48466700  0.57895600  0.67998100  1
  C  C23  1  0.48350700  0.45624100  0.63722500  1
  C  C24  1  0.47863200  0.32092200  0.66182900  1
  C  C25  1  0.48350900  0.31147500  0.72972400  1
  C  C26  1  0.49062600  0.43641900  0.77338000  1
  C  C27  1  0.44087200  0.55404000  0.52737500  1
  C  C28  1  0.44658600  0.56557900  0.46117900  1
  C  C29  1  0.49990600  0.49202100  0.43304000  1
  C  C30  1  0.54716700  0.40627500  0.47201300  1
  C  C31  1  0.54155100  0.39486800  0.53820200  1
  C  C32  1  0.48833100  0.46852200  0.56640700  1
  C  C33  1  0.51285100  0.64217600  0.33861900  1
  C  C34  1  0.51262300  0.65407500  0.27151000  1
  C  C35  1  0.50858200  0.53052800  0.22851700  1
  C  C36  1  0.50754400  0.39556500  0.25282500  1
  C  C37  1  0.50513400  0.38293400  0.31981100  1
  C  C38  1  0.50620200  0.50565400  0.36262200  1
  C  C39  1  0.02522500  0.24410800  0.17111400  1
  C  C40  1  0.59782600  0.48237000  0.87404300  1
  N  N1  1  0.00263600  0.00631500  0.02969700  1
  N  N2  1  0.99605000  0.95833500  0.96961300  1
  O  O1  1  0.52939700  0.16650400  0.81715200  1
  O  O2  1  0.42807300  0.10263500  0.94630900  1
  O  O3  1  0.41442300  0.04239700  0.71852300  1
  O  O4  1  0.36044200  0.89008500  0.86808000  1
  O  O5  1  0.57945000  0.98874600  0.94304000  1
  O  O6  1  0.66305500  0.91292200  0.87630000  1
  O  O7  1  0.49071500  0.82840900  0.77177000  1
  O  O8  1  0.46624300  0.67892200  0.85225000  1
  O  O9  1  0.50886500  0.13807200  0.22821100  1
  O  O10  1  0.51265800  0.28463200  0.14415100  1
  O  O11  1  0.41985500  0.97668800  0.05699700  1
  O  O12  1  0.33295800  0.04070100  0.12414400  1
  O  O13  1  0.58065800  0.92394600  0.28411800  1
  O  O14  1  0.63905800  0.07770800  0.13154200  1
  O  O15  1  0.47149100  0.79967300  0.18300000  1
  O  O16  1  0.57163700  0.86342900  0.05439300  1
  O  O17  1  0.99131500  0.08677500  0.15846700  1
  O  O18  1  0.49791300  0.42638700  0.84117100  1
