data_DB0-m29_o96_o100_f0_pts.sym.1_repeat
_audit_creation_date              2024-02-23
_audit_creation_method            'Materials Studio'
_symmetry_space_group_name_H-M    'P1'
_symmetry_Int_Tables_number       1
_symmetry_cell_setting            triclinic
loop_
_symmetry_equiv_pos_as_xyz
  x,y,z
_cell_length_a                    17.4844
_cell_length_b                    14.0623
_cell_length_c                    16.7533
_cell_angle_alpha                 91.6199
_cell_angle_beta                  91.0570
_cell_angle_gamma                 100.1193
loop_
_atom_site_label
_atom_site_type_symbol
_atom_site_fract_x
_atom_site_fract_y
_atom_site_fract_z
_atom_site_U_iso_or_equiv
_atom_site_adp_type
_atom_site_occupancy
C1     C     0.21823   0.04669   0.12983   0.00000  Uiso   1.00
C2     C     0.17748   0.09893   0.17700   0.00000  Uiso   1.00
C3     C     0.10386   0.08975   0.14343   0.00000  Uiso   1.00
N1     N     0.09895   0.03553   0.07514   0.00000  Uiso   1.00
C4     C     0.16934   0.00968   0.06634   0.00000  Uiso   1.00
C5     C     0.04478   0.12386   0.17628   0.00000  Uiso   1.00
C6     C     0.96402   0.09950   0.14612   0.00000  Uiso   1.00
C7     C     0.90016   0.08972   0.19407   0.00000  Uiso   1.00
C8     C     0.83601   0.06684   0.14585   0.00000  Uiso   1.00
C9     C     0.86153   0.06277   0.06846   0.00000  Uiso   1.00
N2     N     0.94020   0.08349   0.06895   0.00000  Uiso   1.00
C10    C     0.81032   0.03798   0.99743   0.00000  Uiso   1.00
C11    C     0.83057   0.99010   0.93360   0.00000  Uiso   1.00
C12    C     0.78167   0.95310   0.87011   0.00000  Uiso   1.00
C13    C     0.82242   0.90086   0.82294   0.00000  Uiso   1.00
C14    C     0.89604   0.91001   0.85651   0.00000  Uiso   1.00
N3     N     0.90094   0.96423   0.92481   0.00000  Uiso   1.00
C15    C     0.95511   0.87590   0.82366   0.00000  Uiso   1.00
C16    C     0.03588   0.90025   0.85383   0.00000  Uiso   1.00
C17    C     0.09973   0.91004   0.80587   0.00000  Uiso   1.00
C18    C     0.16388   0.93293   0.85409   0.00000  Uiso   1.00
C19    C     0.13837   0.93700   0.93149   0.00000  Uiso   1.00
N4     N     0.05970   0.91627   0.93100   0.00000  Uiso   1.00
C20    C     0.18958   0.96180   0.00251   0.00000  Uiso   1.00
H1     H     0.05446   0.16225   0.23339   0.00000  Uiso   1.00
H2     H     0.75096   0.04969   0.00132   0.00000  Uiso   1.00
H3     H     0.94543   0.83751   0.76656   0.00000  Uiso   1.00
H4     H     0.24894   0.95010   0.99862   0.00000  Uiso   1.00
H5     H     0.97571   0.09066   0.01945   0.00000  Uiso   1.00
H6     H     0.02419   0.90910   0.98050   0.00000  Uiso   1.00
C21    C     0.10464   0.90389   0.72433   0.00000  Uiso   1.00
C22    C     0.17772   0.92167   0.69204   0.00000  Uiso   1.00
C23    C     0.24416   0.94513   0.74097   0.00000  Uiso   1.00
C24    C     0.23749   0.95088   0.82350   0.00000  Uiso   1.00
C25    C     0.29379   0.03811   0.14911   0.00000  Uiso   1.00
C26    C     0.32790   0.08806   0.21697   0.00000  Uiso   1.00
C27    C     0.28661   0.14438   0.26315   0.00000  Uiso   1.00
C28    C     0.21020   0.14890   0.24438   0.00000  Uiso   1.00
C29    C     0.89525   0.09588   0.27561   0.00000  Uiso   1.00
C30    C     0.82217   0.07812   0.30789   0.00000  Uiso   1.00
C31    C     0.75573   0.05467   0.25896   0.00000  Uiso   1.00
C32    C     0.76240   0.04891   0.17644   0.00000  Uiso   1.00
C33    C     0.70613   0.96171   0.85081   0.00000  Uiso   1.00
C34    C     0.67202   0.91178   0.78294   0.00000  Uiso   1.00
C35    C     0.71330   0.85545   0.73676   0.00000  Uiso   1.00
C36    C     0.78970   0.85090   0.75555   0.00000  Uiso   1.00
H7     H     0.05350   0.88690   0.68587   0.00000  Uiso   1.00
H8     H     0.28819   0.97000   0.86234   0.00000  Uiso   1.00
H9     H     0.32608   0.99512   0.11276   0.00000  Uiso   1.00
H10    H     0.31347   0.18285   0.31610   0.00000  Uiso   1.00
H11    H     0.17853   0.19152   0.28173   0.00000  Uiso   1.00
H12    H     0.94639   0.11286   0.31407   0.00000  Uiso   1.00
H13    H     0.71171   0.02980   0.13759   0.00000  Uiso   1.00
H14    H     0.67384   0.00471   0.88715   0.00000  Uiso   1.00
H15    H     0.68644   0.81699   0.68380   0.00000  Uiso   1.00
H16    H     0.82137   0.80827   0.71820   0.00000  Uiso   1.00
H17    H     0.18219   0.91696   0.62788   0.00000  Uiso   1.00
H18    H     0.81770   0.08284   0.37206   0.00000  Uiso   1.00
O1     O     0.61497   0.02386   0.25190   0.00000  Uiso   1.00
C37    C     0.67930   0.03722   0.29579   0.00000  Uiso   1.00
O2     O     0.57341   0.83310   0.31967   0.00000  Uiso   1.00
O3     O     0.67497   0.03716   0.37389   0.00000  Uiso   1.00
O4     O     0.49618   0.90977   0.39681   0.00000  Uiso   1.00
C38    C     0.53083   0.83541   0.38311   0.00000  Uiso   1.00
Fe1    Fe    0.52455   0.01635   0.32222   0.00000  Uiso   1.00
O5     O     0.42908   0.99885   0.25120   0.00000  Uiso   1.00
O6     O     0.45108   0.16144   0.27271   0.00000  Uiso   1.00
C39    C     0.40729   0.08296   0.24262   0.00000  Uiso   1.00
O7     O     0.55470   0.13824   0.38920   0.00000  Uiso   1.00
O8     O     0.44232   0.07725   0.44968   0.00000  Uiso   1.00
C40    C     0.50334   0.14579   0.44424   0.00000  Uiso   1.00
C41    C     0.47811   0.54825   0.79863   0.00000  Uiso   1.00
C42    C     0.48178   0.24779   0.56383   0.00000  Uiso   1.00
C43    C     0.39978   0.53642   0.81360   0.00000  Uiso   1.00
C44    C     0.34606   0.51552   0.75147   0.00000  Uiso   1.00
C45    C     0.50276   0.53916   0.72153   0.00000  Uiso   1.00
C46    C     0.44903   0.51824   0.65928   0.00000  Uiso   1.00
C47    C     0.37064   0.50644   0.67435   0.00000  Uiso   1.00
C48    C     0.47265   0.33758   0.59395   0.00000  Uiso   1.00
C49    C     0.48631   0.41908   0.54731   0.00000  Uiso   1.00
C50    C     0.47521   0.50873   0.57734   0.00000  Uiso   1.00
C51    C     0.48870   0.58936   0.52977   0.00000  Uiso   1.00
C52    C     0.47899   0.67938   0.55958   0.00000  Uiso   1.00
C53    C     0.49537   0.76061   0.51442   0.00000  Uiso   1.00
C54    C     0.50456   0.23935   0.48541   0.00000  Uiso   1.00
C55    C     0.52094   0.32058   0.44026   0.00000  Uiso   1.00
C56    C     0.51122   0.41060   0.47006   0.00000  Uiso   1.00
C57    C     0.52471   0.49122   0.42249   0.00000  Uiso   1.00
C58    C     0.51362   0.58088   0.45252   0.00000  Uiso   1.00
C59    C     0.52727   0.66238   0.40588   0.00000  Uiso   1.00
C60    C     0.49717   0.46079   0.27830   0.00000  Uiso   1.00
C61    C     0.55089   0.48172   0.34055   0.00000  Uiso   1.00
C62    C     0.62929   0.49353   0.32549   0.00000  Uiso   1.00
C63    C     0.52182   0.45170   0.20121   0.00000  Uiso   1.00
C64    C     0.60015   0.46354   0.18624   0.00000  Uiso   1.00
C65    C     0.51814   0.75217   0.43600   0.00000  Uiso   1.00
C66    C     0.65387   0.48445   0.24836   0.00000  Uiso   1.00
H19    H     0.52020   0.56467   0.84734   0.00000  Uiso   1.00
H20    H     0.38048   0.54355   0.87405   0.00000  Uiso   1.00
H21    H     0.28466   0.50627   0.76324   0.00000  Uiso   1.00
H22    H     0.56416   0.54849   0.70979   0.00000  Uiso   1.00
H23    H     0.32853   0.49010   0.62565   0.00000  Uiso   1.00
H24    H     0.45515   0.34222   0.65508   0.00000  Uiso   1.00
H25    H     0.46252   0.68971   0.62045   0.00000  Uiso   1.00
H26    H     0.53741   0.31024   0.37939   0.00000  Uiso   1.00
H27    H     0.54476   0.65773   0.34475   0.00000  Uiso   1.00
H28    H     0.43577   0.45144   0.29004   0.00000  Uiso   1.00
H29    H     0.67140   0.50989   0.37418   0.00000  Uiso   1.00
H30    H     0.47973   0.43527   0.15249   0.00000  Uiso   1.00
H31    H     0.61945   0.45641   0.12578   0.00000  Uiso   1.00
H32    H     0.71527   0.49372   0.23659   0.00000  Uiso   1.00
O9     O     0.57088   0.00107   0.74874   0.00000  Uiso   1.00
O10    O     0.54885   0.83849   0.72711   0.00000  Uiso   1.00
C67    C     0.59264   0.91693   0.75726   0.00000  Uiso   1.00
O11    O     0.44521   0.86171   0.61063   0.00000  Uiso   1.00
O12    O     0.55762   0.92270   0.55019   0.00000  Uiso   1.00
C68    C     0.49659   0.85416   0.55560   0.00000  Uiso   1.00
O13    O     0.42642   0.16681   0.68010   0.00000  Uiso   1.00
O14    O     0.38492   0.97601   0.74802   0.00000  Uiso   1.00
C69    C     0.32059   0.96264   0.70414   0.00000  Uiso   1.00
O15    O     0.50381   0.09024   0.60308   0.00000  Uiso   1.00
C70    C     0.46908   0.16455   0.61672   0.00000  Uiso   1.00
O16    O     0.32491   0.96274   0.62605   0.00000  Uiso   1.00
Fe2    Fe    0.47538   0.98366   0.67765   0.00000  Uiso   1.00
