# generated using pymatgen
data_CuH7C9NO5
_symmetry_space_group_name_H-M   'P 1'
_cell_length_a   14.02922300
_cell_length_b   11.15318400
_cell_length_c   9.70969300
_cell_angle_alpha   111.78684400
_cell_angle_beta   94.96158700
_cell_angle_gamma   90.95272000
_symmetry_Int_Tables_number   1
_chemical_formula_structural   CuH7C9NO5
_chemical_formula_sum   'Cu2 H14 C18 N2 O10'
_cell_volume   1403.52265617
_cell_formula_units_Z   2
loop_
 _symmetry_equiv_pos_site_id
 _symmetry_equiv_pos_as_xyz
  1  'x, y, z'
loop_
 _atom_site_type_symbol
 _atom_site_label
 _atom_site_symmetry_multiplicity
 _atom_site_fract_x
 _atom_site_fract_y
 _atom_site_fract_z
 _atom_site_occupancy
  Cu  Cu1  1  0.51504100  0.52367500  0.64603600  1
  Cu  Cu2  1  0.48410900  0.47584200  0.35407000  1
  H  H1  1  0.00963500  0.54476400  0.67120900  1
  H  H2  1  0.99151400  0.45377700  0.33073400  1
  H  H3  1  0.48699000  0.86540400  0.36471600  1
  H  H4  1  0.50951600  0.13267100  0.63619400  1
  H  H5  1  0.52434800  0.94738000  0.70423300  1
  H  H6  1  0.48194000  0.05173100  0.29567500  1
  H  H7  1  0.42462900  0.44130700  0.85984500  1
  H  H8  1  0.57578000  0.55946200  0.14664800  1
  H  H9  1  0.54201800  0.75710700  0.97752300  1
  H  H10  1  0.65625000  0.77665000  0.91702100  1
  H  H11  1  0.64665700  0.77934200  0.10694600  1
  H  H12  1  0.33965900  0.22443100  0.08148500  1
  H  H13  1  0.45334500  0.23728600  0.01358900  1
  H  H14  1  0.34530700  0.22219000  0.89253200  1
  C  C1  1  0.49203800  0.25595800  0.44474100  1
  C  C2  1  0.50692700  0.74308800  0.55547300  1
  C  C3  1  0.31831000  0.50569900  0.51848200  1
  C  C4  1  0.68105100  0.49695700  0.48127900  1
  C  C5  1  0.78215000  0.49301300  0.46832500  1
  C  C6  1  0.21742200  0.50797400  0.53038100  1
  C  C7  1  0.96777400  0.48305800  0.44122600  1
  C  C8  1  0.03195300  0.51403900  0.55979900  1
  C  C9  1  0.51289400  0.50255700  0.07824300  1
  C  C10  1  0.48807600  0.49786800  0.92442500  1
  C  C11  1  0.13255800  0.51018700  0.54241200  1
  C  C12  1  0.86686000  0.48902400  0.45771000  1
  C  C13  1  0.49051600  0.11691200  0.41111900  1
  C  C14  1  0.51142500  0.88206800  0.58862300  1
  C  C15  1  0.50115300  0.06988200  0.51941300  1
  C  C16  1  0.49948300  0.92951600  0.48071400  1
  C  C17  1  0.61852800  0.73628000  0.98746700  1
  C  C18  1  0.37753000  0.26338000  0.00993200  1
  N  N1  1  0.46088900  0.44127300  0.13610600  1
  N  N2  1  0.53748200  0.55796900  0.86381300  1
  O  O1  1  0.51003600  0.33537200  0.58363800  1
  O  O2  1  0.49460800  0.66370400  0.41665900  1
  O  O3  1  0.48403800  0.29501400  0.33272400  1
  O  O4  1  0.52216800  0.70416700  0.66666667  1
  O  O5  1  0.37582100  0.52108500  0.63876000  1
  O  O6  1  0.62372300  0.48165000  0.36130000  1
  O  O7  1  0.34910800  0.48711300  0.38988600  1
  O  O8  1  0.65046100  0.51314500  0.61046600  1
  O  O9  1  0.62536400  0.60295400  0.93494400  1
  O  O10  1  0.37387400  0.39746200  0.06400400  1
