# Generated by REPEAT Assigner based on pymatgen
data_DB0-m3_o24_o78_f0_fsc.sym.29
_audit_creation_date              2022-05-24
_audit_creation_method            REPEAT_Assigner
_cell_length_a                    13.341007
_cell_length_b                    6.610960
_cell_length_c                    9.156178
_cell_angle_alpha                 90.000000
_cell_angle_beta                  94.883426
_cell_angle_gamma                 90.000000
_cell_volume                      804.614785
_symmetry_space_group_name_H-M    P1
_symmetry_Int_Tables_number       1
loop_
    _symmetry_equiv_pos_site_id
    _symmetry_equiv_pos_as_xyz
    1  x,y,z
loop_
    _atom_site_type_symbol
    _atom_site_label
    _atom_site_fract_x
    _atom_site_fract_y
    _atom_site_fract_z
    _atom_type_partial_charge
    C   C1   0.176456  0.795492  0.962058  -0.046077
    C   C2   0.824430  0.204706  0.036676  -0.169864
    C   C3   0.820065  0.795976  0.984920  -0.269820
    C   C4   0.180818  0.204222  0.013824  -0.309020
    C   C5   0.267501  0.895973  0.973252  -0.175625
    C   C6   0.733384  0.104228  0.025485  -0.033650
    C   C7   0.731643  0.897250  0.003563  -0.062852
    C   C8   0.269240  0.102951  0.995172  0.030740
    C   C9   0.448203  0.641586  0.548072  -0.001245
    C   C10  0.552687  0.358571  0.450649  -0.197162
    C   C11  0.540931  0.666961  0.466181  -0.435242
    C   C12  0.459953  0.333193  0.532560  0.050097
    C   C13  0.416935  0.492878  0.430207  -0.024105
    C   C14  0.583955  0.507251  0.568519  0.345257
    C   C15  0.090619  0.102289  0.006825  0.113139
    C   C16  0.910264  0.897903  0.991914  0.117290
    C   C17  0.912637  0.102260  0.019763  0.194789
    C   C18  0.088247  0.897933  0.978971  0.164285
    H   H1   0.400366  0.761605  0.590494  0.135134
    H   H2   0.600529  0.238558  0.408226  0.106131
    H   H3   0.578006  0.809880  0.437236  0.207912
    H   H4   0.422885  0.190272  0.561512  0.060604
    C   C19  0.002882  0.204894  0.027166  -0.317405
    C   C20  0.998002  0.795297  0.971569  -0.310665
    Zn  Zn1  0.496349  0.491022  0.836297  1.012583
    Zn  Zn2  0.504536  0.509169  0.162436  0.976750
    H   H5   0.174657  0.634169  0.944509  0.022727
    H   H6   0.826232  0.366029  0.054222  0.044244
    H   H7   0.818425  0.635372  0.964149  0.315652
    H   H8   0.182455  0.364827  0.034599  0.312106
    H   H9   0.004853  0.365613  0.048699  0.130346
    H   H10  0.996029  0.634577  0.950036  0.119659
    O   O1   0.611809  0.714433  0.129334  -0.674779
    O   O2   0.389080  0.285755  0.869399  -0.687768
    O   O3   0.387543  0.696876  0.859068  -0.727963
    O   O4   0.613340  0.303313  0.139662  -0.742398
    O   O5   0.601235  0.707693  0.876576  -0.567986
    O   O6   0.399649  0.292505  0.122155  -0.550691
    O   O7   0.398368  0.720384  0.111457  -0.724620
    O   O8   0.602520  0.279814  0.887277  -0.676695
    C   C21  0.639682  0.777829  0.002931  0.625673
    C   C22  0.361202  0.222368  0.995802  0.601655
    C   C23  0.359264  0.774615  0.980838  0.895435
    C   C24  0.641622  0.225581  0.017894  0.837532
    N   N1   0.507728  0.517448  0.354464  0.422793
    N   N2   0.493161  0.482734  0.644269  0.101179
    S   S1   0.293730  0.484415  0.329966  -0.224209
    C   C25  0.277747  0.755790  0.345935  0.025538
    H   H11  0.247691  0.818303  0.238624  0.077889
    H   H12  0.351764  0.826510  0.377851  0.055337
    H   H13  0.225273  0.788864  0.430523  -0.014502
    S   S2   0.707159  0.516175  0.668739  -0.286171
    C   C26  0.703871  0.789985  0.680281  -0.004281
    H   H14  0.748067  0.839778  0.781999  0.105728
    H   H15  0.624910  0.840734  0.684178  0.042134
    H   H16  0.736076  0.856673  0.583441  -0.015546
