data_DB0-m3_o160_o96_f0_fsc.sym.25_repeat
_audit_creation_date              2024-02-23
_audit_creation_method            'Materials Studio'
_symmetry_space_group_name_H-M    'P1'
_symmetry_Int_Tables_number       1
_symmetry_cell_setting            triclinic
loop_
_symmetry_equiv_pos_as_xyz
  x,y,z
_cell_length_a                    13.4841
_cell_length_b                    13.3050
_cell_length_c                    16.1136
_cell_angle_alpha                 94.7607
_cell_angle_beta                  90.0471
_cell_angle_gamma                 90.6228
loop_
_atom_site_label
_atom_site_type_symbol
_atom_site_fract_x
_atom_site_fract_y
_atom_site_fract_z
_atom_site_U_iso_or_equiv
_atom_site_adp_type
_atom_site_occupancy
C1     C     0.82071   0.02611   0.21740   0.00000  Uiso   1.00
C2     C     0.76384   0.07229   0.16222   0.00000  Uiso   1.00
C3     C     0.81549   0.07216   0.08892   0.00000  Uiso   1.00
N1     N     0.90636   0.03251   0.09862   0.00000  Uiso   1.00
C4     C     0.91090   0.00559   0.17813   0.00000  Uiso   1.00
C5     C     0.77527   0.09839   0.01772   0.00000  Uiso   1.00
C6     C     0.81429   0.07236   0.93371   0.00000  Uiso   1.00
C7     C     0.75699   0.05814   0.86255   0.00000  Uiso   1.00
C8     C     0.81847   0.03237   0.79737   0.00000  Uiso   1.00
C9     C     0.91402   0.03224   0.83086   0.00000  Uiso   1.00
N2     N     0.91004   0.05807   0.91387   0.00000  Uiso   1.00
C10    C     0.00729   0.01434   0.78490   0.00000  Uiso   1.00
C11    C     0.08992   0.98308   0.82089   0.00000  Uiso   1.00
C12    C     0.17968   0.96604   0.78139   0.00000  Uiso   1.00
C13    C     0.24042   0.92614   0.83717   0.00000  Uiso   1.00
C14    C     0.18952   0.92468   0.91074   0.00000  Uiso   1.00
N3     N     0.09667   0.95922   0.90101   0.00000  Uiso   1.00
C15    C     0.23108   0.90156   0.98208   0.00000  Uiso   1.00
C16    C     0.19018   0.92632   0.06555   0.00000  Uiso   1.00
C17    C     0.24678   0.94477   0.13657   0.00000  Uiso   1.00
C18    C     0.18416   0.96689   0.20166   0.00000  Uiso   1.00
C19    C     0.08808   0.96013   0.16808   0.00000  Uiso   1.00
N4     N     0.09358   0.93444   0.08513   0.00000  Uiso   1.00
C20    C     0.99302   0.97044   0.21341   0.00000  Uiso   1.00
H1     H     0.70102   0.12754   0.01982   0.00000  Uiso   1.00
H2     H     0.00739   0.02382   0.71881   0.00000  Uiso   1.00
H3     H     0.30662   0.87590   0.98026   0.00000  Uiso   1.00
H4     H     0.96913   0.07269   0.95479   0.00000  Uiso   1.00
H5     H     0.03492   0.91591   0.04448   0.00000  Uiso   1.00
C21    C     0.34779   0.94154   0.14667   0.00000  Uiso   1.00
C22    C     0.38570   0.95920   0.22602   0.00000  Uiso   1.00
C23    C     0.32452   0.98408   0.29363   0.00000  Uiso   1.00
C24    C     0.22210   0.98929   0.28190   0.00000  Uiso   1.00
C25    C     0.78217   0.00487   0.29373   0.00000  Uiso   1.00
C26    C     0.68794   0.03825   0.31309   0.00000  Uiso   1.00
C27    C     0.63431   0.09207   0.25874   0.00000  Uiso   1.00
C28    C     0.67062   0.10714   0.18145   0.00000  Uiso   1.00
C29    C     0.65664   0.06765   0.85215   0.00000  Uiso   1.00
C30    C     0.61855   0.05168   0.77267   0.00000  Uiso   1.00
C31    C     0.67850   0.02287   0.70494   0.00000  Uiso   1.00
C32    C     0.78091   0.01286   0.71681   0.00000  Uiso   1.00
C33    C     0.21398   0.98937   0.70457   0.00000  Uiso   1.00
C34    C     0.31200   0.96690   0.68621   0.00000  Uiso   1.00
C35    C     0.37071   0.91930   0.74142   0.00000  Uiso   1.00
C36    C     0.33633   0.90038   0.81851   0.00000  Uiso   1.00
H6     H     0.39725   0.92319   0.09513   0.00000  Uiso   1.00
H7     H     0.17519   0.00756   0.33492   0.00000  Uiso   1.00
H8     H     0.82056   0.96313   0.33804   0.00000  Uiso   1.00
H9     H     0.56076   0.11838   0.27510   0.00000  Uiso   1.00
H10    H     0.62570   0.14593   0.13909   0.00000  Uiso   1.00
H11    H     0.60795   0.08893   0.90363   0.00000  Uiso   1.00
H12    H     0.82931   0.99306   0.66471   0.00000  Uiso   1.00
H13    H     0.16788   0.02490   0.66086   0.00000  Uiso   1.00
H14    H     0.44637   0.90023   0.72532   0.00000  Uiso   1.00
H15    H     0.38512   0.86718   0.86149   0.00000  Uiso   1.00
H16    H     0.46458   0.95284   0.23566   0.00000  Uiso   1.00
H17    H     0.54016   0.06198   0.76308   0.00000  Uiso   1.00
O1     O     0.39176   0.08301   0.41362   0.00000  Uiso   1.00
O2     O     0.41432   0.91152   0.39935   0.00000  Uiso   1.00
C37    C     0.37253   0.99313   0.37621   0.00000  Uiso   1.00
O3     O     0.61879   0.92724   0.40678   0.00000  Uiso   1.00
O4     O     0.59681   0.09949   0.42724   0.00000  Uiso   1.00
C38    C     0.63989   0.02047   0.39070   0.00000  Uiso   1.00
O5     O     0.60843   0.92315   0.58594   0.00000  Uiso   1.00
O6     O     0.58654   0.09504   0.59973   0.00000  Uiso   1.00
C39    C     0.62861   0.01332   0.62284   0.00000  Uiso   1.00
O7     O     0.38154   0.07859   0.59292   0.00000  Uiso   1.00
O8     O     0.40289   0.90705   0.57191   0.00000  Uiso   1.00
C40    C     0.35915   0.98553   0.60832   0.00000  Uiso   1.00
Zn1    Zn    0.51444   0.89179   0.48934   0.00000  Uiso   1.00
Zn2    Zn    0.48565   0.11440   0.51021   0.00000  Uiso   1.00
C41    C     0.56473   0.29726   0.53129   0.00000  Uiso   1.00
N5     N     0.47802   0.24637   0.52081   0.00000  Uiso   1.00
C42    C     0.39487   0.29566   0.50412   0.00000  Uiso   1.00
C43    C     0.39771   0.39826   0.49639   0.00000  Uiso   1.00
C44    C     0.48716   0.45180   0.50443   0.00000  Uiso   1.00
C45    C     0.57062   0.39947   0.52373   0.00000  Uiso   1.00
C46    C     0.41833   0.61322   0.47245   0.00000  Uiso   1.00
C47    C     0.49695   0.55468   0.49343   0.00000  Uiso   1.00
C48    C     0.58883   0.60141   0.50451   0.00000  Uiso   1.00
C49    C     0.66952   0.54572   0.52473   0.00000  Uiso   1.00
N6     N     0.65926   0.44654   0.53326   0.00000  Uiso   1.00
C50    C     0.43181   0.71463   0.46643   0.00000  Uiso   1.00
N7     N     0.52126   0.75969   0.47885   0.00000  Uiso   1.00
C51    C     0.59994   0.70430   0.49754   0.00000  Uiso   1.00
H18    H     0.32577   0.25457   0.49391   0.00000  Uiso   1.00
H19    H     0.67095   0.74081   0.51028   0.00000  Uiso   1.00
H20    H     0.74157   0.58143   0.53352   0.00000  Uiso   1.00
H21    H     0.32840   0.43228   0.48230   0.00000  Uiso   1.00
H22    H     0.34413   0.58445   0.46235   0.00000  Uiso   1.00
H23    H     0.63237   0.25754   0.54178   0.00000  Uiso   1.00
H24    H     0.36686   0.75823   0.45572   0.00000  Uiso   1.00
N8     N     0.98987   0.94504   0.29761   0.00000  Uiso   1.00
H25    H     0.00902   0.00897   0.33647   0.00000  Uiso   1.00
H26    H     0.03969   0.88695   0.30500   0.00000  Uiso   1.00
