# generated using pymatgen
data_Cu3H30C49NO13
_symmetry_space_group_name_H-M   'P 1'
_cell_length_a   18.59148300
_cell_length_b   18.62300600
_cell_length_c   18.69484400
_cell_angle_alpha   109.31956000
_cell_angle_beta   109.86801600
_cell_angle_gamma   109.02544400
_symmetry_Int_Tables_number   1
_chemical_formula_structural   Cu3H30C49NO13
_chemical_formula_sum   'Cu6 H60 C98 N2 O26'
_cell_volume   4994.77981014
_cell_formula_units_Z   2
loop_
 _symmetry_equiv_pos_site_id
 _symmetry_equiv_pos_as_xyz
  1  'x, y, z'
loop_
 _atom_site_type_symbol
 _atom_site_label
 _atom_site_symmetry_multiplicity
 _atom_site_fract_x
 _atom_site_fract_y
 _atom_site_fract_z
 _atom_site_occupancy
  Cu  Cu1  1  0.50097400  0.43824000  0.44289400  1
  Cu  Cu2  1  0.49792700  0.55777100  0.56247800  1
  Cu  Cu3  1  0.94397500  0.43975000  0.00770800  1
  Cu  Cu4  1  0.06557700  0.56086800  0.00863800  1
  Cu  Cu5  1  0.06353600  0.99817900  0.56774800  1
  Cu  Cu6  1  0.94209400  0.00008900  0.44680500  1
  H  H1  1  0.22857800  0.61842300  0.32095800  1
  H  H2  1  0.38912900  0.63528400  0.33272400  1
  H  H3  1  0.29537300  0.51877400  0.15037600  1
  H  H4  1  0.11254700  0.36227300  0.17680300  1
  H  H5  1  0.20743000  0.48062600  0.35858600  1
  H  H6  1  0.54961000  0.71378800  0.49362900  1
  H  H7  1  0.54164300  0.84134500  0.49950500  1
  H  H8  1  0.66226900  0.96080500  0.51352600  1
  H  H9  1  0.78933800  0.95118600  0.51902300  1
  H  H10  1  0.94036000  0.77458900  0.49563600  1
  H  H11  1  0.95334600  0.65307200  0.49841400  1
  H  H12  1  0.72334500  0.55995600  0.51547500  1
  H  H13  1  0.54589200  0.20233700  0.55406600  1
  H  H14  1  0.72343000  0.66200600  0.71710800  1
  H  H15  1  0.84502800  0.79726700  0.84306000  1
  H  H16  1  0.95415000  0.79789000  0.96279800  1
  H  H17  1  0.94262900  0.66326900  0.95516600  1
  H  H18  1  0.79228100  0.33813200  0.78407100  1
  H  H19  1  0.66626500  0.20293200  0.66259200  1
  H  H20  1  0.55302000  0.33695200  0.56619800  1
  H  H21  1  0.16340200  0.14257000  0.20601800  1
  H  H22  1  0.44840500  0.44087400  0.66616000  1
  H  H23  1  0.45476700  0.45920700  0.80154600  1
  H  H24  1  0.33665400  0.35215100  0.80277600  1
  H  H25  1  0.21370800  0.22572900  0.66853500  1
  H  H26  1  0.06938900  0.04176900  0.34624300  1
  H  H27  1  0.05847300  0.02566300  0.20983400  1
  H  H28  1  0.28014200  0.27520500  0.33867800  1
  H  H29  1  0.70408000  0.54726100  0.04821200  1
  H  H30  1  0.16695500  0.71263400  0.23111700  1
  H  H31  1  0.30218700  0.83852500  0.35298700  1
  H  H32  1  0.30149200  0.95736600  0.46003900  1
  H  H33  1  0.16554300  0.94859700  0.44620300  1
  H  H34  1  0.83894300  0.77532800  0.29386000  1
  H  H35  1  0.70357000  0.65400500  0.16732400  1
  H  H36  1  0.83997100  0.56086800  0.05710900  1
  H  H37  1  0.98945800  0.14848600  0.95497200  1
  H  H38  1  0.01035600  0.44819100  0.79204200  1
  H  H39  1  0.02890400  0.46774900  0.67811100  1
  H  H40  1  0.03739400  0.35800900  0.56959800  1
  H  H41  1  0.02725900  0.22868200  0.57565200  1
  H  H42  1  0.98134700  0.04415300  0.71342200  1
  H  H43  1  0.97605800  0.02949700  0.83445700  1
  H  H44  1  0.00644000  0.28100000  0.95338300  1
  H  H45  1  0.38194300  0.43806500  0.16874600  1
  H  H46  1  0.27375700  0.37280300  0.07058000  1
  H  H47  1  0.38670100  0.30339100  0.15527400  1
  H  H48  1  0.36947200  0.31032700  0.05790600  1
  H  H49  1  0.27774600  0.21220900  0.15872800  1
  H  H50  1  0.16904900  0.14428600  0.06485200  1
  H  H51  1  0.17910000  0.26848100  0.17832900  1
  H  H52  1  0.15163000  0.27210000  0.07707300  1
  H  H53  1  0.72578300  0.44561200  0.39208800  1
  H  H54  1  0.75584500  0.39423500  0.45516100  1
  H  H55  1  0.84292500  0.45466200  0.35684500  1
  H  H56  1  0.77446600  0.34465300  0.32788500  1
  H  H57  1  0.97727300  0.53469500  0.46791400  1
  H  H58  1  0.02069300  0.49758900  0.53983500  1
  H  H59  1  0.97948500  0.60742500  0.60698100  1
  H  H60  1  0.92549100  0.50382900  0.59929000  1
  C  C1  1  0.61656100  0.61672000  0.50356600  1
  C  C2  1  0.38099700  0.49714000  0.38366000  1
  C  C3  1  0.38267500  0.37927800  0.50223300  1
  C  C4  1  0.61864400  0.49931300  0.62178400  1
  C  C5  1  0.32612900  0.57302000  0.29624100  1
  C  C6  1  0.23997300  0.56382200  0.29162800  1
  C  C7  1  0.19174500  0.49899700  0.19498600  1
  C  C8  1  0.27694400  0.50848300  0.19813700  1
  C  C9  1  0.26297700  0.43422200  0.21778100  1
  C  C10  1  0.17674300  0.42307000  0.21235900  1
  C  C11  1  0.22657100  0.48832000  0.31038100  1
  C  C12  1  0.31181300  0.49740800  0.31406000  1
  C  C13  1  0.60470300  0.76415400  0.50000700  1
  C  C14  1  0.59895400  0.83662100  0.50265300  1
  C  C15  1  0.66624100  0.90325400  0.51017000  1
  C  C16  1  0.73839500  0.89656000  0.51255900  1
  C  C17  1  0.74430500  0.82265200  0.50762500  1
  C  C18  1  0.67824800  0.75722400  0.50453900  1
  C  C19  1  0.81585000  0.81435500  0.50677900  1
  C  C20  1  0.82200600  0.74131400  0.50501900  1
  C  C21  1  0.75813400  0.67803200  0.50611100  1
  C  C22  1  0.68547700  0.68519400  0.50477900  1
  C  C23  1  0.89109500  0.72996700  0.50091300  1
  C  C24  1  0.89905800  0.65954500  0.50235400  1
  C  C25  1  0.83828800  0.59895200  0.50819000  1
  C  C26  1  0.76832700  0.60835900  0.50973000  1
  C  C27  1  0.76908800  0.65810000  0.76763800  1
  C  C28  1  0.83880300  0.73614400  0.83919500  1
  C  C29  1  0.89995600  0.73649200  0.90600400  1
  C  C30  1  0.89286000  0.65880100  0.90047400  1
  C  C31  1  0.82387400  0.57914900  0.82757000  1
  C  C32  1  0.75969800  0.57879600  0.76183500  1
  C  C33  1  0.81817000  0.50045800  0.82066600  1
  C  C34  1  0.74698200  0.42142900  0.74853200  1
  C  C35  1  0.68094700  0.42108600  0.68468400  1
  C  C36  1  0.68756300  0.49976400  0.69067600  1
  C  C37  1  0.74146000  0.34209400  0.73877700  1
  C  C38  1  0.66987500  0.26405700  0.66907600  1
  C  C39  1  0.60273200  0.26372300  0.60825800  1
  C  C40  1  0.60800100  0.34142900  0.61569000  1
  C  C41  1  0.39416700  0.39209700  0.66232800  1
  C  C42  1  0.39909500  0.40301900  0.74056900  1
  C  C43  1  0.33322700  0.34303500  0.74128700  1
  C  C44  1  0.26338600  0.27066000  0.66388900  1
  C  C45  1  0.25829900  0.25758800  0.58421900  1
  C  C46  1  0.32271400  0.32050300  0.58309300  1
  C  C47  1  0.18916200  0.18278600  0.50620000  1
  C  C48  1  0.18406900  0.17159600  0.42694300  1
  C  C49  1  0.24618500  0.23624700  0.42529300  1
  C  C50  1  0.31606400  0.31083600  0.50349600  1
  C  C51  1  0.11738900  0.09547000  0.34874500  1
  C  C52  1  0.11066700  0.08512300  0.27012200  1
  C  C53  1  0.16955600  0.15054400  0.26805800  1
  C  C54  1  0.23665200  0.22577800  0.34474400  1
  C  C55  1  0.00357300  0.61736300  0.12485400  1
  C  C56  1  0.12247500  0.49980300  0.12630400  1
  C  C57  1  0.00600200  0.38322900  0.89142400  1
  C  C58  1  0.88679200  0.50070700  0.88967300  1
  C  C59  1  0.00214000  0.88115500  0.38939800  1
  C  C60  1  0.88443900  0.88226700  0.50712500  1
  C  C61  1  0.00372300  0.11721400  0.62522900  1
  C  C62  1  0.12110000  0.11585800  0.50725100  1
  C  C63  1  0.16238900  0.76268900  0.27578400  1
  C  C64  1  0.24047200  0.83423300  0.34571900  1
  C  C65  1  0.24008200  0.90050400  0.40571200  1
  C  C66  1  0.16161800  0.89429600  0.39732000  1
  C  C67  1  0.08192700  0.82126300  0.32818900  1
  C  C68  1  0.08229700  0.75629300  0.26505400  1
  C  C69  1  0.00247100  0.81341200  0.32137000  1
  C  C70  1  0.92337200  0.74136500  0.25004800  1
  C  C71  1  0.92370400  0.67845900  0.18483400  1
  C  C72  1  0.00317600  0.68525900  0.19269000  1
  C  C73  1  0.84336800  0.73077700  0.24359600  1
  C  C74  1  0.76525000  0.66117200  0.17172700  1
  C  C75  1  0.76553900  0.60134300  0.10528200  1
  C  C76  1  0.84396000  0.60959700  0.11155900  1
  C  C77  1  0.01516600  0.39833700  0.74742600  1
  C  C78  1  0.02460300  0.40989100  0.68161600  1
  C  C79  1  0.02937300  0.34854200  0.62098500  1
  C  C80  1  0.02303900  0.27454500  0.62500900  1
  C  C81  1  0.01277800  0.26141500  0.69078300  1
  C  C82  1  0.01179000  0.32531600  0.75442800  1
  C  C83  1  0.00438800  0.18554400  0.69356800  1
  C  C84  1  0.99769700  0.17484200  0.76165400  1
  C  C85  1  0.00072100  0.24038800  0.82754500  1
  C  C86  1  0.00635400  0.31527000  0.82341000  1
  C  C87  1  0.98734300  0.09848800  0.76429600  1
  C  C88  1  0.98368500  0.08898500  0.83300100  1
  C  C89  1  0.99086300  0.15538600  0.90020800  1
  C  C90  1  0.99960200  0.23066900  0.89793700  1
  C  C91  1  0.31940000  0.37490100  0.12886700  1
  C  C92  1  0.33907200  0.30132400  0.09829000  1
  C  C93  1  0.22873500  0.20960400  0.10227700  1
  C  C94  1  0.20370600  0.27859000  0.13420600  1
  C  C95  1  0.78127600  0.44199700  0.43486400  1
  C  C96  1  0.82352100  0.41166600  0.38386300  1
  C  C97  1  0.96012700  0.49643600  0.49978500  1
  C  C98  1  0.93028100  0.53725500  0.56051000  1
  N  N1  1  0.27954900  0.36396700  0.18098100  1
  N  N2  1  0.84495700  0.52634400  0.51150900  1
  O  O1  1  0.57163400  0.53664100  0.43566000  1
  O  O2  1  0.60323100  0.63795800  0.57087100  1
  O  O3  1  0.39448300  0.42962700  0.36246600  1
  O  O4  1  0.42538900  0.56465600  0.46380600  1
  O  O5  1  0.42987600  0.35841900  0.46872500  1
  O  O6  1  0.39308900  0.45900100  0.53551700  1
  O  O7  1  0.60706900  0.46545100  0.54184400  1
  O  O8  1  0.57100600  0.53240100  0.64263800  1
  O  O9  1  0.96969100  0.53712000  0.11282200  1
  O  O10  1  0.03796000  0.63957300  0.07901900  1
  O  O11  1  0.04227300  0.43170600  0.07977800  1
  O  O12  1  0.14466600  0.56819800  0.11462000  1
  O  O13  1  0.93722300  0.36126700  0.90276500  1
  O  O14  1  0.07430900  0.46329400  0.93817900  1
  O  O15  1  0.86457400  0.46662900  0.93574500  1
  O  O16  1  0.96758500  0.53470300  0.90249300  1
  O  O17  1  0.03690600  0.89305800  0.46964000  1
  O  O18  1  0.96741500  0.92743000  0.36742100  1
  O  O19  1  0.96522500  0.92698300  0.57484600  1
  O  O20  1  0.86232500  0.89547500  0.43952100  1
  O  O21  1  0.07145000  0.10359900  0.64720800  1
  O  O22  1  0.93555400  0.07248500  0.54488700  1
  O  O23  1  0.14309400  0.06967100  0.54196600  1
  O  O24  1  0.04061600  0.10437700  0.47271900  1
  O  O25  1  0.26114600  0.22073400  0.04699900  1
  O  O26  1  0.89570600  0.40944200  0.43735400  1
