# Generated by REPEAT Assigner based on pymatgen
data_DB0-m3_o6_o11_f0_pcu.sym.43_sqe
_audit_creation_date              2022-05-24
_audit_creation_method            REPEAT_Assigner
_cell_length_a                    16.127539
_cell_length_b                    15.000435
_cell_length_c                    11.188059
_cell_angle_alpha                 90.000000
_cell_angle_beta                  89.990943
_cell_angle_gamma                 90.000000
_cell_volume                      2706.616388
_symmetry_space_group_name_H-M    P1
_symmetry_Int_Tables_number       1
loop_
    _symmetry_equiv_pos_site_id
    _symmetry_equiv_pos_as_xyz
    1  x,y,z
loop_
    _atom_site_type_symbol
    _atom_site_label
    _atom_site_fract_x
    _atom_site_fract_y
    _atom_site_fract_z
    _atom_type_partial_charge
    O   O1   0.379868  0.589266  0.500370  -0.575694
    O   O2   0.626689  0.592539  0.515777  -0.650058
    O   O3   0.380998  0.435417  0.501183  -0.654692
    O   O4   0.627889  0.438559  0.515073  -0.670090
    C   C1   0.341924  0.512027  0.498732  0.749484
    C   C2   0.665775  0.515867  0.517487  0.863502
    O   O5   0.508785  0.590745  0.329961  -0.689087
    O   O6   0.497757  0.590913  0.686170  -0.708555
    O   O7   0.509375  0.437114  0.330366  -0.596326
    O   O8   0.499534  0.437241  0.685875  -0.603935
    C   C3   0.510085  0.513665  0.273909  0.792675
    C   C4   0.497652  0.513804  0.742253  0.808328
    Zn  Zn1  0.502982  0.615379  0.508022  1.052048
    Zn  Zn2  0.504721  0.412576  0.508153  1.046639
    C   C5   0.515615  0.446605  0.943738  0.178853
    C   C6   0.493625  0.446167  0.072168  0.218962
    C   C7   0.487782  0.512925  0.873381  -0.407583
    C   C8   0.519928  0.513075  0.142753  -0.417635
    H   H1   0.451046  0.565615  0.913310  0.146307
    H   H2   0.555306  0.566852  0.102882  0.149850
    H   H3   0.081721  0.654952  0.510151  0.124641
    H   H4   0.929306  0.656874  0.518031  0.137765
    C   C9   0.962054  0.594074  0.513827  -0.184478
    C   C10  0.047495  0.592993  0.509201  -0.165553
    C   C11  0.918409  0.515032  0.512931  0.254026
    C   C12  0.089294  0.512894  0.503500  0.263589
    C   C13  0.960209  0.434934  0.507230  -0.176608
    C   C14  0.045650  0.433853  0.502607  -0.187501
    H   H5   0.925985  0.372975  0.506265  0.136673
    H   H6   0.078399  0.371053  0.498391  0.140862
    C   C15  0.829463  0.516048  0.516354  -0.091364
    C   C16  0.178238  0.511875  0.500030  -0.141714
    C   C17  0.252948  0.511540  0.498419  -0.178774
    C   C18  0.754752  0.516373  0.517902  -0.264630
    H   H7   0.375790  0.099326  0.539546  0.183681
    H   H8   0.634637  0.095902  0.474592  0.179212
    C   C19  0.430092  0.969404  0.523109  0.295066
    C   C20  0.577260  0.967669  0.487479  0.277391
    C   C21  0.503001  0.921911  0.504572  -0.193688
    C   C22  0.577527  0.059743  0.489053  -0.362035
    C   C23  0.431957  0.061482  0.525246  -0.356614
    C   C24  0.505259  0.106405  0.507744  0.309107
    C   C25  0.501661  0.825909  0.506424  0.229384
    C   C26  0.505996  0.202103  0.508116  0.114106
    N   N1   0.506160  0.279247  0.508313  -0.191136
    N   N2   0.501439  0.748724  0.507762  -0.169815
    C   C27  0.580512  0.381540  0.901692  -0.303055
    C   C28  0.547436  0.290633  0.872261  0.297890
    C   C29  0.602038  0.219655  0.874165  -0.245780
    C   C30  0.574733  0.134415  0.850395  -0.104398
    C   C31  0.492617  0.119481  0.823477  -0.056713
    C   C32  0.438067  0.190035  0.818724  -0.068401
    C   C33  0.465120  0.275437  0.842612  -0.120843
    H   H9   0.625977  0.374331  0.975265  0.079436
    H   H10  0.616580  0.407831  0.825178  0.112471
    H   H11  0.666614  0.230568  0.895544  0.111509
    H   H12  0.617776  0.079226  0.853246  0.085219
    H   H13  0.471137  0.052591  0.805247  0.040615
    H   H14  0.373764  0.178424  0.796347  0.059180
    H   H15  0.420647  0.329035  0.837252  0.088135
    C   C34  0.430727  0.378841  0.114146  -0.344827
    C   C35  0.466571  0.288815  0.141575  0.283537
    C   C36  0.414624  0.215673  0.135958  -0.216173
    C   C37  0.444735  0.131245  0.157805  -0.137046
    C   C38  0.526924  0.119291  0.186862  -0.082704
    C   C39  0.578795  0.191954  0.195226  -0.034210
    C   C40  0.548989  0.276534  0.172967  -0.139954
    H   H16  0.384918  0.370896  0.041163  0.087143
    H   H17  0.394456  0.403268  0.191543  0.123229
    H   H18  0.349988  0.224216  0.113065  0.109165
    H   H19  0.403842  0.074353  0.151732  0.106964
    H   H20  0.550577  0.053053  0.203738  0.055355
    H   H21  0.643168  0.182650  0.219074  0.056151
    H   H22  0.591422  0.331842  0.180894  0.092859
    C   C41  0.349002  0.923059  0.542812  -0.241901
    C   C42  0.317539  0.883298  0.429149  0.170190
    C   C43  0.298974  0.793527  0.423279  -0.145513
    C   C44  0.268855  0.757159  0.318733  -0.058376
    C   C45  0.256557  0.810456  0.219996  -0.159510
    C   C46  0.273815  0.900311  0.226078  -0.080420
    C   C47  0.303931  0.936785  0.330549  -0.197821
    H   H23  0.302403  0.971896  0.574677  0.089233
    H   H24  0.355626  0.871482  0.613155  0.093958
    H   H25  0.307418  0.751382  0.500587  0.098118
    H   H26  0.254590  0.686830  0.314327  0.108976
    H   H27  0.232827  0.781930  0.138131  0.112302
    H   H28  0.263442  0.942314  0.149005  0.105791
    H   H29  0.316175  0.007530  0.334699  0.102120
    C   C48  0.658131  0.921057  0.465742  -0.225646
    C   C49  0.715717  0.937863  0.567601  0.260860
    C   C50  0.788515  0.984691  0.550038  -0.262380
    C   C51  0.841674  0.999470  0.644522  -0.047208
    C   C52  0.822475  0.967344  0.756577  -0.165796
    C   C53  0.750108  0.920272  0.774199  0.008643
    C   C54  0.696816  0.905485  0.679893  -0.244815
    H   H30  0.685365  0.947749  0.382092  0.099545
    H   H31  0.651616  0.848192  0.454005  0.083575
    H   H32  0.804358  0.010221  0.462617  0.126416
    H   H33  0.898506  0.036254  0.630663  0.103606
    H   H34  0.864226  0.978915  0.830546  0.109240
    H   H35  0.735155  0.894842  0.862001  0.083840
    H   H36  0.640439  0.868057  0.694368  0.123634
