# Generated by REPEAT Assigner based on pymatgen
data_DB0-m3_o12_o18_f0_pcu.sym.6_sqe
_audit_creation_date              2022-05-24
_audit_creation_method            REPEAT_Assigner
_cell_length_a                    10.115787
_cell_length_b                    11.231532
_cell_length_c                    14.598426
_cell_angle_alpha                 92.220727
_cell_angle_beta                  101.793833
_cell_angle_gamma                 92.477299
_cell_volume                      1620.158729
_symmetry_space_group_name_H-M    P1
_symmetry_Int_Tables_number       1
loop_
    _symmetry_equiv_pos_site_id
    _symmetry_equiv_pos_as_xyz
    1  x,y,z
loop_
    _atom_site_type_symbol
    _atom_site_label
    _atom_site_fract_x
    _atom_site_fract_y
    _atom_site_fract_z
    _atom_type_partial_charge
    O   O1   0.915752  0.693636  0.491334  -0.630052
    O   O2   0.062720  0.312007  0.491129  -0.630184
    O   O3   0.129256  0.660367  0.466119  -0.701148
    O   O4   0.849226  0.345279  0.516356  -0.704589
    C   C1   0.032930  0.731685  0.475432  0.781800
    C   C2   0.945548  0.273958  0.507042  0.782940
    O   O5   0.955812  0.540181  0.641516  -0.670683
    O   O6   0.022666  0.465476  0.340959  -0.670626
    O   O7   0.168787  0.506471  0.615899  -0.729997
    O   O8   0.809696  0.499166  0.366573  -0.732601
    C   C3   0.086299  0.530669  0.672030  0.842528
    C   C4   0.892184  0.474989  0.310435  0.844352
    Zn  Zn1  0.848515  0.524924  0.507847  1.038194
    Zn  Zn2  0.129965  0.480720  0.474626  1.030254
    C   C5   0.144623  0.551898  0.772743  -0.261914
    C   C6   0.833946  0.454025  0.209673  -0.265003
    C   C7   0.138843  0.639637  0.922861  -0.404091
    C   C8   0.840248  0.367230  0.059340  -0.404899
    C   C9   0.080646  0.619991  0.829620  0.448541
    C   C10  0.898317  0.386588  0.152626  0.451037
    C   C11  0.269100  0.508042  0.809954  -0.062757
    C   C12  0.709291  0.497621  0.172527  -0.063343
    C   C13  0.331814  0.530265  0.904238  -0.040715
    C   C14  0.646932  0.476007  0.078112  -0.032678
    C   C15  0.263544  0.596421  0.959994  0.126551
    C   C16  0.715443  0.410278  0.022258  0.119113
    C   C17  0.460398  0.489481  0.943910  0.080657
    C   C18  0.518439  0.516950  0.038403  0.067227
    C   C19  0.445999  0.584355  0.091183  -0.385017
    C   C20  0.533090  0.422508  0.891031  -0.397018
    C   C21  0.320232  0.621599  0.053107  0.313236
    C   C22  0.658954  0.385448  0.929071  0.324161
    H   H1   0.664468  0.548564  0.220552  0.083003
    H   H2   0.313372  0.456247  0.762106  0.082747
    H   H3   0.085814  0.692470  0.965686  0.195547
    H   H4   0.893530  0.314838  0.016405  0.196020
    H   H5   0.482578  0.611969  0.163376  0.207074
    H   H6   0.496834  0.395416  0.818703  0.209975
    H   H7   0.099780  0.097253  0.473354  0.128204
    H   H8   0.878700  0.908373  0.509128  0.126509
    C   C23  0.060196  0.860471  0.471555  -0.319581
    C   C24  0.918278  0.145173  0.510921  -0.315569
    C   C25  0.973089  0.938554  0.491439  -0.042396
    C   C26  0.005385  0.067087  0.491042  -0.049465
    H   H9   0.823374  0.113314  0.527094  0.147979
    H   H10  0.155099  0.892326  0.455380  0.148659
    H   H11  0.571646  0.431934  0.426649  0.162152
    H   H12  0.406773  0.573980  0.555617  0.161905
    N   N1   0.315660  0.451378  0.454065  0.147387
    N   N2   0.662817  0.554264  0.528404  0.140727
    C   C27  0.420935  0.511058  0.500795  -0.020390
    C   C28  0.557519  0.494706  0.481580  -0.014624
    O   O9   0.254844  0.689268  0.108150  -0.411050
    C   C29  0.192028  0.607810  0.157656  0.264613
    H   H13  0.253709  0.602537  0.229383  -0.018189
    H   H14  0.180415  0.518333  0.121237  -0.049374
    H   H15  0.090403  0.637872  0.162002  -0.003198
    O   O10  0.724641  0.318284  0.873902  -0.413060
    C   C30  0.787357  0.400211  0.824712  0.262094
    H   H16  0.798658  0.489517  0.861388  -0.048725
    H   H17  0.725775  0.405709  0.752978  -0.017026
    H   H18  0.889108  0.370468  0.820370  -0.002427
    O   O11  0.017712  0.336060  0.187659  -0.304308
    C   C31  0.981905  0.218052  0.203054  0.061477
    H   H19  0.002305  0.158300  0.145815  0.013661
    H   H20  0.873220  0.208472  0.205781  0.007456
    H   H21  0.042134  0.192290  0.270905  0.053091
    O   O12  0.961523  0.670866  0.794446  -0.306304
    C   C32  0.997918  0.788570  0.778586  0.067317
    H   H22  0.106755  0.797696  0.776218  0.005945
    H   H23  0.977307  0.848921  0.835402  0.012965
    H   H24  0.938249  0.813944  0.710432  0.050400
    O   O13  0.643223  0.626491  0.599063  -0.249491
    C   C33  0.636161  0.740142  0.563277  0.180349
    H   H25  0.535656  0.775079  0.564572  0.007569
    H   H26  0.650985  0.735861  0.490066  -0.011242
    H   H27  0.715894  0.800870  0.606622  0.041818
    O   O14  0.335307  0.378809  0.383620  -0.251910
    C   C34  0.342627  0.265380  0.419798  0.182191
    H   H28  0.263108  0.204331  0.376583  0.040782
    H   H29  0.327649  0.269997  0.492969  -0.011750
    H   H30  0.443270  0.230598  0.418728  0.007187
