# Generated by REPEAT Assigner based on pymatgen
data_DB0-m3_o146_o6_f0_fsc.sym.137
_audit_creation_date              2022-05-24
_audit_creation_method            REPEAT_Assigner
_cell_length_a                    15.509140
_cell_length_b                    11.769281
_cell_length_c                    14.397329
_cell_angle_alpha                 90.149017
_cell_angle_beta                  89.989528
_cell_angle_gamma                 90.000000
_cell_volume                      2627.956086
_symmetry_space_group_name_H-M    P1
_symmetry_Int_Tables_number       1
loop_
    _symmetry_equiv_pos_site_id
    _symmetry_equiv_pos_as_xyz
    1  x,y,z
loop_
    _atom_site_type_symbol
    _atom_site_label
    _atom_site_fract_x
    _atom_site_fract_y
    _atom_site_fract_z
    _atom_type_partial_charge
    C   C1   0.302987  0.737585  0.995537  -0.004045
    C   C2   0.690649  0.261559  0.003500  -0.092106
    C   C3   0.075439  0.941006  0.998802  0.155297
    C   C4   0.920161  0.060350  0.995592  0.064366
    C   C5   0.171800  0.796355  0.071607  -0.090947
    C   C6   0.810954  0.184596  0.917445  -0.134713
    C   C7   0.285648  0.810676  0.922603  -0.227637
    C   C8   0.720941  0.208922  0.083782  -0.107264
    C   C9   0.245941  0.731420  0.068763  -0.133716
    C   C10  0.735268  0.246282  0.921649  -0.067135
    H   H1   0.258690  0.672192  0.124230  0.161286
    H   H2   0.713812  0.290821  0.860541  0.130342
    C   C11  0.155166  0.872749  0.999566  0.030794
    C   C12  0.840119  0.128172  0.997071  -0.006526
    C   C13  0.211288  0.876409  0.923778  -0.041867
    C   C14  0.794493  0.140907  0.080408  -0.003347
    C   C15  0.299954  0.269458  0.013269  -0.143703
    C   C16  0.693863  0.735303  0.981951  -0.155271
    C   C17  0.075625  0.058741  0.010546  -0.301884
    C   C18  0.920033  0.942812  0.984268  0.037894
    C   C19  0.173939  0.194593  0.938242  -0.253897
    C   C20  0.811338  0.826396  0.060842  -0.185722
    H   H3   0.132018  0.193044  0.878314  0.137570
    H   H4   0.847490  0.839029  0.123941  0.146306
    C   C21  0.280448  0.204189  0.091117  -0.043457
    C   C22  0.724398  0.780801  0.898119  0.072339
    C   C23  0.245862  0.263102  0.937130  -0.008442
    C   C24  0.738479  0.759852  0.062643  -0.079351
    H   H5   0.257617  0.314189  0.876191  0.111490
    H   H6   0.719205  0.723698  0.128323  0.127947
    C   C25  0.155382  0.127237  0.013822  0.361370
    C   C26  0.839952  0.875367  0.979907  0.202602
    C   C27  0.208440  0.134069  0.091450  -0.341390
    C   C28  0.797207  0.850935  0.897277  -0.236500
    C   C29  0.997640  0.885008  0.986249  -0.103975
    C   C30  0.997886  0.116316  0.008714  0.010224
    H   H7   0.997426  0.793629  0.978400  0.048742
    H   H8   0.997682  0.207658  0.016930  0.050201
    O   O1   0.594343  0.621060  0.070726  -0.610372
    O   O2   0.399746  0.381868  0.926480  -0.575499
    O   O3   0.586387  0.613079  0.911867  -0.612751
    O   O4   0.408042  0.388880  0.085831  -0.558553
    C   C31  0.620543  0.654122  0.988115  0.686546
    C   C32  0.373919  0.348674  0.008891  0.640459
    O   O5   0.587647  0.376957  0.922091  -0.679310
    O   O6   0.406319  0.624874  0.075853  -0.605539
    O   O7   0.589383  0.385741  0.080909  -0.675436
    O   O8   0.405003  0.616998  0.916391  -0.616145
    C   C33  0.617833  0.343179  0.002645  0.749152
    C   C34  0.376611  0.658628  0.995340  0.633693
    Zn  Zn1  0.495071  0.492859  0.896276  1.034877
    Zn  Zn2  0.499256  0.509536  0.101250  1.038775
    C   C35  0.495355  0.405661  0.444059  0.026552
    C   C36  0.499730  0.596600  0.553454  0.002979
    H   H9   0.492158  0.332066  0.399216  0.088601
    H   H10  0.502940  0.670198  0.598290  0.110785
    C   C37  0.502215  0.511141  0.403160  0.069065
    C   C38  0.492813  0.491127  0.594355  0.135657
    C   C39  0.504631  0.608403  0.458030  -0.166572
    C   C40  0.490447  0.393855  0.539484  -0.139085
    C   C41  0.502759  0.515414  0.303389  0.207907
    C   C42  0.492061  0.486890  0.694127  0.127884
    N   N1   0.491996  0.485412  0.774491  -0.120550
    N   N2   0.502630  0.516929  0.223027  -0.162173
    C   C43  0.112868  0.776943  0.151095  0.835955
    O   O9   0.115099  0.686029  0.191444  -0.574319
    N   N3   0.056816  0.863378  0.185572  -0.842603
    H   H11  0.994439  0.830192  0.185027  0.258647
    H   H12  0.073346  0.877467  0.254925  0.297217
    C   C44  0.857133  0.186588  0.827100  0.780476
    O   O10  0.818554  0.216338  0.757491  -0.576190
    N   N4   0.947014  0.164145  0.819445  -0.681150
    H   H13  0.976837  0.239999  0.800065  0.272981
    H   H14  0.954521  0.107246  0.764396  0.236093
    C   C45  0.482503  0.278514  0.579129  0.648571
    O   O11  0.456344  0.264223  0.658087  -0.442304
    N   N5   0.502725  0.181476  0.523614  -0.667001
    H   H15  0.491315  0.109518  0.564052  0.333116
    H   H16  0.568639  0.184308  0.508972  0.258495
    C   C46  0.512595  0.723732  0.418376  0.739564
    O   O12  0.538829  0.738003  0.339443  -0.504999
    N   N6   0.492333  0.820781  0.473861  -0.772214
    H   H17  0.503781  0.892730  0.433425  0.356962
    H   H18  0.426408  0.817956  0.488438  0.322330
    C   C47  0.343974  0.817486  0.842585  0.955340
    O   O13  0.324923  0.770755  0.769704  -0.608155
    N   N7   0.420417  0.884646  0.848086  -0.858328
    H   H19  0.450998  0.879844  0.783612  0.355770
    H   H20  0.460943  0.848310  0.897661  0.332299
    C   C48  0.679422  0.229530  0.173908  0.802843
    O   O14  0.607525  0.192073  0.189166  -0.540839
    N   N8   0.723041  0.293639  0.243879  -0.721725
    H   H21  0.681464  0.300697  0.300643  0.284297
    H   H22  0.733591  0.375046  0.217576  0.278299
    C   C49  0.189544  0.942764  0.840501  0.771901
    O   O15  0.241671  0.008914  0.807423  -0.522773
    N   N9   0.109857  0.923826  0.793709  -0.873216
    H   H23  0.124376  0.893000  0.727466  0.327186
    H   H24  0.080578  0.002874  0.785813  0.327916
    C   C50  0.825342  0.086128  0.166938  0.622279
    O   O16  0.901259  0.090851  0.188227  -0.509571
    N   N10  0.766521  0.030722  0.228525  -0.861026
    H   H25  0.770826  0.071526  0.292842  0.350393
    H   H26  0.787939  0.947705  0.238459  0.338086
    C   C51  0.334443  0.206886  0.174585  0.835558
    O   O17  0.320654  0.276899  0.235408  -0.584996
    N   N11  0.401007  0.124584  0.186389  -0.779189
    H   H27  0.432623  0.143243  0.248596  0.315904
    H   H28  0.444749  0.134784  0.131950  0.307687
    C   C52  0.684888  0.749981  0.808851  0.678300
    O   O18  0.613817  0.786511  0.788461  -0.554308
    N   N12  0.730511  0.679565  0.744661  -0.696391
    H   H29  0.690569  0.666912  0.687192  0.277589
    H   H30  0.740287  0.601000  0.776478  0.283687
    C   C53  0.186375  0.076165  0.178062  0.943848
    O   O19  0.228340  0.994228  0.203218  -0.583904
    N   N13  0.125490  0.126448  0.240046  -0.830945
    H   H31  0.122364  0.075641  0.299272  0.329526
    H   H32  0.065370  0.124971  0.207831  0.340112
    C   C54  0.830591  0.895221  0.808446  0.581137
    O   O20  0.907539  0.890920  0.791656  -0.460837
    N   N14  0.773531  0.941646  0.740529  -0.587825
    H   H33  0.811180  0.974405  0.686773  0.286791
    H   H34  0.739662  0.008354  0.771446  0.250833
