# Generated by REPEAT Assigner based on pymatgen
data_DB0-m3_o4_o14_f0_nbo.sym.97
_audit_creation_date              2022-05-24
_audit_creation_method            REPEAT_Assigner
_cell_length_a                    18.951343
_cell_length_b                    18.968466
_cell_length_c                    18.962750
_cell_angle_alpha                 109.498742
_cell_angle_beta                  109.458808
_cell_angle_gamma                 109.449676
_cell_volume                      5247.906160
_symmetry_space_group_name_H-M    P1
_symmetry_Int_Tables_number       1
loop_
    _symmetry_equiv_pos_site_id
    _symmetry_equiv_pos_as_xyz
    1  x,y,z
loop_
    _atom_site_type_symbol
    _atom_site_label
    _atom_site_fract_x
    _atom_site_fract_y
    _atom_site_fract_z
    _atom_type_partial_charge
    O   O1   0.102426  0.972870  0.568366  -0.681415
    O   O2   0.108354  0.083340  0.674610  -0.663417
    C   C1   0.132886  0.027084  0.649779  0.673430
    O   O3   0.107548  0.065475  0.476344  -0.614044
    O   O4   0.115669  0.174062  0.586192  -0.729802
    C   C2   0.142437  0.147379  0.532465  0.713583
    Zn  Zn1  0.015306  0.958746  0.459794  1.230786
    Zn  Zn2  0.019608  0.100833  0.598400  1.310061
    O   O5   0.925371  0.975174  0.383621  -0.654973
    O   O6   0.933672  0.087663  0.489809  -0.723276
    O   O7   0.920002  0.885299  0.472669  -0.650551
    O   O8   0.926481  0.994189  0.581079  -0.703313
    C   C3   0.902070  0.032513  0.408513  0.704489
    C   C4   0.893873  0.912239  0.526888  0.697548
    H   H1   0.158789  0.296272  0.550418  0.170518
    C   C5   0.287663  0.131750  0.520108  -0.280070
    H   H2   0.248880  0.085871  0.531809  0.124652
    C   C6   0.349439  0.119130  0.504206  -0.009864
    H   H3   0.355200  0.063926  0.502709  0.051895
    C   C7   0.403552  0.176543  0.491400  0.038233
    C   C8   0.397982  0.249126  0.499066  -0.221722
    H   H4   0.438746  0.291578  0.485754  0.194977
    C   C9   0.337691  0.264002  0.517822  0.112378
    C   C10  0.278264  0.202090  0.523126  0.061676
    C   C11  0.212255  0.212950  0.533571  0.058648
    C   C12  0.209652  0.287169  0.542718  -0.221818
    H   H5   0.267080  0.407220  0.547482  0.120237
    C   C13  0.269961  0.349324  0.539790  -0.153283
    C   C14  0.334499  0.338855  0.528369  0.054043
    C   C15  0.257367  0.004983  0.704061  0.026542
    C   C16  0.198233  0.025905  0.716572  -0.007837
    C   C17  0.204936  0.048631  0.797134  -0.199497
    H   H6   0.159809  0.065255  0.810648  0.152447
    C   C18  0.268358  0.048115  0.860616  -0.174765
    H   H7   0.271892  0.064502  0.922497  0.146842
    C   C19  0.328404  0.029216  0.845728  -0.069865
    C   C20  0.320117  0.008588  0.765936  0.167053
    C   C21  0.358692  0.982554  0.712753  -0.211259
    C   C22  0.285405  0.979150  0.640094  -0.138296
    H   H8   0.424007  0.035127  0.737097  0.076148
    H   H9   0.351584  0.918101  0.698302  0.096650
    H   H10  0.310089  0.030217  0.624447  0.106231
    H   H11  0.237745  0.912900  0.584665  0.079843
    C   C23  0.764599  0.768701  0.455584  0.089819
    C   C24  0.825970  0.847679  0.527871  -0.073169
    C   C25  0.821738  0.862589  0.602839  -0.154419
    H   H12  0.868882  0.923185  0.662162  0.152175
    C   C26  0.759341  0.798161  0.603479  -0.216881
    H   H13  0.758504  0.809840  0.662950  0.158914
    C   C27  0.697758  0.719840  0.528258  -0.064861
    C   C28  0.702640  0.709288  0.455339  0.118497
    C   C29  0.663330  0.644909  0.363360  -0.120883
    C   C30  0.735828  0.714948  0.363344  -0.096855
    H   H14  0.670850  0.587680  0.355460  0.051107
    H   H15  0.597715  0.632073  0.323151  0.063598
    H   H16  0.783376  0.696447  0.354926  0.065181
    H   H17  0.710707  0.741356  0.323253  0.018938
    C   C31  0.761025  0.960761  0.276914  -0.139507
    C   C32  0.836923  0.034390  0.342374  0.108083
    C   C33  0.848502  0.110852  0.343162  -0.075197
    H   H18  0.907373  0.170842  0.393211  0.097763
    C   C34  0.785610  0.110553  0.278275  -0.238523
    H   H19  0.796286  0.170679  0.279472  0.152545
    C   C35  0.708576  0.034469  0.214580  -0.015822
    C   C36  0.699370  0.961066  0.217824  0.217384
    C   C37  0.639190  0.866938  0.173321  -0.213697
    C   C38  0.711480  0.866787  0.243472  -0.053284
    H   H20  0.580458  0.852209  0.179379  0.077366
    H   H21  0.628923  0.832443  0.107563  0.081746
    H   H22  0.693223  0.852820  0.289070  0.097540
    H   H23  0.741195  0.831633  0.216946  0.055569
    O   O9   0.458720  0.615313  0.565946  -0.698016
    O   O10  0.571188  0.624746  0.673512  -0.658608
    C   C39  0.514229  0.648152  0.647571  0.743490
    O   O11  0.371322  0.433555  0.473932  -0.634508
    O   O12  0.481075  0.442408  0.583615  -0.729284
    C   C40  0.398863  0.408544  0.528897  0.635678
    Zn  Zn3  0.444708  0.526400  0.458577  1.270531
    Zn  Zn4  0.587776  0.533763  0.599140  1.288480
    O   O13  0.460786  0.434758  0.384249  -0.618820
    O   O14  0.574366  0.445582  0.491817  -0.650917
    O   O15  0.551418  0.617053  0.473352  -0.717069
    O   O16  0.661058  0.627464  0.584637  -0.691475
    C   C41  0.518512  0.412031  0.410241  0.579383
    C   C42  0.633512  0.651006  0.528271  0.759554
    O   O17  0.573843  0.176430  0.122642  -0.698546
    O   O18  0.466671  0.070047  0.120279  -0.688655
    C   C43  0.520380  0.151334  0.150108  0.763677
    O   O19  0.476757  0.082681  0.940083  -0.691792
    O   O20  0.371652  0.975552  0.938862  -0.683084
    C   C44  0.395667  0.029143  0.911391  0.715917
    Zn  Zn5  0.586747  0.100564  0.028977  1.297075
    Zn  Zn6  0.449873  0.961805  0.029918  1.280691
    O   O21  0.571275  0.992296  0.940060  -0.697847
    O   O22  0.461316  0.886015  0.934815  -0.665121
    O   O23  0.664862  0.088418  0.121688  -0.666702
    O   O24  0.559924  0.978231  0.117214  -0.688482
    C   C45  0.516162  0.911050  0.908745  0.711723
    C   C46  0.641057  0.033274  0.147578  0.665798
    C   C47  0.441116  0.713417  0.710370  0.113500
    C   C48  0.515360  0.716577  0.713340  -0.088809
    C   C49  0.592897  0.787607  0.783449  -0.207401
    H   H24  0.653470  0.793638  0.788790  0.155029
    C   C50  0.593513  0.852724  0.846243  -0.117647
    H   H25  0.654519  0.908021  0.899901  0.132061
    C   C51  0.516666  0.845163  0.842006  -0.095188
    C   C52  0.441813  0.773057  0.772530  0.121214
    C   C53  0.346439  0.729740  0.732232  -0.187881
    C   C54  0.345668  0.659126  0.659439  -0.154471
    H   H26  0.323456  0.706257  0.770958  0.082051
    H   H27  0.319876  0.767199  0.710158  0.090371
    H   H28  0.322770  0.596397  0.657925  0.086982
    H   H29  0.318196  0.656753  0.596564  0.072744
    C   C55  0.450579  0.289435  0.263341  -0.016494
    C   C56  0.520206  0.345311  0.345249  0.019979
    C   C57  0.592502  0.335320  0.363451  -0.145048
    H   H30  0.649528  0.377358  0.426770  0.141615
    C   C58  0.593445  0.272650  0.299582  -0.169909
    H   H31  0.650583  0.266501  0.314276  0.142701
    C   C59  0.521124  0.217308  0.217892  -0.063580
    C   C60  0.450798  0.228105  0.203624  0.136218
    C   C61  0.362294  0.195252  0.135165  -0.189139
    C   C62  0.361908  0.267342  0.205334  -0.093621
    H   H32  0.362562  0.207533  0.082014  0.085581
    H   H33  0.316544  0.128610  0.115514  0.071631
    H   H34  0.360588  0.318766  0.190357  0.082847
    C   C63  0.298041  0.232702  0.231675  0.261953
    C   C64  0.298151  0.175313  0.261607  -0.244703
    C   C65  0.236343  0.142548  0.282460  -0.073106
    C   C66  0.174680  0.167165  0.274189  0.067121
    Br  Br1  0.087341  0.119427  0.299891  -0.146143
    C   C67  0.175383  0.225435  0.246035  -0.074047
    C   C68  0.236855  0.258106  0.224876  -0.252097
    H   H35  0.345323  0.154387  0.267987  0.126905
    H   H36  0.235944  0.097004  0.304824  0.108388
    H   H37  0.127095  0.244858  0.239632  0.094717
    H   H38  0.236132  0.303019  0.201878  0.126654
    C   C69  0.466679  0.160897  0.470059  0.083899
    C   C70  0.444581  0.078178  0.414296  -0.104961
    C   C71  0.503487  0.063509  0.393727  -0.135011
    C   C72  0.584794  0.131177  0.428639  0.048841
    Br  Br2  0.666266  0.110638  0.400600  -0.123143
    C   C73  0.607233  0.213677  0.484066  0.005189
    C   C74  0.548528  0.228626  0.504794  -0.225384
    H   H39  0.380549  0.024442  0.384743  0.101584
    H   H40  0.485707  0.998802  0.349852  0.117755
    H   H41  0.671127  0.266781  0.511666  0.069824
    H   H42  0.568184  0.293636  0.549801  0.124393
