# Generated by REPEAT Assigner based on pymatgen
data_DB0-m3_o3_o14_f0_pcu.sym.34
_audit_creation_date              2022-05-24
_audit_creation_method            REPEAT_Assigner
_cell_length_a                    19.474729
_cell_length_b                    18.261544
_cell_length_c                    11.021998
_cell_angle_alpha                 90.000000
_cell_angle_beta                  90.006368
_cell_angle_gamma                 90.000000
_cell_volume                      3919.848262
_symmetry_space_group_name_H-M    P1
_symmetry_Int_Tables_number       1
loop_
    _symmetry_equiv_pos_site_id
    _symmetry_equiv_pos_as_xyz
    1  x,y,z
loop_
    _atom_site_type_symbol
    _atom_site_label
    _atom_site_fract_x
    _atom_site_fract_y
    _atom_site_fract_z
    _atom_type_partial_charge
    O   O1   0.397900  0.532227  0.497988  -0.696110
    O   O2   0.602598  0.532187  0.502656  -0.695204
    O   O3   0.397937  0.406238  0.495080  -0.673321
    O   O4   0.602438  0.406208  0.504771  -0.673395
    C   C1   0.365674  0.469180  0.497801  0.824029
    C   C2   0.634764  0.469115  0.502476  0.822728
    O   O5   0.501672  0.532046  0.319999  -0.618670
    O   O6   0.498871  0.531829  0.680641  -0.622086
    O   O7   0.503239  0.406533  0.318739  -0.665601
    O   O8   0.497114  0.406247  0.681123  -0.666937
    C   C3   0.504819  0.469967  0.261409  0.778458
    C   C4   0.495507  0.469571  0.738766  0.781443
    Zn  Zn1  0.500254  0.552202  0.500351  1.017106
    Zn  Zn2  0.500185  0.386195  0.499890  1.023307
    H   H1   0.503866  0.355069  0.109763  0.091555
    H   H2   0.500757  0.354810  0.890729  0.095247
    C   C5   0.527729  0.604762  0.110635  -0.273906
    C   C6   0.466382  0.602838  0.888409  -0.271626
    H   H3   0.557523  0.608591  0.192598  0.146598
    H   H4   0.436678  0.604701  0.806108  0.147554
    C   C7   0.513176  0.669556  0.052866  -0.079906
    C   C8   0.477995  0.668493  0.945534  -0.082480
    H   H5   0.527037  0.721111  0.094384  0.079678
    H   H6   0.461930  0.719151  0.903472  0.081052
    C   C9   0.488921  0.537197  0.939244  0.228004
    C   C10  0.508168  0.537830  0.060467  0.232625
    C   C11  0.507922  0.472047  0.126458  -0.257415
    C   C12  0.491994  0.471439  0.873623  -0.250368
    C   C13  0.502959  0.406969  0.062740  -0.056993
    C   C14  0.499445  0.406759  0.937580  -0.070205
    C   C15  0.746912  0.419243  0.425659  0.365132
    C   C16  0.253479  0.419192  0.574217  0.364654
    C   C17  0.818077  0.419430  0.431382  -0.322259
    C   C18  0.182324  0.419357  0.568313  -0.319479
    H   H7   0.847237  0.380046  0.379834  0.141562
    H   H8   0.153157  0.379849  0.619590  0.140732
    C   C19  0.853000  0.471136  0.499201  0.111729
    C   C20  0.147432  0.471193  0.500726  0.109256
    C   C21  0.816066  0.522805  0.563327  -0.199843
    C   C22  0.184396  0.523021  0.437003  -0.197671
    H   H9   0.841849  0.563125  0.618750  0.112904
    H   H10  0.158639  0.563452  0.381766  0.112578
    C   C23  0.745338  0.521571  0.561948  -0.042337
    C   C24  0.255127  0.521807  0.438530  -0.045251
    H   H11  0.717439  0.561007  0.615967  0.098918
    H   H12  0.283054  0.561358  0.384787  0.099514
    C   C25  0.710163  0.469324  0.496019  -0.291865
    C   C26  0.290271  0.469431  0.504233  -0.289801
    C   C27  0.964761  0.536753  0.500421  -0.160066
    C   C28  0.035647  0.536769  0.499723  -0.158054
    H   H13  0.938134  0.588641  0.498460  0.109729
    H   H14  0.062254  0.588664  0.501992  0.109237
    C   C29  0.071747  0.471505  0.498967  0.100019
    C   C30  0.928685  0.471473  0.500832  0.100867
    C   C31  0.035588  0.406316  0.498849  -0.149388
    C   C32  0.964866  0.406299  0.500555  -0.151126
    H   H15  0.061980  0.354321  0.495744  0.109338
    H   H16  0.938493  0.354287  0.503379  0.109325
    C   C33  0.551607  0.698331  0.445564  0.034954
    C   C34  0.448928  0.698362  0.555376  0.031941
    H   H17  0.592391  0.668510  0.401138  0.123494
    H   H18  0.408116  0.668569  0.599767  0.126237
    C   C35  0.552462  0.773836  0.444761  -0.171590
    C   C36  0.448044  0.773870  0.555968  -0.175445
    H   H19  0.593535  0.801823  0.397931  0.119321
    H   H20  0.406943  0.801891  0.602670  0.120816
    C   C37  0.500242  0.812540  0.500300  0.118304
    N   N1   0.500275  0.661757  0.500521  -0.087987
    C   C38  0.439558  0.931486  0.485645  -0.137018
    C   C39  0.560867  0.931532  0.514441  -0.138385
    H   H21  0.391520  0.903002  0.472288  0.115583
    H   H22  0.608915  0.903090  0.527925  0.115528
    C   C40  0.439575  0.006998  0.485088  -0.141817
    C   C41  0.560824  0.007040  0.514667  -0.140374
    H   H23  0.391248  0.035450  0.475261  0.123230
    H   H24  0.609144  0.035521  0.524380  0.122942
    C   C42  0.500193  0.045416  0.499806  0.072538
    C   C43  0.500219  0.893110  0.500134  0.083930
    C   C44  0.542075  0.164673  0.578026  -0.176963
    C   C45  0.458288  0.164642  0.421390  -0.179034
    H   H25  0.574577  0.136680  0.642543  0.118862
    H   H26  0.425775  0.136618  0.356928  0.119419
    C   C46  0.541335  0.240171  0.576905  0.022386
    C   C47  0.459021  0.240149  0.422444  0.026546
    H   H27  0.573903  0.270130  0.638889  0.129571
    H   H28  0.426430  0.270090  0.360474  0.127572
    N   N2   0.500178  0.276665  0.499662  -0.072809
    C   C48  0.500186  0.125982  0.499728  0.125490
    C   C49  0.711512  0.365896  0.342104  -0.410855
    C   C50  0.751575  0.353082  0.228550  0.323547
    C   C51  0.761777  0.409754  0.147535  -0.207100
    C   C52  0.798000  0.397856  0.041859  -0.087161
    C   C53  0.823814  0.329259  0.016523  -0.140953
    C   C54  0.813230  0.272448  0.096697  -0.088825
    C   C55  0.777015  0.284193  0.202420  -0.252547
    H   H29  0.661053  0.387093  0.312241  0.129010
    H   H30  0.703916  0.313421  0.390867  0.100264
    H   H31  0.741367  0.463595  0.166550  0.106204
    H   H32  0.806064  0.442326  0.978731  0.103963
    H   H33  0.852181  0.319955  0.933649  0.099329
    H   H34  0.833290  0.218590  0.076639  0.100373
    H   H35  0.769020  0.239147  0.264473  0.115423
    C   C56  0.288774  0.365683  0.657618  -0.415608
    C   C57  0.248767  0.353079  0.771300  0.324882
    C   C58  0.238790  0.409838  0.852235  -0.207279
    C   C59  0.202597  0.398134  0.958003  -0.085732
    C   C60  0.176586  0.329643  0.983510  -0.140501
    C   C61  0.186945  0.272745  0.903416  -0.090160
    C   C62  0.223128  0.284297  0.797600  -0.252173
    H   H36  0.339363  0.386606  0.687305  0.128950
    H   H37  0.296066  0.313167  0.608832  0.101877
    H   H38  0.259352  0.463595  0.833087  0.105787
    H   H39  0.194708  0.442671  0.021068  0.103164
    H   H40  0.148242  0.320492  0.066455  0.099243
    H   H41  0.166730  0.218971  0.923605  0.100760
    H   H42  0.230941  0.239184  0.735609  0.115360
