# generated using pymatgen
data_Zn2H11C23N3O11
_symmetry_space_group_name_H-M   'P 1'
_cell_length_a   8.52431200
_cell_length_b   9.15765200
_cell_length_c   10.83994800
_cell_angle_alpha   90.54417000
_cell_angle_beta   89.99827500
_cell_angle_gamma   90.08080400
_symmetry_Int_Tables_number   1
_chemical_formula_structural   Zn2H11C23N3O11
_chemical_formula_sum   'Zn2 H11 C23 N3 O11'
_cell_volume   846.15641643
_cell_formula_units_Z   1
loop_
 _symmetry_equiv_pos_site_id
 _symmetry_equiv_pos_as_xyz
  1  'x, y, z'
loop_
 _atom_site_type_symbol
 _atom_site_label
 _atom_site_symmetry_multiplicity
 _atom_site_fract_x
 _atom_site_fract_y
 _atom_site_fract_z
 _atom_site_occupancy
  Zn  Zn1  1  0.50150600  0.83243800  0.50534900  1
  Zn  Zn2  1  0.50114500  0.15706800  0.48759800  1
  H  H1  1  0.99841000  0.93775800  0.41099200  1
  H  H2  1  0.99748200  0.05245500  0.58365100  1
  H  H3  1  0.25760200  0.01449100  0.08963500  1
  H  H4  1  0.25632500  0.97113300  0.90375400  1
  H  H5  1  0.72403200  0.41164400  0.38294600  1
  H  H6  1  0.72583200  0.57682400  0.60864200  1
  H  H7  1  0.49830800  0.37104800  0.68767000  1
  H  H8  1  0.27642700  0.41191900  0.38356300  1
  H  H9  1  0.60724900  0.60794100  0.24936400  1
  H  H10  1  0.55695700  0.11388000  0.87760600  1
  H  H11  1  0.17971900  0.61797700  0.55753100  1
  C  C1  1  0.00003400  0.95696500  0.31350800  1
  C  C2  1  0.14025300  0.97503700  0.25452000  1
  C  C3  1  0.14401400  0.99548900  0.12933900  1
  C  C4  1  0.86171100  0.97521000  0.25167100  1
  C  C5  1  0.86321700  0.98775600  0.12441400  1
  C  C6  1  0.00518000  0.99172100  0.06138700  1
  C  C7  1  0.00444700  0.99734100  0.93273400  1
  C  C8  1  0.14302200  0.99167800  0.86426200  1
  C  C9  1  0.13965300  0.01295000  0.73923800  1
  C  C10  1  0.72278300  0.00081800  0.93853100  1
  C  C11  1  0.86127800  0.00361700  0.87100700  1
  C  C12  1  0.86024600  0.01614000  0.74293900  1
  C  C13  1  0.99922200  0.03298000  0.68109400  1
  C  C14  1  0.28175000  0.00624900  0.66415600  1
  C  C15  1  0.28197200  0.98196900  0.32912600  1
  C  C16  1  0.71891400  0.98276300  0.32652500  1
  C  C17  1  0.71955000  0.00800700  0.66563200  1
  C  C18  1  0.62207100  0.53845200  0.55575100  1
  C  C19  1  0.62171600  0.45019600  0.43735900  1
  C  C20  1  0.50156600  0.42893600  0.59831400  1
  C  C21  1  0.38490800  0.53693400  0.55358300  1
  C  C22  1  0.38016400  0.44981300  0.43673000  1
  C  C23  1  0.50136800  0.55757600  0.39759900  1
  N  N1  1  0.72687500  0.99297300  0.06238200  1
  N  N2  1  0.50091200  0.34855100  0.48035100  1
  N  N3  1  0.50221500  0.64093100  0.51269600  1
  O  O1  1  0.33148200  0.12781500  0.61443300  1
  O  O2  1  0.33777200  0.87702700  0.63442800  1
  O  O3  1  0.33150300  0.86050700  0.37874800  1
  O  O4  1  0.33739400  0.11145900  0.35877900  1
  O  O5  1  0.67038600  0.86188300  0.37788400  1
  O  O6  1  0.66476200  0.11220800  0.35833400  1
  O  O7  1  0.67048700  0.12879500  0.61477900  1
  O  O8  1  0.66526600  0.87841700  0.63427700  1
  O  O9  1  0.50226200  0.62859100  0.28438800  1
  O  O10  1  0.58047600  0.00815900  0.88102300  1
  O  O11  1  0.25435900  0.58321700  0.62072200  1
