# generated using pymatgen
data_Fe2H59C80S8N5O21
_symmetry_space_group_name_H-M   'P 1'
_cell_length_a   15.89549200
_cell_length_b   20.81519800
_cell_length_c   21.70485100
_cell_angle_alpha   90.53630600
_cell_angle_beta   101.32827900
_cell_angle_gamma   104.28004000
_symmetry_Int_Tables_number   1
_chemical_formula_structural   Fe2H59C80S8N5O21
_chemical_formula_sum   'Fe2 H59 C80 S8 N5 O21'
_cell_volume   6811.31418649
_cell_formula_units_Z   1
loop_
 _symmetry_equiv_pos_site_id
 _symmetry_equiv_pos_as_xyz
  1  'x, y, z'
loop_
 _atom_site_type_symbol
 _atom_site_label
 _atom_site_symmetry_multiplicity
 _atom_site_fract_x
 _atom_site_fract_y
 _atom_site_fract_z
 _atom_site_occupancy
  Fe  Fe1  1  0.49077000  0.99150500  0.85278900  1
  Fe  Fe2  1  0.51307400  0.99794200  0.13329700  1
  H  H1  1  0.21938600  0.99433400  0.84919600  1
  H  H2  1  0.19195800  0.01294200  0.06962600  1
  H  H3  1  0.81890700  0.99044200  0.91814100  1
  H  H4  1  0.78917000  0.00667100  0.13823900  1
  H  H5  1  0.93410100  0.01300400  0.11313400  1
  H  H6  1  0.54685700  0.50524000  0.39235300  1
  H  H7  1  0.52687500  0.49574100  0.61351400  1
  H  H8  1  0.62980500  0.78081600  0.44266200  1
  H  H9  1  0.46140200  0.22264400  0.40309300  1
  H  H10  1  0.41579900  0.78538400  0.18469900  1
  H  H11  1  0.59925300  0.34404700  0.24750200  1
  H  H12  1  0.60435600  0.25736100  0.16662400  1
  H  H13  1  0.34628800  0.17895100  0.75277800  1
  H  H14  1  0.38450000  0.27303500  0.68427600  1
  H  H15  1  0.50670700  0.65357800  0.77047400  1
  H  H16  1  0.51527700  0.74425300  0.85186800  1
  H  H17  1  0.45661800  0.30866500  0.48285500  1
  H  H18  1  0.42775600  0.64691500  0.48775900  1
  H  H19  1  0.63655300  0.68766500  0.51571600  1
  H  H20  1  0.49376800  0.78422700  0.51267700  1
  H  H21  1  0.42511000  0.83663500  0.52845400  1
  H  H22  1  0.37752800  0.72236800  0.42678000  1
  H  H23  1  0.38722200  0.80847200  0.41835000  1
  H  H24  1  0.27035000  0.66013400  0.46533800  1
  H  H25  1  0.18064600  0.69117400  0.48077100  1
  H  H26  1  0.28093300  0.67418300  0.57940000  1
  H  H27  1  0.27347500  0.75908100  0.57244700  1
  H  H28  1  0.61575300  0.20497000  0.52984100  1
  H  H29  1  0.57068500  0.17096000  0.59446400  1
  H  H30  1  0.74744700  0.16981300  0.56038800  1
  H  H31  1  0.66123600  0.10271500  0.57563400  1
  H  H32  1  0.84193200  0.23191300  0.63387700  1
  H  H33  1  0.83815200  0.22281400  0.71490500  1
  H  H34  1  0.79092100  0.32210700  0.66198300  1
  H  H35  1  0.72509200  0.27676900  0.71222100  1
  H  H36  1  0.32662300  0.70518900  0.30511600  1
  H  H37  1  0.30154900  0.61648100  0.28929800  1
  H  H38  1  0.26171700  0.72052100  0.19583400  1
  H  H39  1  0.18480600  0.65936700  0.22827200  1
  H  H40  1  0.32742800  0.69342800  0.12400700  1
  H  H41  1  0.31712300  0.60911200  0.10133600  1
  H  H42  1  0.46327700  0.66426100  0.17375700  1
  H  H43  1  0.40187600  0.58758800  0.19816400  1
  H  H44  1  0.02252000  0.88577200  0.85897400  1
  H  H45  1  0.08065200  0.92504200  0.79985000  1
  H  H46  1  0.88970300  0.92315400  0.80951700  1
  H  H47  1  0.92360000  0.87553600  0.75396700  1
  H  H48  1  0.91632200  0.03325100  0.80726600  1
  H  H49  1  0.97223200  0.07682200  0.74987500  1
  H  H50  1  0.07211700  0.09106800  0.85486900  1
  H  H51  1  0.11050700  0.04780900  0.79753300  1
  H  H52  1  0.67269400  0.29873000  0.48044600  1
  H  H53  1  0.76851200  0.31480700  0.54555900  1
  H  H54  1  0.74693000  0.39721100  0.43053200  1
  H  H55  1  0.81471200  0.33975500  0.44666400  1
  H  H56  1  0.77633700  0.49098700  0.48882100  1
  H  H57  1  0.86871900  0.51186100  0.55430400  1
  H  H58  1  0.72670600  0.47550900  0.58965000  1
  H  H59  1  0.79808800  0.42099300  0.61303500  1
  C  C1  1  0.21311100  0.99767600  0.89769700  1
  C  C2  1  0.13188400  0.99646000  0.91214800  1
  C  C3  1  0.12563000  0.00332500  0.97398800  1
  C  C4  1  0.19955900  0.00958000  0.02140900  1
  C  C5  1  0.28128500  0.00993200  0.00752200  1
  C  C6  1  0.28810600  0.00576400  0.94470700  1
  C  C7  1  0.04094700  0.00272700  0.98858800  1
  C  C8  1  0.96939400  0.00200800  0.00003200  1
  C  C9  1  0.81045000  0.99339900  0.96618700  1
  C  C10  1  0.72765400  0.99081300  0.97945500  1
  C  C11  1  0.71979600  0.99412300  0.04226000  1
  C  C12  1  0.79475500  0.00384700  0.08951300  1
  C  C13  1  0.87638400  0.00690800  0.07560200  1
  C  C14  1  0.88419300  0.00073500  0.01403800  1
  C  C15  1  0.46061400  0.09790500  0.78694900  1
  C  C16  1  0.37269900  0.01151100  0.92530000  1
  C  C17  1  0.65236300  0.98738100  0.92629900  1
  C  C18  1  0.48248200  0.86444300  0.81380900  1
  C  C19  1  0.54052400  0.12318900  0.18394100  1
  C  C20  1  0.35649300  0.01121700  0.06000900  1
  C  C21  1  0.63460000  0.98517000  0.06165300  1
  C  C22  1  0.53233400  0.90791900  0.22305500  1
  C  C23  1  0.53193100  0.38609600  0.43246400  1
  C  C24  1  0.49006300  0.32201700  0.44437100  1
  C  C25  1  0.61973100  0.35803800  0.57183500  1
  C  C26  1  0.55451900  0.39141900  0.57215900  1
  C  C27  1  0.54122000  0.44343400  0.53463900  1
  C  C28  1  0.54028100  0.44336200  0.47014700  1
  C  C29  1  0.53049500  0.49863600  0.56469200  1
  C  C30  1  0.52526200  0.55615000  0.53430800  1
  C  C31  1  0.53775900  0.55933400  0.47225300  1
  C  C32  1  0.54175500  0.50242100  0.44089300  1
  C  C33  1  0.50114700  0.60558300  0.56619500  1
  C  C34  1  0.45416200  0.64888000  0.53751700  1
  C  C35  1  0.60049700  0.67920400  0.46743700  1
  C  C36  1  0.55123800  0.61771700  0.44029900  1
  C  C37  1  0.59762300  0.72963700  0.42724100  1
  C  C38  1  0.54535200  0.70825700  0.36835600  1
  C  C39  1  0.46946700  0.68175500  0.64152700  1
  C  C40  1  0.43947700  0.69289700  0.57927200  1
  C  C41  1  0.61345800  0.30538700  0.61160700  1
  C  C42  1  0.54246700  0.29835000  0.64274700  1
  C  C43  1  0.52995400  0.30153300  0.35170100  1
  C  C44  1  0.49045300  0.27487600  0.39989900  1
  C  C45  1  0.52723600  0.75212700  0.32233600  1
  C  C46  1  0.46731600  0.71984400  0.69374700  1
  C  C47  1  0.51190700  0.24936800  0.68291700  1
  C  C48  1  0.54041400  0.26375000  0.30235500  1
  C  C49  1  0.52065800  0.84628500  0.25554100  1
  C  C50  1  0.46079800  0.78841900  0.22944600  1
  C  C51  1  0.46469700  0.73546900  0.26632600  1
  C  C52  1  0.57637400  0.29145600  0.25282200  1
  C  C53  1  0.57924600  0.24476200  0.20893600  1
  C  C54  1  0.54667700  0.18081000  0.22453000  1
  C  C55  1  0.47262800  0.15740700  0.75143000  1
  C  C56  1  0.40856900  0.19165200  0.73719100  1
  C  C57  1  0.43062000  0.24336500  0.69990400  1
  C  C58  1  0.49274700  0.70047900  0.75769200  1
  C  C59  1  0.49664600  0.74914200  0.80182400  1
  C  C60  1  0.47728100  0.80520800  0.77582400  1
  C  C61  1  0.42477200  0.78531000  0.51404800  1
  C  C62  1  0.36697200  0.76721800  0.44860200  1
  C  C63  1  0.25349800  0.70383300  0.48445800  1
  C  C64  1  0.29795700  0.71934400  0.55304100  1
  C  C65  1  0.63281900  0.19755800  0.58075400  1
  C  C66  1  0.69806500  0.15480700  0.59060100  1
  C  C67  1  0.79636200  0.22095200  0.66724800  1
  C  C68  1  0.74540700  0.27363100  0.66666667  1
  C  C69  1  0.32059200  0.66536600  0.26902900  1
  C  C70  1  0.24922500  0.66976400  0.21305000  1
  C  C71  1  0.32136800  0.64325100  0.14198900  1
  C  C72  1  0.40262500  0.64040800  0.19117600  1
  C  C73  1  0.02992600  0.92765400  0.82760900  1
  C  C74  1  0.94241700  0.92308700  0.78278800  1
  C  C75  1  0.96932300  0.03433300  0.78052700  1
  C  C76  1  0.05816600  0.04445100  0.82527300  1
  C  C77  1  0.72646800  0.33731100  0.51002000  1
  C  C78  1  0.78574800  0.37510100  0.46871100  1
  C  C79  1  0.81558400  0.47025800  0.52802700  1
  C  C80  1  0.75719700  0.43824600  0.57243300  1
  S  S1  1  0.50442900  0.61952700  0.35840400  1
  S  S2  1  0.51802800  0.61275300  0.65050400  1
  S  S3  1  0.48562900  0.36266200  0.62684700  1
  S  S4  1  0.56639100  0.39006400  0.35824300  1
  S  S5  1  0.58598200  0.83847500  0.33086500  1
  S  S6  1  0.50882900  0.17464500  0.29708900  1
  S  S7  1  0.56804200  0.18926300  0.71851800  1
  S  S8  1  0.44855900  0.80135000  0.69157300  1
  N  N1  1  0.39267600  0.74127900  0.55999600  1
  N  N2  1  0.66904700  0.26138700  0.61528900  1
  N  N3  1  0.40456000  0.67241400  0.25083600  1
  N  N4  1  0.05475500  0.98933500  0.86473000  1
  N  N5  1  0.68956500  0.38307300  0.53934500  1
  O  O1  1  0.52808700  0.07275200  0.80810300  1
  O  O2  1  0.43950500  0.06344600  0.94475400  1
  O  O3  1  0.38166200  0.06906900  0.79681400  1
  O  O4  1  0.37702500  0.96896700  0.88178600  1
  O  O5  1  0.57832200  0.00032700  0.93470400  1
  O  O6  1  0.66128100  0.97510700  0.86885800  1
  O  O7  1  0.48302400  0.92073100  0.78707800  1
  O  O8  1  0.48851800  0.86194800  0.87485300  1
  O  O9  1  0.51715300  0.06306200  0.20326200  1
  O  O10  1  0.55641000  0.13142700  0.12709700  1
  O  O11  1  0.42779100  0.99422600  0.05099000  1
  O  O12  1  0.34934500  0.02445200  0.11767100  1
  O  O13  1  0.60166900  0.95759700  0.24382000  1
  O  O14  1  0.62833800  0.02507100  0.10673800  1
  O  O15  1  0.47521200  0.91249100  0.17167700  1
  O  O16  1  0.56943700  0.93259300  0.04074200  1
  O  O17  1  0.27761000  0.75948600  0.45023100  1
  O  O18  1  0.73840100  0.15784300  0.65413400  1
  O  O19  1  0.24416400  0.62225700  0.16573600  1
  O  O20  1  0.95082800  0.97563500  0.74271000  1
  O  O21  1  0.85465700  0.42414600  0.50512100  1
