# Generated by REPEAT Assigner based on pymatgen
data_DB0-m15_o11_o140_f0_fsc
_audit_creation_date              2022-05-24
_audit_creation_method            REPEAT_Assigner
_cell_length_a                    9.278269
_cell_length_b                    11.679086
_cell_length_c                    15.445302
_cell_angle_alpha                 89.997675
_cell_angle_beta                  89.973439
_cell_angle_gamma                 89.852274
_cell_volume                      1673.673458
_symmetry_space_group_name_H-M    P1
_symmetry_Int_Tables_number       1
loop_
    _symmetry_equiv_pos_site_id
    _symmetry_equiv_pos_as_xyz
    1  x,y,z
loop_
    _atom_site_type_symbol
    _atom_site_label
    _atom_site_fract_x
    _atom_site_fract_y
    _atom_site_fract_z
    _atom_type_partial_charge
    Co  Co1  0.856176  0.004432  0.000087  0.945879
    Co  Co2  0.144111  0.996085  0.999898  0.920905
    O   O1   0.873186  0.883969  0.907389  -0.571316
    O   O2   0.881688  0.125846  0.092021  -0.517012
    O   O3   0.873589  0.884002  0.092776  -0.571510
    O   O4   0.881287  0.125784  0.908061  -0.516231
    O   O5   0.126978  0.116330  0.092802  -0.499613
    O   O6   0.118521  0.874556  0.908069  -0.552166
    O   O7   0.118922  0.874594  0.091800  -0.552345
    O   O8   0.126581  0.116330  0.907026  -0.500322
    C   C1   0.993702  0.840731  0.877263  0.696547
    C   C2   0.006472  0.159586  0.122903  0.553481
    C   C3   0.994161  0.840782  0.122764  0.697431
    C   C4   0.006016  0.159540  0.877042  0.553630
    C   C5   0.576283  0.096420  0.000140  0.082310
    N   N1   0.650342  0.003883  0.999846  -0.289963
    H   H1   0.630066  0.178679  0.000442  0.088079
    C   C6   0.417879  0.091878  0.000050  0.193535
    N   N2   0.350159  0.995973  0.000134  -0.329439
    H   H2   0.358058  0.171654  0.999914  0.038931
    C   C7   0.011746  0.239368  0.804047  0.031900
    C   C8   0.015980  0.442488  0.577592  0.008564
    C   C9   0.899055  0.378013  0.712253  -0.107936
    H   H3   0.805759  0.429352  0.696111  0.094114
    C   C10  0.132610  0.241719  0.751654  -0.154175
    H   H4   0.224410  0.187599  0.765452  0.122324
    C   C11  0.894887  0.307866  0.784114  -0.168492
    H   H5   0.799324  0.306679  0.824146  0.133127
    C   C12  0.018081  0.377368  0.658464  0.144159
    C   C13  0.134535  0.308748  0.678236  -0.103559
    H   H6   0.227669  0.307177  0.636164  0.098707
    C   C14  0.987906  0.760891  0.804267  -0.075834
    C   C15  0.984024  0.558076  0.577612  -0.015359
    C   C16  0.100708  0.622379  0.712334  -0.154489
    H   H7   0.194026  0.571061  0.696151  0.098293
    C   C17  0.867119  0.758633  0.751870  -0.114190
    H   H8   0.775327  0.812763  0.765715  0.131563
    C   C18  0.104776  0.692408  0.784259  -0.097666
    H   H9   0.200296  0.693532  0.824276  0.121778
    C   C19  0.981782  0.623126  0.658531  0.197666
    C   C20  0.865303  0.691728  0.678376  -0.139702
    H   H10  0.772238  0.693385  0.636302  0.101472
    C   C21  0.012251  0.239450  0.195878  0.031747
    C   C22  0.016211  0.442519  0.422379  0.007982
    C   C23  0.899509  0.378124  0.287693  -0.109398
    H   H11  0.806207  0.429479  0.303844  0.094316
    C   C24  0.133047  0.241757  0.248261  -0.154127
    H   H12  0.224824  0.187596  0.234451  0.122256
    C   C25  0.895409  0.307993  0.215829  -0.167381
    H   H13  0.799890  0.306842  0.175810  0.133010
    C   C26  0.018448  0.377429  0.341485  0.145714
    C   C27  0.134899  0.308772  0.321693  -0.104311
    H   H14  0.227967  0.307151  0.363766  0.098912
    C   C28  0.033458  0.385441  0.499983  -0.190119
    C   C29  0.988415  0.760979  0.195781  -0.075746
    C   C30  0.984255  0.558108  0.422388  -0.015443
    C   C31  0.101158  0.622482  0.287685  -0.153557
    H   H15  0.194465  0.571171  0.303855  0.097878
    C   C32  0.867568  0.758687  0.248194  -0.114704
    H   H16  0.775758  0.812784  0.234367  0.131570
    C   C33  0.105294  0.692527  0.215765  -0.098911
    H   H17  0.200853  0.693679  0.175729  0.122309
    C   C34  0.982151  0.623189  0.341492  0.197671
    C   C35  0.865678  0.691766  0.321673  -0.139424
    H   H18  0.772551  0.693380  0.363750  0.101552
    C   C36  0.966774  0.615161  0.500003  -0.175799
    H   H19  0.052514  0.294089  0.499978  0.098430
    H   H20  0.947701  0.706511  0.500008  0.092497
