data_DB0-m3_o12_o29_f0_pcu.sym.34_repeat
_audit_creation_date              2024-02-23
_audit_creation_method            'Materials Studio'
_symmetry_space_group_name_H-M    'P1'
_symmetry_Int_Tables_number       1
_symmetry_cell_setting            triclinic
loop_
_symmetry_equiv_pos_as_xyz
  x,y,z
_cell_length_a                    10.0314
_cell_length_b                    11.4687
_cell_length_c                    27.6526
_cell_angle_alpha                 89.9661
_cell_angle_beta                  80.7571
_cell_angle_gamma                 92.4058
loop_
_atom_site_label
_atom_site_type_symbol
_atom_site_fract_x
_atom_site_fract_y
_atom_site_fract_z
_atom_site_U_iso_or_equiv
_atom_site_adp_type
_atom_site_occupancy
O1     O     0.41743   0.68407   0.50728   0.00000  Uiso   1.00
O2     O     0.58223   0.31675   0.49532   0.00000  Uiso   1.00
O3     O     0.64733   0.66199   0.49231   0.00000  Uiso   1.00
O4     O     0.35244   0.33879   0.51116   0.00000  Uiso   1.00
C1     C     0.54191   0.72777   0.49924   0.00000  Uiso   1.00
C2     C     0.45782   0.27299   0.50381   0.00000  Uiso   1.00
O5     O     0.39134   0.51086   0.58077   0.00000  Uiso   1.00
O6     O     0.60850   0.49088   0.42215   0.00000  Uiso   1.00
O7     O     0.62126   0.48752   0.56547   0.00000  Uiso   1.00
O8     O     0.37831   0.51235   0.43746   0.00000  Uiso   1.00
C3     C     0.50763   0.49892   0.59571   0.00000  Uiso   1.00
C4     C     0.49209   0.50192   0.40721   0.00000  Uiso   1.00
Zn1    Zn    0.34820   0.51531   0.51169   0.00000  Uiso   1.00
Zn2    Zn    0.65151   0.48549   0.49124   0.00000  Uiso   1.00
C5     C     0.47857   0.59691   0.82631   0.00000  Uiso   1.00
C6     C     0.53587   0.40759   0.17583   0.00000  Uiso   1.00
O9     O     0.44866   0.69305   0.80311   0.00000  Uiso   1.00
O10    O     0.58002   0.31628   0.19833   0.00000  Uiso   1.00
N1     N     0.51389   0.50065   0.80027   0.00000  Uiso   1.00
N2     N     0.48609   0.49879   0.20257   0.00000  Uiso   1.00
C7     C     0.54710   0.40441   0.82280   0.00000  Uiso   1.00
C8     C     0.43825   0.58958   0.18067   0.00000  Uiso   1.00
C9     C     0.39419   0.51592   0.73090   0.00000  Uiso   1.00
C10    C     0.60747   0.49460   0.27192   0.00000  Uiso   1.00
C11    C     0.39249   0.51518   0.68118   0.00000  Uiso   1.00
C12    C     0.60901   0.49536   0.32165   0.00000  Uiso   1.00
C13    C     0.62919   0.48285   0.66649   0.00000  Uiso   1.00
C14    C     0.36891   0.50815   0.33651   0.00000  Uiso   1.00
C15    C     0.63044   0.48306   0.71633   0.00000  Uiso   1.00
C16    C     0.36764   0.50719   0.28668   0.00000  Uiso   1.00
C17    C     0.51300   0.49991   0.74871   0.00000  Uiso   1.00
C18    C     0.48691   0.50020   0.25417   0.00000  Uiso   1.00
C19    C     0.50809   0.50031   0.90036   0.00000  Uiso   1.00
C20    C     0.49167   0.49856   0.10246   0.00000  Uiso   1.00
C21    C     0.47500   0.59777   0.87654   0.00000  Uiso   1.00
C22    C     0.53934   0.40650   0.12560   0.00000  Uiso   1.00
C23    C     0.43978   0.69628   0.90294   0.00000  Uiso   1.00
C24    C     0.59179   0.31412   0.09841   0.00000  Uiso   1.00
C25    C     0.54488   0.40323   0.87299   0.00000  Uiso   1.00
C26    C     0.44038   0.59042   0.13049   0.00000  Uiso   1.00
C27    C     0.51005   0.49887   0.64863   0.00000  Uiso   1.00
C28    C     0.48971   0.50201   0.35429   0.00000  Uiso   1.00
H1     H     0.72249   0.46999   0.64189   0.00000  Uiso   1.00
H2     H     0.27421   0.51303   0.36119   0.00000  Uiso   1.00
H3     H     0.72431   0.47129   0.72987   0.00000  Uiso   1.00
H4     H     0.27240   0.51054   0.27326   0.00000  Uiso   1.00
H5     H     0.41621   0.77503   0.88519   0.00000  Uiso   1.00
H6     H     0.63245   0.24159   0.11536   0.00000  Uiso   1.00
C29    C     0.45137   0.59467   0.02912   0.00000  Uiso   1.00
C30    C     0.54164   0.40162   0.97400   0.00000  Uiso   1.00
C31    C     0.54390   0.40350   0.02455   0.00000  Uiso   1.00
C32    C     0.46233   0.59759   0.97797   0.00000  Uiso   1.00
C33    C     0.49558   0.49887   0.05189   0.00000  Uiso   1.00
C34    C     0.50408   0.49986   0.95093   0.00000  Uiso   1.00
C35    C     0.39591   0.68503   0.05842   0.00000  Uiso   1.00
C36    C     0.57499   0.30326   0.94572   0.00000  Uiso   1.00
C37    C     0.39110   0.68284   0.10829   0.00000  Uiso   1.00
C38    C     0.57678   0.30446   0.89600   0.00000  Uiso   1.00
O11    O     0.39191   0.68120   0.20762   0.00000  Uiso   1.00
O12    O     0.57913   0.30825   0.79645   0.00000  Uiso   1.00
C39    C     0.43382   0.69661   0.95285   0.00000  Uiso   1.00
C40    C     0.59457   0.31250   0.04865   0.00000  Uiso   1.00
H7     H     0.70500   0.49099   0.33441   0.00000  Uiso   1.00
H8     H     0.29787   0.52776   0.66835   0.00000  Uiso   1.00
H9     H     0.70170   0.49060   0.24687   0.00000  Uiso   1.00
H10    H     0.30137   0.52798   0.75593   0.00000  Uiso   1.00
H11    H     0.34752   0.75512   0.12938   0.00000  Uiso   1.00
H12    H     0.60332   0.22604   0.87571   0.00000  Uiso   1.00
H13    H     0.35107   0.75884   0.04453   0.00000  Uiso   1.00
H14    H     0.59708   0.22112   0.96065   0.00000  Uiso   1.00
H15    H     0.40955   0.77852   0.97018   0.00000  Uiso   1.00
H16    H     0.64154   0.23869   0.03029   0.00000  Uiso   1.00
C41    C     0.56887   0.85527   0.49948   0.00000  Uiso   1.00
C42    C     0.43105   0.14537   0.50674   0.00000  Uiso   1.00
C43    C     0.47797   0.93769   0.49677   0.00000  Uiso   1.00
C44    C     0.52278   0.06309   0.49446   0.00000  Uiso   1.00
H17    H     0.32651   0.11886   0.51944   0.00000  Uiso   1.00
H18    H     0.67293   0.88145   0.50107   0.00000  Uiso   1.00
H19    H     0.11721   0.44099   0.46582   0.00000  Uiso   1.00
H20    H     0.88246   0.55965   0.53713   0.00000  Uiso   1.00
N3     N     0.85092   0.46445   0.47712   0.00000  Uiso   1.00
N4     N     0.14878   0.53633   0.52579   0.00000  Uiso   1.00
C45    C     0.92673   0.50909   0.50599   0.00000  Uiso   1.00
C46    C     0.07297   0.49167   0.49693   0.00000  Uiso   1.00
H21    H     0.10058   0.58408   0.55437   0.00000  Uiso   1.00
H22    H     0.89916   0.41695   0.44846   0.00000  Uiso   1.00
C47    C     0.66691   0.09350   0.47775   0.00000  Uiso   1.00
O13    O     0.73501   0.14045   0.50559   0.00000  Uiso   1.00
O14    O     0.72912   0.05652   0.43204   0.00000  Uiso   1.00
H23    H     0.82885   0.07976   0.42698   0.00000  Uiso   1.00
C48    C     0.33512   0.90733   0.49436   0.00000  Uiso   1.00
O15    O     0.26239   0.86169   0.52945   0.00000  Uiso   1.00
O16    O     0.27903   0.94350   0.45428   0.00000  Uiso   1.00
H24    H     0.17920   0.92067   0.45919   0.00000  Uiso   1.00
