# generated using pymatgen
data_CuH24C28(NO5)2
_symmetry_space_group_name_H-M   'P 1'
_cell_length_a   12.55936800
_cell_length_b   13.99974600
_cell_length_c   23.36662500
_cell_angle_alpha   90.03199000
_cell_angle_beta   93.61729300
_cell_angle_gamma   98.20039300
_symmetry_Int_Tables_number   1
_chemical_formula_structural   CuH24C28(NO5)2
_chemical_formula_sum   'Cu2 H48 C56 N4 O20'
_cell_volume   4058.20609168
_cell_formula_units_Z   2
loop_
 _symmetry_equiv_pos_site_id
 _symmetry_equiv_pos_as_xyz
  1  'x, y, z'
loop_
 _atom_site_type_symbol
 _atom_site_label
 _atom_site_symmetry_multiplicity
 _atom_site_fract_x
 _atom_site_fract_y
 _atom_site_fract_z
 _atom_site_occupancy
  Cu  Cu1  1  0.38593600  0.48451900  0.49624700  1
  Cu  Cu2  1  0.60093100  0.49876500  0.50538900  1
  H  H1  1  0.48030400  0.25039200  0.95061900  1
  H  H2  1  0.52085900  0.73187100  0.05184900  1
  H  H3  1  0.66264500  0.56571100  0.22088800  1
  H  H4  1  0.34118700  0.39855500  0.78354200  1
  H  H5  1  0.33411500  0.43624100  0.31493600  1
  H  H6  1  0.64796500  0.56311200  0.68446300  1
  H  H7  1  0.33477500  0.43390600  0.21084400  1
  H  H8  1  0.65322500  0.56448000  0.78856600  1
  H  H9  1  0.64827000  0.27296800  0.06696500  1
  H  H10  1  0.59861500  0.17240000  0.01890900  1
  H  H11  1  0.54070600  0.07269100  0.10221000  1
  H  H12  1  0.68391800  0.11585800  0.10777300  1
  H  H13  1  0.59390600  0.17229200  0.15004500  1
  H  H14  1  0.40159300  0.80970200  0.98465000  1
  H  H15  1  0.35061700  0.70997900  0.93621500  1
  H  H16  1  0.40397600  0.81188400  0.85343300  1
  H  H17  1  0.31514600  0.86798700  0.89664800  1
  H  H18  1  0.45849300  0.91056000  0.90165900  1
  H  H19  1  0.66978500  0.69811900  0.38199200  1
  H  H20  1  0.60469200  0.69746500  0.31091400  1
  H  H21  1  0.78347800  0.71895900  0.26903300  1
  H  H22  1  0.77256200  0.81499400  0.31929300  1
  H  H23  1  0.84887600  0.71892000  0.34034100  1
  H  H24  1  0.25113900  0.50952600  0.65152300  1
  H  H25  1  0.21157000  0.45387700  0.71828900  1
  H  H26  1  0.11002200  0.31389800  0.66533400  1
  H  H27  1  0.06219600  0.42570600  0.64499200  1
  H  H28  1  0.14608500  0.37007600  0.59823900  1
  H  H29  1  0.25020400  0.02154900  0.45218600  1
  H  H30  1  0.29640800  0.95633900  0.51381100  1
  H  H31  1  0.25550000  0.80313300  0.45890700  1
  H  H32  1  0.13719700  0.86303700  0.46133900  1
  H  H33  1  0.21042300  0.86757200  0.39685600  1
  H  H34  1  0.69028500  0.02645200  0.48752300  1
  H  H35  1  0.73716100  0.96228900  0.54942000  1
  H  H36  1  0.77648800  0.11703800  0.60399100  1
  H  H37  1  0.84928600  0.12106400  0.53937100  1
  H  H38  1  0.73058800  0.18044100  0.54170100  1
  H  H39  1  0.96632900  0.69149200  0.56778100  1
  H  H40  1  0.03634100  0.67239500  0.50408400  1
  H  H41  1  0.20951500  0.68875400  0.56192000  1
  H  H42  1  0.14360400  0.79453800  0.56980000  1
  H  H43  1  0.14062800  0.70566200  0.62615500  1
  H  H44  1  0.95206700  0.31312500  0.49610200  1
  H  H45  1  0.02050300  0.29419300  0.43183700  1
  H  H46  1  0.84509700  0.28013200  0.37458200  1
  H  H47  1  0.84314900  0.19131800  0.43093600  1
  H  H48  1  0.77770500  0.29723700  0.43931000  1
  C  C1  1  0.47868300  0.30707700  0.49533400  1
  C  C2  1  0.50818700  0.67622700  0.50629900  1
  C  C3  1  0.49710200  0.50048400  0.39091900  1
  C  C4  1  0.48985200  0.48315200  0.61073300  1
  C  C5  1  0.50518000  0.57140400  0.88136900  1
  C  C6  1  0.49183900  0.41066500  0.12093500  1
  C  C7  1  0.49234000  0.40273500  0.88342400  1
  C  C8  1  0.50812700  0.57950400  0.11894000  1
  C  C9  1  0.49272500  0.40402800  0.94256500  1
  C  C10  1  0.50765700  0.57822700  0.05982100  1
  C  C11  1  0.49964500  0.49054700  0.97155600  1
  C  C12  1  0.50014500  0.49164800  0.03082400  1
  C  C13  1  0.50524700  0.57556200  0.94095100  1
  C  C14  1  0.49360200  0.40656500  0.06142000  1
  C  C15  1  0.48674700  0.31893900  0.97275900  1
  C  C16  1  0.51388200  0.66331900  0.02966600  1
  C  C17  1  0.48893700  0.31949700  0.03182400  1
  C  C18  1  0.51038100  0.66268800  0.97058800  1
  C  C19  1  0.59038200  0.53791900  0.24177300  1
  C  C20  1  0.40760300  0.43601900  0.76138400  1
  C  C21  1  0.59058400  0.54128000  0.30087200  1
  C  C22  1  0.40191200  0.43734600  0.70205100  1
  C  C23  1  0.49868200  0.50332400  0.32802700  1
  C  C24  1  0.48921000  0.48245300  0.67368100  1
  C  C25  1  0.40673100  0.46603600  0.29502300  1
  C  C26  1  0.57935500  0.52708400  0.70547300  1
  C  C27  1  0.40699700  0.46377900  0.23605300  1
  C  C28  1  0.58247800  0.52844900  0.76450500  1
  C  C29  1  0.49896400  0.49921900  0.20927300  1
  C  C30  1  0.49642400  0.48319500  0.79273900  1
  C  C31  1  0.51564300  0.77931000  0.50995300  1
  C  C32  1  0.47124600  0.20400100  0.49162500  1
  C  C33  1  0.52685500  0.96903300  0.51732200  1
  C  C34  1  0.46008600  0.01429300  0.48417600  1
  C  C35  1  0.46587300  0.11752500  0.48831300  1
  C  C36  1  0.52104000  0.86579500  0.51321900  1
  C  C37  1  0.01725100  0.46887800  0.48117500  1
  C  C38  1  0.96986800  0.51664100  0.51931600  1
  C  C39  1  0.85451400  0.51278700  0.51533300  1
  C  C40  1  0.13247600  0.47157900  0.48569700  1
  C  C41  1  0.58734700  0.20773500  0.06014700  1
  C  C42  1  0.60241800  0.13751900  0.10827100  1
  C  C43  1  0.41193200  0.77492100  0.94310400  1
  C  C44  1  0.39640800  0.84601600  0.89551800  1
  C  C45  1  0.67639400  0.67915300  0.33639200  1
  C  C46  1  0.77703200  0.73682700  0.31480600  1
  C  C47  1  0.23022500  0.43993500  0.67360400  1
  C  C48  1  0.13047100  0.38377700  0.64345500  1
  C  C49  1  0.28841900  0.95808700  0.46629200  1
  C  C50  1  0.21818800  0.86685400  0.44438800  1
  C  C51  1  0.69851700  0.02537400  0.53505000  1
  C  C52  1  0.76839200  0.11711600  0.55645700  1
  C  C53  1  0.03617000  0.66242600  0.55116600  1
  C  C54  1  0.13938100  0.71648000  0.57911700  1
  C  C55  1  0.95115900  0.32327900  0.44900600  1
  C  C56  1  0.84733300  0.26938000  0.42163700  1
  N  N1  1  0.49863800  0.48575800  0.85391800  1
  N  N2  1  0.49953300  0.49639300  0.14829000  1
  N  N3  1  0.22516900  0.47436000  0.48949700  1
  N  N4  1  0.76170500  0.50901200  0.51207100  1
  O  O1  1  0.38970000  0.34586500  0.49057700  1
  O  O2  1  0.59717700  0.63745400  0.51074900  1
  O  O3  1  0.57444300  0.35790000  0.50278400  1
  O  O4  1  0.41241500  0.62537300  0.49915600  1
  O  O5  1  0.40351200  0.48872500  0.41378700  1
  O  O6  1  0.58341400  0.49514100  0.58784400  1
  O  O7  1  0.58859400  0.50725900  0.42187600  1
  O  O8  1  0.39822200  0.47547700  0.57976600  1
  O  O9  1  0.50957100  0.65223200  0.85014900  1
  O  O10  1  0.48370000  0.32978900  0.15220900  1
  O  O11  1  0.48822600  0.31855400  0.85511900  1
  O  O12  1  0.51434600  0.66371300  0.14745500  1
  O  O13  1  0.48351000  0.23305200  0.05974900  1
  O  O14  1  0.51549800  0.74917300  0.94271200  1
  O  O15  1  0.68279100  0.58057200  0.33170200  1
  O  O16  1  0.31512900  0.38526800  0.67229400  1
  O  O17  1  0.38978000  0.96327600  0.44414700  1
  O  O18  1  0.59724000  0.02007400  0.55730600  1
  O  O19  1  0.03018100  0.56456700  0.56422600  1
  O  O20  1  0.95701500  0.42121600  0.43614000  1
