data_DB0-m3_o12_o28_f0_pcu.sym.28_repeat
_audit_creation_date              2024-02-20
_audit_creation_method            'Materials Studio'
_symmetry_space_group_name_H-M    'P1'
_symmetry_Int_Tables_number       1
_symmetry_cell_setting            triclinic
loop_
_symmetry_equiv_pos_as_xyz
  x,y,z
_cell_length_a                    10.2898
_cell_length_b                    11.4388
_cell_length_c                    23.4808
_cell_angle_alpha                 90.0093
_cell_angle_beta                  80.5013
_cell_angle_gamma                 92.4743
loop_
_atom_site_label
_atom_site_type_symbol
_atom_site_fract_x
_atom_site_fract_y
_atom_site_fract_z
_atom_site_U_iso_or_equiv
_atom_site_adp_type
_atom_site_occupancy
O1     O     0.42034   0.68581   0.50321   0.00000  Uiso   1.00
O2     O     0.57967   0.31420   0.49679   0.00000  Uiso   1.00
O3     O     0.64399   0.66030   0.49044   0.00000  Uiso   1.00
O4     O     0.35601   0.33970   0.50956   0.00000  Uiso   1.00
C1     C     0.54279   0.72768   0.49592   0.00000  Uiso   1.00
C2     C     0.45721   0.27232   0.50408   0.00000  Uiso   1.00
O5     O     0.38058   0.51575   0.59153   0.00000  Uiso   1.00
O6     O     0.61942   0.48425   0.40847   0.00000  Uiso   1.00
O7     O     0.60391   0.48929   0.57912   0.00000  Uiso   1.00
O8     O     0.39609   0.51071   0.42089   0.00000  Uiso   1.00
C3     C     0.49011   0.50382   0.61233   0.00000  Uiso   1.00
C4     C     0.50990   0.49618   0.38767   0.00000  Uiso   1.00
Zn1    Zn    0.35232   0.51660   0.50816   0.00000  Uiso   1.00
Zn2    Zn    0.64768   0.48340   0.49184   0.00000  Uiso   1.00
C5     C     0.50519   0.39519   0.11768   0.00000  Uiso   1.00
C6     C     0.49481   0.60481   0.88232   0.00000  Uiso   1.00
N1     N     0.50863   0.49772   0.14587   0.00000  Uiso   1.00
N2     N     0.49137   0.50228   0.85413   0.00000  Uiso   1.00
C7     C     0.50845   0.60027   0.11779   0.00000  Uiso   1.00
C8     C     0.49155   0.39973   0.88221   0.00000  Uiso   1.00
C9     C     0.50477   0.60220   0.05926   0.00000  Uiso   1.00
C10    C     0.49523   0.39780   0.94073   0.00000  Uiso   1.00
C11    C     0.50176   0.49884   0.02936   0.00000  Uiso   1.00
C12    C     0.49824   0.50116   0.97064   0.00000  Uiso   1.00
C13    C     0.50222   0.39359   0.05849   0.00000  Uiso   1.00
C14    C     0.49778   0.60641   0.94151   0.00000  Uiso   1.00
C15    C     0.50444   0.70740   0.03059   0.00000  Uiso   1.00
C16    C     0.49556   0.29260   0.96941   0.00000  Uiso   1.00
C17    C     0.50091   0.71041   0.97225   0.00000  Uiso   1.00
C18    C     0.49910   0.28959   0.02775   0.00000  Uiso   1.00
O9     O     0.50148   0.29522   0.14805   0.00000  Uiso   1.00
O10    O     0.49853   0.70478   0.85195   0.00000  Uiso   1.00
O11    O     0.51434   0.70108   0.14684   0.00000  Uiso   1.00
O12    O     0.48566   0.29892   0.85316   0.00000  Uiso   1.00
H1     H     0.50665   0.78935   0.05337   0.00000  Uiso   1.00
H2     H     0.49335   0.21065   0.94663   0.00000  Uiso   1.00
C19    C     0.59175   0.45762   0.75587   0.00000  Uiso   1.00
C20    C     0.40826   0.54238   0.24413   0.00000  Uiso   1.00
H3     H     0.67430   0.42208   0.77211   0.00000  Uiso   1.00
H4     H     0.32571   0.57792   0.22789   0.00000  Uiso   1.00
C21    C     0.59066   0.45897   0.69732   0.00000  Uiso   1.00
C22    C     0.40934   0.54103   0.30268   0.00000  Uiso   1.00
H5     H     0.67208   0.42215   0.66904   0.00000  Uiso   1.00
H6     H     0.32793   0.57785   0.33096   0.00000  Uiso   1.00
C23    C     0.48672   0.50490   0.67534   0.00000  Uiso   1.00
C24    C     0.51328   0.49510   0.32466   0.00000  Uiso   1.00
C25    C     0.38310   0.55067   0.71332   0.00000  Uiso   1.00
C26    C     0.61690   0.44933   0.28668   0.00000  Uiso   1.00
C27    C     0.38497   0.54858   0.77215   0.00000  Uiso   1.00
C28    C     0.61504   0.45142   0.22785   0.00000  Uiso   1.00
H7     H     0.30503   0.58356   0.80212   0.00000  Uiso   1.00
H8     H     0.69497   0.41644   0.19788   0.00000  Uiso   1.00
C29    C     0.48912   0.50248   0.79350   0.00000  Uiso   1.00
C30    C     0.51088   0.49752   0.20650   0.00000  Uiso   1.00
C31    C     0.57214   0.85503   0.49369   0.00000  Uiso   1.00
C32    C     0.42787   0.14497   0.50631   0.00000  Uiso   1.00
C33    C     0.48023   0.93631   0.50130   0.00000  Uiso   1.00
C34    C     0.51977   0.06369   0.49870   0.00000  Uiso   1.00
H9     H     0.32422   0.11894   0.51420   0.00000  Uiso   1.00
H10    H     0.67578   0.88106   0.48580   0.00000  Uiso   1.00
N3     N     0.84236   0.46205   0.48102   0.00000  Uiso   1.00
N4     N     0.15765   0.53795   0.51898   0.00000  Uiso   1.00
C35    C     0.92873   0.51133   0.50845   0.00000  Uiso   1.00
C36    C     0.07128   0.48867   0.49155   0.00000  Uiso   1.00
H11    H     0.12180   0.59211   0.55222   0.00000  Uiso   1.00
H12    H     0.87821   0.40789   0.44778   0.00000  Uiso   1.00
N5     N     0.49997   0.82173   0.94516   0.00000  Uiso   1.00
H13    H     0.58461   0.86983   0.95188   0.00000  Uiso   1.00
H14    H     0.41779   0.86433   0.96596   0.00000  Uiso   1.00
N6     N     0.50003   0.17827   0.05484   0.00000  Uiso   1.00
H15    H     0.41539   0.13017   0.04812   0.00000  Uiso   1.00
H16    H     0.58221   0.13567   0.03404   0.00000  Uiso   1.00
N7     N     0.27670   0.60336   0.69241   0.00000  Uiso   1.00
H17    H     0.31401   0.68098   0.67122   0.00000  Uiso   1.00
H18    H     0.20611   0.62560   0.72746   0.00000  Uiso   1.00
N8     N     0.72330   0.39664   0.30759   0.00000  Uiso   1.00
H19    H     0.68599   0.31902   0.32878   0.00000  Uiso   1.00
H20    H     0.79389   0.37440   0.27254   0.00000  Uiso   1.00
N9     N     0.65636   0.10020   0.48766   0.00000  Uiso   1.00
H21    H     0.69912   0.06819   0.44758   0.00000  Uiso   1.00
H22    H     0.70266   0.06762   0.52033   0.00000  Uiso   1.00
N10    N     0.34364   0.89980   0.51234   0.00000  Uiso   1.00
H23    H     0.30089   0.93181   0.55242   0.00000  Uiso   1.00
H24    H     0.29734   0.93238   0.47967   0.00000  Uiso   1.00
N11    N     0.11180   0.41232   0.44441   0.00000  Uiso   1.00
H25    H     0.16776   0.46105   0.41089   0.00000  Uiso   1.00
H26    H     0.16714   0.34694   0.45806   0.00000  Uiso   1.00
N12    N     0.88820   0.58768   0.55559   0.00000  Uiso   1.00
H27    H     0.83224   0.53895   0.58912   0.00000  Uiso   1.00
H28    H     0.83286   0.65306   0.54194   0.00000  Uiso   1.00
