# Generated by REPEAT Assigner based on pymatgen
data_DB0-m3_o24_o28_f0_pcu.sym.62_sqe
_audit_creation_date              2022-05-24
_audit_creation_method            REPEAT_Assigner
_cell_length_a                    23.446199
_cell_length_b                    10.766142
_cell_length_c                    9.718442
_cell_angle_alpha                 90.008067
_cell_angle_beta                  89.979161
_cell_angle_gamma                 90.002154
_cell_volume                      2453.178663
_symmetry_space_group_name_H-M    P1
_symmetry_Int_Tables_number       1
loop_
    _symmetry_equiv_pos_site_id
    _symmetry_equiv_pos_as_xyz
    1  x,y,z
loop_
    _atom_site_type_symbol
    _atom_site_label
    _atom_site_fract_x
    _atom_site_fract_y
    _atom_site_fract_z
    _atom_type_partial_charge
    O   O1   0.499901  0.315065  0.618567  -0.745035
    O   O2   0.500098  0.684934  0.381435  -0.745167
    O   O3   0.500138  0.314802  0.380840  -0.676909
    O   O4   0.499861  0.685197  0.619161  -0.676784
    C   C1   0.500023  0.257270  0.499808  0.686709
    C   C2   0.499976  0.742728  0.500194  0.686509
    O   O5   0.414912  0.500053  0.618089  -0.701439
    O   O6   0.585087  0.499946  0.381913  -0.701703
    O   O7   0.415140  0.499851  0.380625  -0.619774
    O   O8   0.584859  0.500148  0.619376  -0.619870
    C   C3   0.388315  0.499934  0.499240  0.775677
    C   C4   0.611684  0.500065  0.500761  0.775787
    Zn  Zn1  0.499828  0.500072  0.656623  1.043504
    Zn  Zn2  0.500170  0.499927  0.343378  1.043522
    C   C5   0.881960  0.592920  0.437426  0.464576
    C   C6   0.118039  0.407079  0.562575  0.464713
    N   N1   0.853456  0.500336  0.501017  -0.193736
    N   N2   0.146543  0.499663  0.498985  -0.193776
    C   C7   0.881994  0.407651  0.564274  0.455964
    C   C8   0.118005  0.592347  0.435727  0.456086
    C   C9   0.941002  0.406346  0.564954  -0.098735
    C   C10  0.058997  0.593652  0.435048  -0.098492
    C   C11  0.970564  0.500080  0.500230  0.092394
    C   C12  0.029435  0.499919  0.499771  0.092349
    C   C13  0.940965  0.593969  0.435954  -0.107954
    C   C14  0.059034  0.406030  0.564047  -0.108176
    C   C15  0.970644  0.311703  0.629209  -0.064996
    C   C16  0.029355  0.688295  0.370793  -0.065207
    C   C17  0.029431  0.311547  0.628759  -0.059186
    C   C18  0.970568  0.688452  0.371242  -0.059266
    O   O9   0.852790  0.685997  0.377999  -0.487871
    O   O10  0.147209  0.314002  0.622002  -0.487761
    O   O11  0.852852  0.314665  0.624013  -0.485312
    O   O12  0.147147  0.685334  0.375988  -0.485655
    H   H1   0.948557  0.236862  0.680675  0.131112
    H   H2   0.051442  0.763137  0.319327  0.131126
    H   H3   0.051550  0.236594  0.679900  0.129702
    H   H4   0.948449  0.763405  0.320102  0.129696
    C   C19  0.237159  0.499875  0.376261  -0.249819
    C   C20  0.762840  0.500123  0.623740  -0.249976
    H   H5   0.214467  0.498459  0.279453  0.142067
    H   H6   0.785532  0.501540  0.720549  0.142089
    C   C21  0.295981  0.499821  0.376161  0.065965
    C   C22  0.704018  0.500177  0.623840  0.066029
    H   H7   0.318150  0.499500  0.278672  0.057918
    H   H8   0.681849  0.500498  0.721329  0.058032
    C   C23  0.325727  0.499868  0.499060  -0.191554
    C   C24  0.674272  0.500130  0.500942  -0.191603
    C   C25  0.295893  0.499844  0.621883  0.005296
    C   C26  0.704106  0.500154  0.378118  0.005362
    H   H9   0.317973  0.500213  0.719441  0.078806
    H   H10  0.682026  0.499786  0.280560  0.078748
    C   C27  0.237085  0.499651  0.621678  -0.240483
    C   C28  0.762914  0.500347  0.378323  -0.240462
    H   H11  0.214340  0.501041  0.718455  0.145810
    H   H12  0.785659  0.498957  0.281547  0.145733
    C   C29  0.207445  0.499713  0.498955  0.306382
    C   C30  0.792554  0.500285  0.501046  0.306522
    C   C31  0.499861  0.040360  0.628331  0.077609
    C   C32  0.500138  0.959639  0.371670  0.077706
    C   C33  0.545953  0.959430  0.564340  -0.364491
    C   C34  0.454046  0.040569  0.435661  -0.364737
    H   H13  0.584167  0.922628  0.617780  0.208397
    H   H14  0.415832  0.077370  0.382221  0.208500
    H   H15  0.499745  0.076128  0.735353  -0.021170
    H   H16  0.500254  0.923870  0.264648  -0.021183
    C   C35  0.499986  0.880815  0.499875  0.236736
    C   C36  0.500013  0.119183  0.500127  0.236758
    C   C37  0.453894  0.959471  0.563827  -0.113344
    C   C38  0.546105  0.040528  0.436175  -0.114205
    H   H17  0.415553  0.922704  0.616838  0.046756
    H   H18  0.584446  0.077294  0.383163  0.046956
    C   C39  0.548697  0.472009  0.047433  -0.078185
    C   C40  0.451302  0.527990  0.952568  -0.077317
    C   C41  0.534878  0.576743  0.951612  -0.030556
    C   C42  0.465121  0.423256  0.048390  -0.031078
    H   H19  0.591213  0.448364  0.089939  0.128721
    H   H20  0.408786  0.551635  0.910063  0.128503
    N   N3   0.499535  0.499799  0.862440  0.226001
    N   N4   0.500464  0.500200  0.137562  0.226583
    C   C43  0.513062  0.394450  0.951576  -0.077474
    C   C44  0.486937  0.605548  0.048425  -0.078080
    H   H21  0.524074  0.302247  0.908211  0.131461
    H   H22  0.475925  0.697751  0.091791  0.131584
    I   I1   0.594152  0.707325  0.869388  -0.029137
    I   I2   0.405847  0.292673  0.130613  -0.028799
