# Generated by REPEAT Assigner based on pymatgen
data_DB0-m3_o9_o14_f0_nbo.sym.89
_audit_creation_date              2022-05-24
_audit_creation_method            REPEAT_Assigner
_cell_length_a                    19.139367
_cell_length_b                    18.903066
_cell_length_c                    18.897823
_cell_angle_alpha                 109.223881
_cell_angle_beta                  109.732049
_cell_angle_gamma                 109.719963
_cell_volume                      5245.995162
_symmetry_space_group_name_H-M    P1
_symmetry_Int_Tables_number       1
loop_
    _symmetry_equiv_pos_site_id
    _symmetry_equiv_pos_as_xyz
    1  x,y,z
loop_
    _atom_site_type_symbol
    _atom_site_label
    _atom_site_fract_x
    _atom_site_fract_y
    _atom_site_fract_z
    _atom_type_partial_charge
    C   C1    0.378977  0.504655  0.385848  0.572433
    C   C2    0.785016  0.830299  0.832855  -0.183992
    C   C3    0.330739  0.316565  0.815765  -0.212266
    C   C4    0.073671  0.323257  0.818987  -0.194790
    C   C5    0.995118  0.311498  0.809016  0.212554
    C   C6    0.920343  0.237090  0.737669  -0.154703
    C   C7    0.926081  0.178678  0.676139  -0.201170
    C   C8    0.004696  0.190609  0.686184  0.108502
    C   C9    0.079372  0.262693  0.759663  -0.128471
    C   C10   0.780527  0.140150  0.713599  -0.282701
    C   C11   0.698192  0.119160  0.696867  0.025284
    C   C12   0.669030  0.175193  0.689376  -0.250146
    C   C13   0.817369  0.827783  0.579824  -0.182989
    C   C14   0.722153  0.252134  0.698352  0.051622
    C   C15   0.804555  0.273159  0.715114  -0.209518
    C   C16   0.834378  0.217679  0.723767  0.283365
    C   C17   0.742073  0.786535  0.105181  -0.025567
    C   C18   0.438773  0.894651  0.599160  0.070238
    C   C19   0.046949  0.420757  0.339506  -0.185929
    C   C20   0.489074  0.245882  0.646708  0.107215
    C   C21   0.874874  0.497507  0.297847  0.218332
    C   C22   0.166713  0.687130  0.326493  -0.427465
    C   C23   0.810405  0.815932  0.501266  0.147445
    C   C24   0.737723  0.744316  0.424832  -0.127316
    C   C25   0.677283  0.683288  0.429472  -0.246970
    C   C26   0.684793  0.694490  0.508176  0.262101
    C   C27   0.754412  0.769442  0.584195  -0.171474
    C   C28   0.645282  0.712138  0.277452  -0.343442
    C   C29   0.629767  0.695900  0.195392  -0.015756
    C   C30   0.691133  0.695175  0.173136  0.143460
    C   C31   0.617245  0.626943  0.507537  0.531568
    C   C32   0.767856  0.710468  0.232951  0.065241
    C   C33   0.783808  0.727786  0.315338  -0.315488
    C   C34   0.722893  0.729250  0.338315  0.228509
    C   C35   0.482620  0.786378  0.529521  0.347920
    C   C36   0.407964  0.709307  0.464760  -0.297251
    C   C37   0.400188  0.664458  0.385635  0.250659
    C   C38   0.465900  0.698685  0.370369  -0.215655
    C   C39   0.540025  0.776420  0.434740  -0.085722
    C   C40   0.548709  0.819849  0.514540  -0.266493
    C   C41   0.262051  0.576699  0.249315  -0.214548
    C   C42   0.619133  0.503600  0.623085  0.717677
    C   C43   0.188195  0.498708  0.183793  0.224170
    C   C44   0.178552  0.422602  0.184198  -0.203815
    C   C45   0.241379  0.426604  0.251294  -0.363453
    C   C46   0.312409  0.505044  0.319121  0.251698
    C   C47   0.322826  0.580715  0.318112  -0.028659
    C   C48   0.056652  0.280130  0.129747  -0.298209
    C   C49   0.990410  0.198284  0.063201  -0.073428
    C   C50   0.974593  0.172162  0.979494  -0.146112
    C   C51   0.025319  0.227763  0.962393  -0.138878
    C   C52   0.091293  0.309825  0.028783  -0.140805
    C   C53   0.379270  0.380620  0.502095  0.661893
    C   C54   0.106535  0.336713  0.112635  0.382060
    C   C55   0.234100  0.516747  0.615181  -0.186351
    C   C56   0.248475  0.448254  0.604308  -0.130336
    C   C57   0.239172  0.396755  0.526502  0.152682
    C   C58   0.213406  0.412786  0.458707  -0.048346
    C   C59   0.196798  0.480022  0.469009  0.017128
    C   C60   0.208006  0.532468  0.547425  -0.043249
    C   C61   0.188315  0.254258  0.513428  -0.272192
    C   C62   0.195091  0.182451  0.507175  0.229561
    C   C63   0.262240  0.175957  0.499274  -0.143877
    C   C64   0.781368  0.886418  0.802047  -0.066097
    C   C65   0.318900  0.239268  0.493548  -0.220707
    C   C66   0.313737  0.312574  0.502570  0.095485
    C   C67   0.248504  0.320670  0.514407  -0.036430
    C   C68   0.335180  0.107846  0.560891  0.184560
    C   C69   0.346073  0.037565  0.552066  -0.180123
    C   C70   0.295083  0.961011  0.473714  0.002750
    C   C71   0.232017  0.953992  0.404450  -0.277365
    C   C72   0.220266  0.023794  0.413341  -0.092132
    C   C73   0.271910  0.100831  0.491429  0.172483
    C   C74   0.771594  0.517982  0.614477  -0.189003
    C   C75   0.771380  0.866257  0.720916  -0.252054
    C   C76   0.839662  0.517574  0.605224  -0.161474
    C   C77   0.896768  0.505860  0.660349  -0.012909
    C   C78   0.888015  0.498071  0.727072  -0.267869
    C   C79   0.821491  0.501826  0.739718  0.104478
    C   C80   0.759978  0.507359  0.679931  0.120764
    C   C81   0.689164  0.504431  0.687703  -0.011338
    C   C82   0.681996  0.498406  0.755863  -0.236509
    C   C83   0.743354  0.494086  0.815615  -0.106111
    C   C84   0.814032  0.497471  0.809401  0.134155
    C   C85   0.002928  0.873692  0.389061  0.389559
    C   C86   0.764745  0.789742  0.670166  0.291588
    C   C87   0.878988  0.882122  0.502027  0.583468
    C   C88   0.005731  0.123345  0.620611  0.667898
    C   C89   0.128549  0.114378  0.506319  0.614733
    C   C90   0.994946  0.377652  0.876661  0.590164
    C   C91   0.121382  0.499483  0.117081  0.614912
    C   C92   0.006155  0.622984  0.121154  0.620191
    C   C93   0.880367  0.499167  0.879007  0.659363
    C   C94   0.120817  0.777920  0.556136  -0.076927
    C   C95   0.109225  0.785564  0.483559  -0.314626
    C   C96   0.030546  0.732074  0.407428  0.386614
    C   C97   0.770760  0.734887  0.702237  -0.231831
    C   C98   0.964691  0.667106  0.403246  -0.092541
    C   C99   0.976025  0.661211  0.476835  -0.156036
    C   C100  0.053895  0.716477  0.553098  -0.081897
    C   C101  0.021961  0.684886  0.265820  -0.045786
    C   C102  0.007952  0.689044  0.190893  0.131424
    C   C103  0.997888  0.756287  0.184394  -0.295817
    C   C104  0.996033  0.814382  0.249793  -0.033321
    C   C105  0.005344  0.808043  0.322732  0.353701
    C   C106  0.018889  0.742440  0.331144  -0.219164
    C   C107  0.051727  0.848218  0.127279  -0.388951
    C   C108  0.779601  0.754527  0.782834  0.053458
    C   C109  0.046231  0.863769  0.059844  -0.050484
    C   C110  0.980524  0.801693  0.976268  -0.114483
    C   C111  0.920253  0.724348  0.960371  -0.084341
    C   C112  0.925610  0.708570  0.027690  -0.116937
    C   C113  0.992070  0.770204  0.111360  0.417986
    C   C114  0.303329  0.306325  0.872237  -0.101572
    C   C115  0.220981  0.287926  0.853176  -0.150721
    C   C116  0.165252  0.278295  0.776886  0.209646
    C   C117  0.193097  0.289294  0.720741  -0.184304
    C   C118  0.275786  0.308435  0.740268  0.024091
    H   H1    0.792255  0.845732  0.896212  0.100985
    H   H2    0.815537  0.708783  0.215166  0.001633
    H   H3    0.844065  0.739648  0.361782  0.232915
    H   H4    0.607353  0.880101  0.565401  0.138906
    H   H5    0.356398  0.682840  0.476772  0.104298
    H   H6    0.459750  0.663952  0.308308  0.084704
    H   H7    0.591847  0.802899  0.423096  0.112226
    H   H8    0.271646  0.636160  0.248815  0.093514
    H   H9    0.234970  0.367313  0.250631  0.172454
    H   H10   0.068786  0.300077  0.195253  0.171785
    H   H11   0.951035  0.154458  0.076745  0.094837
    H   H12   0.785747  0.945972  0.841243  0.105519
    H   H13   0.922871  0.107874  0.927384  0.106562
    H   H14   0.013607  0.206774  0.896926  0.127818
    H   H15   0.131577  0.352577  0.015022  0.088100
    H   H16   0.195036  0.585122  0.555300  0.048876
    H   H17   0.241917  0.557227  0.676372  0.136052
    H   H18   0.267178  0.434952  0.657014  0.082963
    H   H19   0.203409  0.371032  0.396747  0.061636
    H   H20   0.136061  0.259763  0.519714  0.146710
    H   H21   0.369593  0.232309  0.484734  0.138062
    H   H22   0.394922  0.042724  0.606605  0.032350
    H   H23   0.767473  0.910062  0.696696  0.131528
    H   H24   0.304306  0.906327  0.466657  0.074545
    H   H25   0.192055  0.893837  0.343111  0.124418
    H   H26   0.171198  0.018451  0.358798  0.079307
    H   H27   0.627018  0.495511  0.761826  0.165056
    H   H28   0.729555  0.528592  0.569903  0.159547
    H   H29   0.847557  0.525480  0.553812  0.129017
    H   H30   0.949094  0.503365  0.651756  0.082779
    H   H31   0.933640  0.486874  0.766864  0.160668
    H   H32   0.736974  0.490512  0.869204  0.108059
    H   H33   0.062721  0.710978  0.610250  0.098080
    H   H34   0.767869  0.676155  0.663959  0.079661
    H   H35   0.182231  0.820730  0.615699  0.090333
    H   H36   0.161676  0.834733  0.486803  0.166746
    H   H37   0.924091  0.612336  0.474550  0.127058
    H   H38   0.987953  0.866397  0.243798  0.079099
    H   H39   0.103592  0.897156  0.192707  0.185565
    H   H40   0.093403  0.924681  0.072564  0.097731
    H   H41   0.975950  0.813792  0.923261  0.081123
    H   H42   0.868559  0.676166  0.894982  0.072797
    H   H43   0.877217  0.648298  0.014804  0.067017
    H   H44   0.395536  0.331664  0.831020  0.148248
    H   H45   0.781955  0.710256  0.806591  0.071715
    H   H46   0.346572  0.313256  0.931752  0.104368
    H   H47   0.199985  0.280449  0.897991  0.091043
    H   H48   0.150698  0.284545  0.662314  0.106389
    H   H49   0.297978  0.317836  0.696833  0.067338
    H   H50   0.132035  0.379988  0.875335  0.133148
    H   H51   0.867889  0.121524  0.620017  0.132616
    H   H52   0.802935  0.095811  0.719313  0.147095
    H   H53   0.656371  0.058558  0.689279  0.031898
    H   H54   0.604306  0.158363  0.675807  0.143889
    H   H55   0.698967  0.295675  0.691550  0.004000
    H   H56   0.872430  0.884790  0.639114  0.121125
    H   H57   0.845286  0.332532  0.720258  0.085960
    H   H58   0.720434  0.800858  0.051971  0.073380
    H   H59   0.808793  0.799446  0.126385  0.009938
    H   H60   0.739599  0.828657  0.160172  0.017534
    H   H61   0.456277  0.952761  0.657088  0.086741
    H   H62   0.368380  0.849356  0.563119  -0.001660
    H   H63   0.458209  0.915632  0.557236  0.011666
    H   H64   0.004891  0.415896  0.278791  0.078066
    H   H65   0.028256  0.443381  0.388360  0.078298
    H   H66   0.039243  0.355934  0.325197  0.048127
    H   H67   0.622267  0.626287  0.370176  0.152455
    H   H68   0.497888  0.305267  0.642759  0.024466
    H   H69   0.476354  0.195905  0.585354  -0.001823
    H   H70   0.548268  0.261157  0.701466  0.021511
    H   H71   0.852580  0.452207  0.229711  0.003558
    H   H72   0.835609  0.464269  0.320833  -0.037312
    H   H73   0.943045  0.518229  0.338542  -0.031155
    H   H74   0.208004  0.667864  0.363157  0.122647
    H   H75   0.183710  0.753147  0.371206  0.135679
    H   H76   0.177643  0.687349  0.272612  0.183394
    H   H77   0.596633  0.712508  0.294060  0.214424
    H   H78   0.569289  0.683436  0.148389  0.040268
    O   O1    0.410263  0.557770  0.468257  -0.633460
    O   O2    0.952391  0.903680  0.363080  -0.624015
    O   O3    0.959415  0.909762  0.556160  -0.670855
    O   O4    0.857347  0.911074  0.448876  -0.614356
    O   O5    0.057846  0.095190  0.646698  -0.648012
    O   O6    0.951391  0.091273  0.538394  -0.682144
    O   O7    0.150669  0.084840  0.559113  -0.610535
    O   O8    0.048491  0.089229  0.454984  -0.709560
    O   O9    0.050694  0.459448  0.908944  -0.713286
    O   O10   0.941411  0.352975  0.903794  -0.589838
    O   O11   0.145983  0.555710  0.092034  -0.681810
    O   O12   0.403470  0.449194  0.359409  -0.661041
    O   O13   0.040089  0.445843  0.086758  -0.671606
    O   O14   0.059441  0.647653  0.093771  -0.657321
    O   O15   0.951562  0.541170  0.089875  -0.678522
    O   O16   0.961563  0.554262  0.910888  -0.692680
    O   O17   0.855569  0.445608  0.906845  -0.671130
    O   O18   0.591549  0.650281  0.562856  -0.546515
    O   O19   0.585109  0.545310  0.450992  -0.696280
    O   O20   0.591993  0.556669  0.649919  -0.671135
    O   O21   0.586647  0.449709  0.540826  -0.718133
    O   O22   0.410561  0.462053  0.557676  -0.664919
    O   O23   0.405741  0.356983  0.447487  -0.676628
    O   O24   0.055375  0.904590  0.471179  -0.574357
    S   S1    0.670963  0.673459  0.066659  -0.237118
    S   S2    0.494969  0.841395  0.633798  -0.285000
    S   S3    0.157848  0.497768  0.380137  -0.032056
    S   S4    0.399297  0.205683  0.664018  -0.228340
    S   S5    0.864333  0.590977  0.303629  -0.212869
    S   S6    0.054692  0.611032  0.283169  0.029322
    Zn  Zn1   0.499776  0.572209  0.575813  1.250473
    Zn  Zn2   0.496687  0.434980  0.433557  1.306801
    Zn  Zn3   0.070577  0.998294  0.576020  1.258687
    Zn  Zn4   0.937593  0.998888  0.433464  1.287104
    Zn  Zn5   0.069769  0.569577  0.999279  1.303939
    Zn  Zn6   0.931792  0.431023  0.998924  1.275723
