# Generated by REPEAT Assigner based on pymatgen
data_DB0-m3_o160_o1500_f0_fsc.sym.84_sqe
_audit_creation_date              2022-05-24
_audit_creation_method            REPEAT_Assigner
_cell_length_a                    8.480929
_cell_length_b                    13.421835
_cell_length_c                    15.042491
_cell_angle_alpha                 98.866366
_cell_angle_beta                  89.847575
_cell_angle_gamma                 89.716434
_cell_volume                      1691.789327
_symmetry_space_group_name_H-M    P1
_symmetry_Int_Tables_number       1
loop_
    _symmetry_equiv_pos_site_id
    _symmetry_equiv_pos_as_xyz
    1  x,y,z
loop_
    _atom_site_type_symbol
    _atom_site_label
    _atom_site_fract_x
    _atom_site_fract_y
    _atom_site_fract_z
    _atom_type_partial_charge
    H   H1   0.000360  0.056907  0.565891  0.159007
    C   C1   0.858525  0.041060  0.679548  -0.168168
    C   C2   0.857760  0.025496  0.768053  -0.249662
    H   H2   0.747099  0.016657  0.801715  0.127645
    C   C3   0.998832  0.017937  0.812580  0.505092
    C   C4   0.140271  0.018616  0.766587  -0.262322
    H   H3   0.250743  0.010116  0.800313  0.112232
    C   C5   0.140441  0.033483  0.677924  -0.014843
    C   C6   0.000027  0.048485  0.636089  -0.153010
    C   C7   0.944823  0.086586  0.970811  0.202450
    C   C8   0.946970  0.077760  0.061284  -0.319486
    H   H4   0.909627  0.139220  0.112044  0.101739
    C   C9   0.002227  0.990467  0.088302  0.310523
    C   C10  0.055024  0.911664  0.025334  -0.268934
    H   H5   0.097002  0.843366  0.047397  0.089180
    C   C11  0.053059  0.919860  0.935009  0.198293
    C   C12  0.998181  0.007461  0.907811  -0.464763
    C   C13  0.864015  0.979467  0.229891  -0.015043
    C   C14  0.864493  0.966934  0.319493  -0.215393
    C   C15  0.005409  0.953252  0.361215  -0.075278
    H   H6   0.005656  0.945883  0.431645  0.088587
    C   C16  0.146606  0.959988  0.317370  -0.173215
    C   C17  0.147118  0.974871  0.228478  -0.149061
    C   C18  0.005164  0.981061  0.183810  0.079054
    O   O1   0.660646  0.108872  0.592826  -0.775014
    O   O2   0.668467  0.937533  0.596910  -0.711997
    C   C19  0.715577  0.029933  0.625066  0.945790
    O   O3   0.341744  0.932166  0.598515  -0.650084
    O   O4   0.331540  0.101755  0.588885  -0.715763
    C   C20  0.284094  0.023145  0.623378  0.763895
    O   O5   0.344825  0.892277  0.404612  -0.779908
    O   O6   0.337691  0.062811  0.400280  -0.708247
    C   C21  0.289883  0.970848  0.372055  1.009828
    O   O7   0.663756  0.069062  0.399771  -0.755908
    O   O8   0.674202  0.898812  0.409540  -0.721118
    C   C22  0.721995  0.977820  0.375423  0.925558
    Zn  Zn1  0.505818  0.889998  0.502735  0.991364
    Zn  Zn2  0.498836  0.111079  0.495154  1.050334
    C   C23  0.358406  0.299194  0.493189  -0.262522
    N   N1   0.490617  0.241247  0.491633  0.160715
    C   C24  0.632950  0.285587  0.492175  -0.161980
    C   C25  0.647318  0.388498  0.494717  -0.115019
    C   C26  0.513891  0.448802  0.497073  -0.172486
    C   C27  0.369330  0.401960  0.495728  0.519896
    C   C28  0.657590  0.608019  0.503089  -0.217918
    C   C29  0.518605  0.553513  0.500851  0.215952
    C   C30  0.377994  0.606150  0.502294  0.101652
    C   C31  0.236841  0.556110  0.500576  0.015247
    N   N2   0.234939  0.455814  0.497566  -0.409474
    C   C32  0.652150  0.711323  0.505627  -0.134191
    N   N3   0.513102  0.760110  0.506253  0.158516
    C   C33  0.377120  0.709195  0.504801  -0.184967
    H   H7   0.738599  0.240159  0.491660  0.200213
    H   H8   0.266466  0.749477  0.504594  0.166064
    H   H9   0.126844  0.597334  0.501735  0.121310
    H   H10  0.764827  0.418181  0.495292  0.137027
    H   H11  0.772236  0.573431  0.502409  0.162153
    H   H12  0.760817  0.753147  0.506041  0.183257
    C   C34  0.301097  0.986775  0.183614  0.352200
    O   O9   0.379091  0.070008  0.230036  -0.537980
    H   H13  0.288437  0.997641  0.112624  -0.089480
    H   H14  0.371369  0.917354  0.185290  -0.020117
    H   H15  0.309155  0.127951  0.224352  0.323393
    C   C35  0.194224  0.259033  0.493802  0.422444
    O   O10  0.117294  0.304203  0.571832  -0.601278
    H   H16  0.185808  0.177278  0.489625  -0.031403
    H   H17  0.130752  0.279323  0.434690  -0.009074
    H   H18  0.173577  0.278316  0.621210  0.357168
    C   C36  0.891791  0.181948  0.939994  0.378347
    O   O11  0.863604  0.257193  0.013205  -0.603187
    H   H19  0.781981  0.168329  0.900389  -0.062174
    H   H20  0.984540  0.207844  0.896865  -0.039483
    H   H21  0.747405  0.259365  0.019786  0.361406
    C   C37  0.103533  0.832770  0.866981  0.117823
    O   O12  0.983558  0.808812  0.804277  -0.538991
    H   H22  0.128981  0.766312  0.900250  0.017300
    H   H23  0.211968  0.851472  0.832048  0.024455
    H   H24  0.924812  0.753854  0.826295  0.355665
    C   C38  0.712860  0.985127  0.180876  0.237111
    O   O13  0.716756  0.916900  0.100994  -0.589655
    H   H25  0.694073  0.062447  0.165643  -0.019402
    H   H26  0.615056  0.964801  0.222697  0.055768
    H   H27  0.611710  0.923437  0.073866  0.342344
