# generated using pymatgen
data_CuH18C24N3O5
_symmetry_space_group_name_H-M   'P 1'
_cell_length_a   14.95879000
_cell_length_b   15.55537100
_cell_length_c   17.00471900
_cell_angle_alpha   96.36039900
_cell_angle_beta   90.00491600
_cell_angle_gamma   92.82469600
_symmetry_Int_Tables_number   1
_chemical_formula_structural   CuH18C24N3O5
_chemical_formula_sum   'Cu2 H36 C48 N6 O10'
_cell_volume   3927.62545372
_cell_formula_units_Z   2
loop_
 _symmetry_equiv_pos_site_id
 _symmetry_equiv_pos_as_xyz
  1  'x, y, z'
loop_
 _atom_site_type_symbol
 _atom_site_label
 _atom_site_symmetry_multiplicity
 _atom_site_fract_x
 _atom_site_fract_y
 _atom_site_fract_z
 _atom_site_occupancy
  Cu  Cu1  1  0.49605000  0.41541300  0.49545000  1
  Cu  Cu2  1  0.50420000  0.58852500  0.50554700  1
  H  H1  1  0.77613500  0.49510500  0.37789500  1
  H  H2  1  0.22389400  0.50719800  0.62138400  1
  H  H3  1  0.91293300  0.48818900  0.30461600  1
  H  H4  1  0.08706500  0.50612200  0.69391600  1
  H  H5  1  0.07490600  0.48558900  0.30061100  1
  H  H6  1  0.92545500  0.50538300  0.69795700  1
  H  H7  1  0.48756200  0.38012700  0.74333800  1
  H  H8  1  0.51127200  0.62359400  0.25773000  1
  H  H9  1  0.48933700  0.38851200  0.88404200  1
  H  H10  1  0.50935600  0.61569800  0.11606300  1
  H  H11  1  0.48627700  0.33849300  0.10061200  1
  H  H12  1  0.50965200  0.66582500  0.89936300  1
  H  H13  1  0.48794400  0.34713600  0.24435300  1
  H  H14  1  0.50714400  0.65743200  0.75606600  1
  H  H15  1  0.58232600  0.28448000  0.58352900  1
  H  H16  1  0.41906400  0.71812600  0.41744300  1
  H  H17  1  0.57608100  0.12914900  0.58108200  1
  H  H18  1  0.42365600  0.87405800  0.42155600  1
  H  H19  1  0.61371800  0.89104500  0.61215700  1
  H  H20  1  0.38436500  0.11356700  0.39205900  1
  H  H21  1  0.60564300  0.73398900  0.60411600  1
  H  H22  1  0.39406800  0.27165300  0.39826100  1
  H  H23  1  0.69472700  0.61347300  0.64877000  1
  H  H24  1  0.81442600  0.63606100  0.64803100  1
  H  H25  1  0.70632200  0.56350400  0.78169600  1
  H  H26  1  0.82540600  0.58971300  0.78243400  1
  H  H27  1  0.79708000  0.74317000  0.76848600  1
  H  H28  1  0.74244100  0.70757000  0.85494000  1
  H  H29  1  0.67760700  0.71766400  0.76704000  1
  H  H30  1  0.31652900  0.59790600  0.36228500  1
  H  H31  1  0.19909500  0.62019000  0.36458800  1
  H  H32  1  0.29938800  0.53144900  0.22266100  1
  H  H33  1  0.18373200  0.56001000  0.22383500  1
  H  H34  1  0.23144400  0.71535000  0.25597500  1
  H  H35  1  0.28159800  0.66923300  0.16514300  1
  H  H36  1  0.34736200  0.68685300  0.25515900  1
  C  C1  1  0.50169500  0.49195500  0.34824600  1
  C  C2  1  0.49804600  0.51193000  0.65210700  1
  C  C3  1  0.32861000  0.50101500  0.49660900  1
  C  C4  1  0.67175500  0.50264200  0.50265000  1
  C  C5  1  0.81666000  0.50645500  0.57357100  1
  C  C6  1  0.18392800  0.49808300  0.42560500  1
  C  C7  1  0.76934600  0.50298700  0.50323600  1
  C  C8  1  0.23109500  0.50119000  0.49596200  1
  C  C9  1  0.81405900  0.49809100  0.43230100  1
  C  C10  1  0.18626400  0.50419500  0.56678000  1
  C  C11  1  0.90608400  0.49722900  0.43079000  1
  C  C12  1  0.09414100  0.50327700  0.56811200  1
  C  C13  1  0.95390000  0.50053500  0.50045800  1
  C  C14  1  0.04632900  0.50025000  0.49848900  1
  C  C15  1  0.90933100  0.50376900  0.57194900  1
  C  C16  1  0.09093400  0.49656100  0.42697700  1
  C  C17  1  0.95021500  0.49194400  0.35942200  1
  C  C18  1  0.04989800  0.50470300  0.63923400  1
  C  C19  1  0.04216000  0.49087900  0.35736400  1
  C  C20  1  0.95795600  0.50443200  0.64126900  1
  C  C21  1  0.50153200  0.48617700  0.26143300  1
  C  C22  1  0.49827000  0.51783500  0.73865000  1
  C  C23  1  0.50707500  0.56057700  0.22380300  1
  C  C24  1  0.49296200  0.44353100  0.77653700  1
  C  C25  1  0.50566000  0.55554500  0.14226000  1
  C  C26  1  0.49404800  0.44881800  0.85796000  1
  C  C27  1  0.49867100  0.47527200  0.09748400  1
  C  C28  1  0.50051200  0.52913300  0.90261800  1
  C  C29  1  0.49282700  0.40123400  0.13522800  1
  C  C30  1  0.50535300  0.60303500  0.86471500  1
  C  C31  1  0.49403800  0.40638400  0.21658800  1
  C  C32  1  0.50399600  0.59786300  0.78335800  1
  C  C33  1  0.46144600  0.75688100  0.46032000  1
  C  C34  1  0.53942600  0.24653600  0.54048100  1
  C  C35  1  0.46470500  0.84585800  0.46328200  1
  C  C36  1  0.53618900  0.15742000  0.53830400  1
  C  C37  1  0.51908300  0.89557600  0.51863800  1
  C  C38  1  0.48139400  0.10840100  0.48303900  1
  C  C39  1  0.56979700  0.85420500  0.56901600  1
  C  C40  1  0.42990400  0.15043200  0.43354700  1
  C  C41  1  0.56485600  0.76511200  0.56420900  1
  C  C42  1  0.43480800  0.23942000  0.43751300  1
  C  C43  1  0.75985100  0.59444100  0.67016400  1
  C  C44  1  0.75980800  0.60655600  0.75980900  1
  C  C45  1  0.74310200  0.69990400  0.78933700  1
  C  C46  1  0.24957100  0.57594500  0.33815300  1
  C  C47  1  0.25118900  0.57811900  0.24919400  1
  C  C48  1  0.27976500  0.66834800  0.23024000  1
  N  N1  1  0.49665100  0.46682300  0.01378200  1
  N  N2  1  0.50190800  0.53777400  0.98634900  1
  N  N3  1  0.51106300  0.71772400  0.50998500  1
  N  N4  1  0.49037300  0.28614700  0.48965700  1
  N  N5  1  0.52437000  0.98710700  0.52526900  1
  N  N6  1  0.47579400  0.01687100  0.47657100  1
  O  O1  1  0.49540600  0.41999400  0.38168600  1
  O  O2  1  0.50595200  0.58393200  0.61869700  1
  O  O3  1  0.50787000  0.56852200  0.38901600  1
  O  O4  1  0.49123200  0.43528100  0.61133300  1
  O  O5  1  0.36660100  0.42634500  0.49121800  1
  O  O6  1  0.63383300  0.57691800  0.50761100  1
  O  O7  1  0.37402300  0.57580800  0.50522000  1
  O  O8  1  0.62648200  0.42818600  0.49580200  1
  O  O9  1  0.77147200  0.50726500  0.64381100  1
  O  O10  1  0.22904500  0.49117100  0.35507800  1
