# Generated by REPEAT Assigner based on pymatgen
data_DB0-m29_o99_o52_f0_pts.sym.34
_audit_creation_date              2022-05-24
_audit_creation_method            REPEAT_Assigner
_cell_length_a                    15.968405
_cell_length_b                    9.377892
_cell_length_c                    20.101449
_cell_angle_alpha                 93.590099
_cell_angle_beta                  101.034998
_cell_angle_gamma                 97.119039
_cell_volume                      2920.214858
_symmetry_space_group_name_H-M    P1
_symmetry_Int_Tables_number       1
loop_
    _symmetry_equiv_pos_site_id
    _symmetry_equiv_pos_as_xyz
    1  x,y,z
loop_
    _atom_site_type_symbol
    _atom_site_label
    _atom_site_fract_x
    _atom_site_fract_y
    _atom_site_fract_z
    _atom_type_partial_charge
    C   C1    0.212290  0.042879  0.899633  0.083168
    C   C2    0.131436  0.033091  0.914158  -0.247530
    C   C3    0.120729  0.016366  0.979365  0.577211
    C   C4    0.190480  0.009527  0.030849  -0.367940
    C   C5    0.273929  0.021555  0.017366  0.212401
    C   C6    0.283623  0.038234  0.950351  -0.036287
    C   C7    0.035755  0.004724  0.993980  -0.245256
    C   C8    0.964346  0.995104  0.006137  -0.241933
    C   C9    0.809612  0.990245  0.969284  -0.366283
    C   C10   0.726169  0.978205  0.982780  0.210382
    C   C11   0.716497  0.961574  0.049804  -0.034924
    C   C12   0.787845  0.956975  0.100515  0.082822
    C   C13   0.868691  0.966772  0.085977  -0.246524
    C   C14   0.879377  0.983458  0.020763  0.574378
    O   O1    0.519142  0.189958  0.816449  -0.548547
    C   C15   0.469511  0.208236  0.758289  0.484175
    O   O2    0.425270  0.163264  0.951580  -0.392107
    O   O3    0.412734  0.101935  0.725148  -0.474987
    O   O4    0.379395  0.954140  0.883505  -0.531863
    C   C16   0.367108  0.050063  0.929788  0.459970
    Fe  Fe1   0.489680  0.004050  0.853637  1.348109
    O   O5    0.574777  0.002215  0.941000  -0.430373
    O   O6    0.657494  0.974052  0.863709  -0.424128
    C   C17   0.650596  0.986103  0.927662  0.418515
    O   O7    0.489067  0.863007  0.774189  -0.393317
    O   O8    0.527602  0.733429  0.862895  -0.320326
    C   C18   0.506797  0.739663  0.796968  0.188672
    O   O9    0.511019  0.136728  0.226030  -0.392892
    O   O10   0.472414  0.266265  0.137323  -0.320218
    C   C19   0.493230  0.260038  0.203250  0.187687
    O   O11   0.425306  0.997497  0.059148  -0.430033
    O   O12   0.342580  0.025601  0.136438  -0.423792
    C   C20   0.349487  0.013598  0.072486  0.417556
    O   O13   0.587262  0.897710  0.275070  -0.475322
    O   O14   0.620748  0.045612  0.116686  -0.532041
    C   C21   0.633020  0.949731  0.070378  0.459944
    O   O15   0.480877  0.809692  0.183753  -0.547866
    C   C22   0.530471  0.791427  0.241932  0.484271
    O   O16   0.574852  0.836544  0.048575  -0.392380
    Fe  Fe2   0.510462  0.995649  0.146544  1.347374
    C   C23   0.499432  0.608241  0.750352  0.522555
    C   C24   0.509049  0.617512  0.683189  -0.267262
    C   C25   0.497278  0.492686  0.639227  -0.117882
    C   C26   0.483629  0.359243  0.663879  -0.185928
    H   H1    0.477118  0.261366  0.630850  0.140404
    C   C27   0.478798  0.349314  0.731038  0.280160
    C   C28   0.482480  0.472523  0.773408  -0.353774
    N   N1    0.526964  0.389489  0.533285  -0.256680
    N   N2    0.527277  0.391521  0.467632  -0.205923
    C   C29   0.499577  0.501191  0.433430  0.667291
    N   N3    0.472952  0.610153  0.466920  -0.256018
    N   N4    0.472639  0.608121  0.532573  -0.206577
    C   C30   0.500342  0.498454  0.566776  0.668075
    C   C31   0.516303  0.640419  0.336334  -0.186595
    H   H2    0.522795  0.738294  0.369361  0.140569
    C   C32   0.521166  0.650356  0.269182  0.280563
    C   C33   0.517517  0.527157  0.226816  -0.354834
    C   C34   0.500560  0.391441  0.249865  0.523313
    C   C35   0.490915  0.382151  0.317019  -0.266849
    C   C36   0.502655  0.506971  0.360981  -0.117534
    Br  Br1   0.225095  0.070615  0.808680  -0.026942
    Br  Br2   0.548460  0.552389  0.140158  0.133473
    Br  Br3   0.449655  0.200675  0.346615  0.109839
    Br  Br4   0.034104  0.042412  0.843764  0.053033
    Br  Br5   0.162943  0.976117  0.117718  0.147326
    Br  Br6   0.837124  0.023606  0.882402  0.146830
    Br  Br7   0.775077  0.929268  0.191480  -0.026913
    Br  Br8   0.966043  0.957511  0.156362  0.052781
    Br  Br9   0.451603  0.447293  0.860089  0.133538
    Br  Br10  0.550324  0.798963  0.653575  0.110195
