# Generated by REPEAT Assigner based on pymatgen
data_DB0-m2_o25_o25_f0_nbo.sym.72
_audit_creation_date              2022-05-24
_audit_creation_method            REPEAT_Assigner
_cell_length_a                    44.985053
_cell_length_b                    31.780213
_cell_length_c                    31.785534
_cell_angle_alpha                 90.000000
_cell_angle_beta                  135.042689
_cell_angle_gamma                 90.000000
_cell_volume                      32108.183168
_symmetry_space_group_name_H-M    P1
_symmetry_Int_Tables_number       1
loop_
    _symmetry_equiv_pos_site_id
    _symmetry_equiv_pos_as_xyz
    1  x,y,z
loop_
    _atom_site_type_symbol
    _atom_site_label
    _atom_site_fract_x
    _atom_site_fract_y
    _atom_site_fract_z
    _atom_type_partial_charge
    O   O1    0.561956  0.997843  0.598728  -0.592474
    O   O2    0.061956  0.497843  0.598728  -0.592353
    O   O3    0.562300  0.001282  0.526439  -0.631104
    O   O4    0.062300  0.501282  0.526439  -0.631029
    C   C1    0.581685  0.999569  0.582266  0.845045
    C   C2    0.081685  0.499569  0.582266  0.844880
    O   O5    0.502343  0.060704  0.538415  -0.645957
    O   O6    0.502385  0.938364  0.538996  -0.628637
    O   O7    0.002343  0.560704  0.538415  -0.645844
    O   O8    0.002385  0.438364  0.538996  -0.628541
    O   O9    0.502767  0.060789  0.466303  -0.628979
    O   O10   0.502647  0.938457  0.466724  -0.650160
    O   O11   0.002767  0.560789  0.466303  -0.628898
    O   O12   0.002647  0.438457  0.466724  -0.650125
    C   C3    0.500622  0.080286  0.500423  0.834024
    C   C4    0.500573  0.918871  0.500882  0.839360
    C   C5    0.000622  0.580286  0.500423  0.833947
    C   C6    0.000573  0.418871  0.500882  0.839413
    Cu  Cu1   0.500767  0.999555  0.542772  1.032023
    Cu  Cu2   0.000767  0.499555  0.542772  1.031838
    Cu  Cu3   0.501163  0.999603  0.459300  1.033452
    Cu  Cu4   0.001163  0.499603  0.459300  1.033301
    O   O13   0.439645  0.997802  0.475556  -0.645346
    O   O14   0.939645  0.497802  0.475556  -0.645217
    O   O15   0.439984  0.001396  0.403432  -0.610239
    O   O16   0.939984  0.501396  0.403432  -0.610146
    C   C7    0.420233  0.999617  0.419795  0.748853
    C   C8    0.920233  0.499617  0.419795  0.748441
    C   C9    0.534505  0.263565  0.553144  -0.169364
    C   C10   0.534435  0.735556  0.553233  -0.161123
    C   C11   0.034505  0.763565  0.553144  -0.169378
    C   C12   0.034435  0.235556  0.553233  -0.161130
    C   C13   0.534582  0.235904  0.514167  -0.169683
    C   C14   0.534511  0.763279  0.514299  -0.163770
    C   C15   0.034582  0.735904  0.514167  -0.169647
    C   C16   0.034511  0.263279  0.514299  -0.163763
    H   H1    0.562802  0.223355  0.526209  0.074592
    H   H2    0.562731  0.775854  0.526362  0.073906
    H   H3    0.062802  0.723355  0.526209  0.074589
    H   H4    0.062731  0.275854  0.526362  0.073906
    H   H5    0.562648  0.276383  0.597471  0.071803
    H   H6    0.562579  0.722717  0.597542  0.070762
    H   H7    0.062648  0.776383  0.597471  0.071809
    H   H8    0.062579  0.222717  0.597542  0.070763
    H   H9    0.500335  0.275376  0.427496  0.084809
    H   H10   0.500269  0.723888  0.427570  0.084312
    H   H11   0.000335  0.775376  0.427496  0.084821
    H   H12   0.000269  0.223888  0.427570  0.084315
    C   C17   0.500857  0.125409  0.500653  -0.112336
    C   C18   0.500793  0.873746  0.500995  -0.117580
    C   C19   0.000857  0.625409  0.500653  -0.112262
    C   C20   0.000793  0.373746  0.500995  -0.117722
    C   C21   0.500032  0.373744  0.498617  -0.012741
    C   C22   0.499983  0.625400  0.498586  -0.119198
    C   C23   0.000032  0.873744  0.498617  -0.013002
    C   C24   0.999983  0.125400  0.498586  -0.119084
    C   C25   0.500687  0.236135  0.539128  -0.158278
    C   C26   0.500614  0.762953  0.539257  -0.148586
    C   C27   0.000687  0.736135  0.539128  -0.158254
    C   C28   0.000614  0.262953  0.539257  -0.148572
    C   C29   0.500761  0.209300  0.500146  0.716707
    C   C30   0.500688  0.789850  0.500317  0.693303
    C   C31   0.000761  0.709300  0.500146  0.716741
    C   C32   0.000688  0.289850  0.500317  0.693233
    C   C33   0.466554  0.263245  0.485195  -0.209913
    C   C34   0.466485  0.735871  0.485283  -0.198360
    C   C35   0.966554  0.763245  0.485195  -0.209916
    C   C36   0.966485  0.235871  0.485283  -0.198378
    C   C37   0.500373  0.289852  0.499215  0.783609
    C   C38   0.500306  0.709296  0.499265  0.722968
    C   C39   0.000373  0.789852  0.499215  0.783454
    C   C40   0.000306  0.209296  0.499265  0.723033
    C   C41   0.466630  0.235589  0.446218  -0.160075
    C   C42   0.466560  0.763589  0.446350  -0.155813
    C   C43   0.966630  0.735589  0.446218  -0.160059
    C   C44   0.966560  0.263589  0.446350  -0.155799
    C   C45   0.500447  0.263020  0.460231  -0.203418
    C   C46   0.500379  0.736191  0.460323  -0.192345
    C   C47   0.000447  0.763020  0.460231  -0.203444
    C   C48   0.000379  0.236191  0.460323  -0.192364
    C   C49   0.500887  0.163305  0.500546  -0.396258
    C   C50   0.500816  0.835848  0.500802  -0.384736
    C   C51   0.000887  0.663305  0.500546  -0.396345
    C   C52   0.000816  0.335848  0.500802  -0.384618
    C   C53   0.500159  0.335847  0.498782  -0.471195
    C   C54   0.500099  0.663298  0.498780  -0.388398
    C   C55   0.000159  0.835847  0.498782  -0.470939
    C   C56   0.000099  0.163298  0.498780  -0.388501
    H   H13   0.438486  0.222771  0.401891  0.078136
    H   H14   0.438414  0.776429  0.402041  0.077504
    H   H15   0.938486  0.722771  0.401891  0.078138
    H   H16   0.938414  0.276429  0.402041  0.077501
    H   H17   0.438334  0.275793  0.473153  0.081796
    H   H18   0.438265  0.723297  0.473221  0.079907
    H   H19   0.938334  0.775793  0.473153  0.081802
    H   H20   0.938265  0.223297  0.473221  0.079910
    H   H21   0.500798  0.223779  0.571862  0.067462
    H   H22   0.500724  0.775256  0.572009  0.065644
    H   H23   0.000798  0.723779  0.571862  0.067462
    H   H24   0.000724  0.275256  0.572009  0.065641
    C   C57   0.765021  0.966226  0.785323  -0.208389
    C   C58   0.764799  0.034188  0.784485  -0.216902
    C   C59   0.265021  0.466226  0.785323  -0.208420
    C   C60   0.264799  0.534188  0.784485  -0.216900
    C   C61   0.737204  0.965783  0.718525  -0.130691
    C   C62   0.736983  0.033740  0.717687  -0.123487
    C   C63   0.237204  0.465783  0.718525  -0.130615
    C   C64   0.236983  0.533740  0.717687  -0.123486
    H   H25   0.724562  0.937408  0.689984  0.067812
    H   H26   0.724155  0.061738  0.688448  0.066093
    H   H27   0.224562  0.437408  0.689984  0.067779
    H   H28   0.224155  0.561738  0.688448  0.066096
    H   H29   0.777859  0.938238  0.814582  0.077245
    H   H30   0.777451  0.062556  0.813042  0.079517
    H   H31   0.277859  0.438238  0.814582  0.077257
    H   H32   0.277451  0.562556  0.813042  0.079518
    H   H33   0.776484  0.999415  0.704977  0.101554
    H   H34   0.276484  0.499415  0.704977  0.101565
    C   C65   0.626815  0.999635  0.627674  -0.144152
    C   C66   0.126815  0.499635  0.627674  -0.144094
    C   C67   0.875148  0.000319  0.873893  -0.031535
    C   C68   0.375148  0.500319  0.873893  -0.031545
    C   C69   0.737704  0.000298  0.777570  -0.145625
    C   C70   0.237704  0.500298  0.777570  -0.145617
    C   C71   0.710717  0.999855  0.711582  0.711486
    C   C72   0.210717  0.499855  0.711582  0.711486
    C   C73   0.791270  0.000114  0.791394  0.811298
    C   C74   0.291270  0.500114  0.791394  0.811289
    C   C75   0.764268  0.999670  0.725416  -0.256047
    C   C76   0.264268  0.499670  0.725416  -0.256089
    C   C77   0.664714  0.999722  0.665687  -0.391223
    C   C78   0.164714  0.499722  0.665687  -0.391256
    C   C79   0.837261  0.000244  0.836707  -0.475955
    C   C80   0.337261  0.500244  0.836707  -0.475951
    H   H35   0.725521  0.000551  0.798057  0.067733
    H   H36   0.225521  0.500551  0.798057  0.067731
    C   C81   0.237328  0.034138  0.255816  -0.167590
    C   C82   0.237109  0.966168  0.255594  -0.168562
    C   C83   0.737328  0.534138  0.255816  -0.167611
    C   C84   0.737109  0.466168  0.255594  -0.168591
    C   C85   0.264784  0.034048  0.244117  -0.199363
    C   C86   0.264564  0.966079  0.243894  -0.196624
    C   C87   0.764784  0.534048  0.244117  -0.199418
    C   C88   0.764564  0.466079  0.243894  -0.196677
    H   H37   0.277467  0.062191  0.240563  0.086939
    H   H38   0.277062  0.937854  0.240155  0.086375
    H   H39   0.777467  0.562191  0.240563  0.086953
    H   H40   0.777062  0.437854  0.240155  0.086386
    H   H41   0.224830  0.062363  0.259554  0.067191
    H   H42   0.224427  0.938025  0.259147  0.067198
    H   H43   0.724830  0.562363  0.259554  0.067196
    H   H44   0.724427  0.438025  0.259147  0.067207
    H   H45   0.224780  0.000196  0.151841  0.098538
    H   H46   0.724780  0.500196  0.151841  0.098552
    C   C89   0.375110  0.999717  0.374423  -0.025750
    C   C90   0.875110  0.499717  0.374423  -0.025262
    C   C91   0.126784  0.000416  0.125151  -0.030319
    C   C92   0.626784  0.500416  0.125151  -0.030311
    C   C93   0.264591  0.000063  0.302772  -0.210866
    C   C94   0.764591  0.500063  0.302772  -0.210910
    C   C95   0.291221  0.999976  0.290244  0.812832
    C   C96   0.791221  0.499976  0.290244  0.813146
    C   C97   0.210672  0.000240  0.209466  0.834045
    C   C98   0.710672  0.500240  0.209466  0.834115
    C   C99   0.237304  0.000153  0.196942  -0.237086
    C   C100  0.737304  0.500153  0.196942  -0.237132
    C   C101  0.337216  0.999826  0.336379  -0.491879
    C   C102  0.837216  0.499826  0.336379  -0.492323
    C   C103  0.164678  0.000360  0.163284  -0.495519
    C   C104  0.664678  0.500360  0.163284  -0.495559
    H   H47   0.277115  0.000020  0.347872  0.090226
    H   H48   0.777115  0.500020  0.347872  0.090233
    O   O17   0.537011  0.501176  0.596104  -0.616981
    O   O18   0.037011  0.001176  0.596104  -0.616972
    O   O19   0.464547  0.501160  0.524496  -0.641962
    O   O20   0.964547  0.001160  0.524496  -0.641975
    C   C105  0.501035  0.499267  0.580098  0.771511
    C   C106  0.001035  0.999267  0.580098  0.771514
    O   O21   0.536179  0.438426  0.532570  -0.612466
    O   O22   0.536237  0.560759  0.532595  -0.595772
    O   O23   0.036179  0.938426  0.532570  -0.612457
    O   O24   0.036237  0.060759  0.532595  -0.595782
    O   O25   0.463721  0.438408  0.460967  -0.608839
    O   O26   0.463614  0.560747  0.460833  -0.592929
    O   O27   0.963721  0.938408  0.460967  -0.608856
    O   O28   0.963614  0.060747  0.460833  -0.592956
    C   C107  0.499985  0.418867  0.498742  0.699612
    C   C108  0.499952  0.580274  0.498694  0.786489
    C   C109  0.999985  0.918867  0.498742  0.699760
    C   C110  0.999952  0.080274  0.498694  0.786417
    Cu  Cu5   0.541902  0.499589  0.539778  1.045956
    Cu  Cu6   0.041902  0.999589  0.539778  1.045968
    Cu  Cu7   0.458012  0.499572  0.456885  1.029851
    Cu  Cu8   0.958012  0.999572  0.456885  1.029885
    O   O29   0.535448  0.501143  0.472230  -0.639218
    O   O30   0.035448  0.001143  0.472230  -0.639221
    O   O31   0.462825  0.501130  0.400474  -0.597658
    O   O32   0.962825  0.001130  0.400474  -0.597674
    C   C111  0.498870  0.499203  0.416569  0.851370
    C   C112  0.998870  0.999203  0.416569  0.851362
    O   O33   0.002563  0.964033  0.061895  -0.634026
    O   O34   0.002536  0.036694  0.061901  -0.635370
    O   O35   0.502563  0.464033  0.061895  -0.634010
    O   O36   0.502536  0.536694  0.061901  -0.635370
    C   C113  0.000570  0.000354  0.079401  0.850545
    C   C114  0.500570  0.500354  0.079401  0.850552
    O   O37   0.939841  0.964121  0.939514  -0.634708
    O   O38   0.939812  0.036609  0.939518  -0.634070
    O   O39   0.439841  0.464121  0.939514  -0.634692
    O   O40   0.439812  0.536609  0.939518  -0.634073
    C   C115  0.920262  0.000356  0.918140  0.747798
    C   C116  0.420262  0.500356  0.918140  0.747792
    Cu  Cu9   0.000996  0.958424  0.999164  1.060295
    Cu  Cu10  0.000963  0.042356  0.999170  1.062541
    Cu  Cu11  0.500996  0.458424  0.999164  1.060258
    Cu  Cu12  0.500963  0.542356  0.999170  1.062576
    O   O41   0.002559  0.964179  0.939581  -0.654392
    O   O42   0.002530  0.036659  0.939586  -0.656554
    O   O43   0.502559  0.464179  0.939581  -0.654383
    O   O44   0.502530  0.536659  0.939586  -0.656553
    O   O45   0.062156  0.964086  0.061988  -0.575370
    O   O46   0.062129  0.036739  0.061994  -0.575055
    O   O47   0.562156  0.464086  0.061988  -0.575369
    O   O48   0.562129  0.536739  0.061994  -0.575065
    C   C117  0.000648  0.000428  0.918140  0.832782
    C   C118  0.500648  0.500428  0.918140  0.832764
    C   C119  0.081664  0.000419  0.079618  0.703333
    C   C120  0.581664  0.500419  0.079618  0.703329
    C   C121  0.021397  0.034295  0.783362  -0.256755
    C   C122  0.021393  0.966322  0.783529  -0.251643
    C   C123  0.521397  0.534295  0.783362  -0.256769
    C   C124  0.521393  0.466322  0.783529  -0.251639
    C   C125  0.482221  0.534224  0.716643  -0.145187
    C   C126  0.482221  0.466258  0.716821  -0.149990
    C   C127  0.982221  0.034224  0.716643  -0.145185
    C   C128  0.982221  0.966258  0.716821  -0.150021
    H   H49   0.465985  0.562374  0.687690  0.085225
    H   H50   0.465981  0.438046  0.688009  0.082949
    H   H51   0.965985  0.062374  0.687690  0.085223
    H   H52   0.965981  0.938046  0.688009  0.082954
    H   H53   0.037635  0.062508  0.812173  0.107400
    H   H54   0.037627  0.938170  0.812478  0.105979
    H   H55   0.537635  0.562508  0.812173  0.107407
    H   H56   0.537627  0.438170  0.812478  0.105980
    H   H57   0.929977  0.000342  0.704255  0.065869
    H   H58   0.429977  0.500342  0.704255  0.065873
    C   C129  0.501573  0.499703  0.625735  -0.112387
    C   C130  0.001573  0.999703  0.625735  -0.112389
    C   C131  0.001145  0.000446  0.873537  -0.133199
    C   C132  0.501145  0.500446  0.873537  -0.133197
    C   C133  0.541080  0.500236  0.775804  -0.048811
    C   C134  0.041080  0.000236  0.775804  -0.048811
    C   C135  0.501900  0.500171  0.709918  0.654952
    C   C136  0.001900  0.000171  0.709918  0.654955
    C   C137  0.001713  0.000375  0.790251  0.744017
    C   C138  0.501713  0.500375  0.790251  0.744013
    C   C139  0.962542  0.000311  0.724363  -0.173894
    C   C140  0.462542  0.500311  0.724363  -0.173905
    C   C141  0.501826  0.499967  0.663869  -0.369278
    C   C142  0.001826  0.999967  0.663869  -0.369270
    C   C143  0.001466  0.000436  0.835977  -0.382018
    C   C144  0.501466  0.500436  0.835977  -0.382022
    H   H59   0.573645  0.500204  0.795911  0.032019
    H   H60   0.073645  0.000204  0.795911  0.032020
    C   C145  0.016968  0.966857  0.251241  -0.159287
    C   C146  0.014607  0.034711  0.249054  -0.167697
    C   C147  0.516968  0.466857  0.251241  -0.159286
    C   C148  0.514607  0.534711  0.249054  -0.167695
    C   C149  0.478135  0.465369  0.240460  -0.160592
    C   C150  0.475767  0.533341  0.238279  -0.135700
    C   C151  0.978135  0.965369  0.240460  -0.160623
    C   C152  0.975767  0.033341  0.238279  -0.135732
    H   H61   0.462825  0.436570  0.237511  0.073984
    H   H62   0.458482  0.560930  0.233504  0.066440
    H   H63   0.962825  0.936570  0.237511  0.073991
    H   H64   0.958482  0.060930  0.233504  0.066446
    H   H65   0.034114  0.939195  0.255850  0.074158
    H   H66   0.029786  0.063566  0.251845  0.074573
    H   H67   0.534114  0.439195  0.255850  0.074158
    H   H68   0.529786  0.563566  0.251845  0.074571
    C   C153  0.498231  0.499584  0.370823  -0.192440
    C   C154  0.998231  0.999584  0.370823  -0.192423
    C   C155  0.999756  0.000330  0.123659  -0.146420
    C   C156  0.499756  0.500330  0.123659  -0.146458
    C   C157  0.535723  0.501404  0.297291  -0.183852
    C   C158  0.035723  0.001404  0.297291  -0.183869
    C   C159  0.496924  0.499979  0.285662  0.672808
    C   C160  0.996924  0.999979  0.285662  0.672867
    C   C161  0.995867  0.000160  0.203540  0.672878
    C   C162  0.495867  0.500160  0.203540  0.672852
    C   C163  0.957405  0.998749  0.192673  -0.138131
    C   C164  0.457405  0.498749  0.192673  -0.138142
    C   C165  0.497648  0.499808  0.332358  -0.324019
    C   C166  0.997648  0.999808  0.332358  -0.324047
    C   C167  0.998251  0.000276  0.160004  -0.349776
    C   C168  0.498251  0.500276  0.160004  -0.349749
    H   H69   0.568465  0.502511  0.342062  0.095090
    H   H70   0.068465  0.002511  0.342062  0.095094
    C   C169  0.911406  0.997186  0.136622  0.161186
    C   C170  0.883250  0.995734  0.141491  -0.215630
    C   C171  0.840570  0.994260  0.091248  -0.060135
    C   C172  0.825694  0.994250  0.035667  -0.020183
    Cl  Cl1   0.771492  0.992384  0.971764  -0.093269
    C   C173  0.853545  0.995734  0.030421  -0.059736
    C   C174  0.896248  0.997205  0.080623  -0.144955
    H   H71   0.894606  0.995740  0.184918  0.113646
    H   H72   0.818771  0.993116  0.095488  0.127566
    H   H73   0.841900  0.995758  0.986804  0.124629
    H   H74   0.917058  0.998393  0.074859  0.090531
    C   C175  0.411406  0.497186  0.136622  0.161189
    C   C176  0.383250  0.495734  0.141491  -0.215639
    C   C177  0.340570  0.494260  0.091248  -0.060121
    C   C178  0.325694  0.494250  0.035667  -0.020185
    Cl  Cl2   0.271492  0.492384  0.971764  -0.093269
    C   C179  0.353545  0.495734  0.030421  -0.059735
    C   C180  0.396248  0.497205  0.080623  -0.144967
    H   H75   0.394606  0.495740  0.184918  0.113645
    H   H76   0.318771  0.493116  0.095488  0.127561
    H   H77   0.341900  0.495758  0.986804  0.124630
    H   H78   0.417058  0.498393  0.074859  0.090537
