# generated using pymatgen
data_ZnH18C31NO6
_symmetry_space_group_name_H-M   'P 1'
_cell_length_a   16.13722800
_cell_length_b   14.98571600
_cell_length_c   15.95076600
_cell_angle_alpha   90.00000000
_cell_angle_beta   89.98895600
_cell_angle_gamma   90.00000000
_symmetry_Int_Tables_number   1
_chemical_formula_structural   ZnH18C31NO6
_chemical_formula_sum   'Zn2 H36 C62 N2 O12'
_cell_volume   3857.34042610
_cell_formula_units_Z   2
loop_
 _symmetry_equiv_pos_site_id
 _symmetry_equiv_pos_as_xyz
  1  'x, y, z'
loop_
 _atom_site_type_symbol
 _atom_site_label
 _atom_site_symmetry_multiplicity
 _atom_site_fract_x
 _atom_site_fract_y
 _atom_site_fract_z
 _atom_site_occupancy
  Zn  Zn1  1  0.50085400  0.59828000  0.50415000  1
  Zn  Zn2  1  0.50068000  0.39496800  0.50327000  1
  H  H1  1  0.38611200  0.56032100  0.93716600  1
  H  H2  1  0.41118500  0.39604000  0.93406900  1
  H  H3  1  0.39304600  0.56704300  0.07693600  1
  H  H4  1  0.40563400  0.41409200  0.07294300  1
  H  H5  1  0.50031200  0.35471100  0.08173800  1
  H  H6  1  0.47729700  0.64286000  0.07027500  1
  H  H7  1  0.51595400  0.35452200  0.93815800  1
  H  H8  1  0.47236600  0.63669900  0.92987300  1
  H  H9  1  0.61230400  0.57998200  0.92951800  1
  H  H10  1  0.63476100  0.46347600  0.92138500  1
  H  H11  1  0.07759400  0.63823100  0.50067500  1
  H  H12  1  0.07822700  0.35496700  0.50128200  1
  H  H13  1  0.40477000  0.07818000  0.41164500  1
  H  H14  1  0.40488300  0.91401700  0.41237400  1
  H  H15  1  0.59683700  0.91507400  0.59570500  1
  H  H16  1  0.59672400  0.07923700  0.59497400  1
  H  H17  1  0.71531200  0.75480700  0.10598500  1
  H  H18  1  0.84733600  0.81152600  0.05712900  1
  H  H19  1  0.93629900  0.72043700  0.96608300  1
  H  H20  1  0.89149000  0.57022500  0.92451000  1
  H  H21  1  0.76119300  0.51078900  0.97224700  1
  H  H22  1  0.79756100  0.34263700  0.06046900  1
  H  H23  1  0.91472800  0.34103400  0.15678000  1
  H  H24  1  0.91097600  0.42987400  0.28634500  1
  H  H25  1  0.78757500  0.51903700  0.31965700  1
  H  H26  1  0.66937800  0.51936000  0.22665500  1
  H  H27  1  0.88358100  0.83731600  0.52098000  1
  H  H28  1  0.91370800  0.95686600  0.42149600  1
  H  H29  1  0.98007600  0.92305500  0.28651500  1
  H  H30  1  0.01511700  0.76810600  0.25058900  1
  H  H31  1  0.98434700  0.64739500  0.34809500  1
  H  H32  1  0.88504100  0.15548100  0.47808300  1
  H  H33  1  0.91990200  0.03266400  0.57230600  1
  H  H34  1  0.99095500  0.06218700  0.70569300  1
  H  H35  1  0.02585900  0.21611400  0.74542500  1
  H  H36  1  0.99028700  0.34002300  0.65329100  1
  C  C1  1  0.33884900  0.49678400  0.50255400  1
  C  C2  1  0.50201200  0.49739500  0.33991900  1
  C  C3  1  0.66265900  0.49644800  0.50484000  1
  C  C4  1  0.49972900  0.49588800  0.66758500  1
  C  C5  1  0.45625200  0.57584300  0.05096100  1
  C  C6  1  0.47146200  0.41435200  0.05305300  1
  C  C7  1  0.47435500  0.40925700  0.95842600  1
  C  C8  1  0.45119800  0.57223200  0.95644100  1
  C  C9  1  0.50090700  0.49558000  0.75751700  1
  C  C10  1  0.51199400  0.50063900  0.08285500  1
  C  C11  1  0.50555400  0.49730700  0.92463700  1
  C  C12  1  0.59421400  0.51302100  0.95250900  1
  C  C13  1  0.60233300  0.50978100  0.04837600  1
  C  C14  1  0.50265800  0.49594600  0.83302200  1
  C  C15  1  0.50894300  0.49925700  0.17461800  1
  C  C16  1  0.50509600  0.49809000  0.25006300  1
  C  C17  1  0.95806600  0.57638000  0.50079900  1
  C  C18  1  0.95834600  0.41615200  0.50321200  1
  C  C19  1  0.91525600  0.49620900  0.50267900  1
  C  C20  1  0.04396000  0.41692900  0.50223800  1
  C  C21  1  0.04365400  0.57605000  0.50042800  1
  C  C22  1  0.08638300  0.49659000  0.50128200  1
  C  C23  1  0.82619800  0.49620700  0.50393900  1
  C  C24  1  0.17528200  0.49677000  0.50148600  1
  C  C25  1  0.24994400  0.49683600  0.50190500  1
  C  C26  1  0.75152200  0.49631100  0.50464400  1
  C  C27  1  0.44702500  0.95033300  0.45249400  1
  C  C28  1  0.44697000  0.04233200  0.45207400  1
  C  C29  1  0.50085200  0.90464700  0.50409900  1
  C  C30  1  0.50075400  0.08860600  0.50325200  1
  C  C31  1  0.55463800  0.95092100  0.55527500  1
  C  C32  1  0.55458300  0.04292000  0.55485400  1
  C  C33  1  0.50094100  0.80892700  0.50445200  1
  C  C34  1  0.50065100  0.18432300  0.50291300  1
  C  C35  1  0.64482000  0.59603400  0.07594200  1
  C  C36  1  0.72615400  0.62795600  0.04316200  1
  C  C37  1  0.75273100  0.71252900  0.06628000  1
  C  C38  1  0.82767900  0.74544400  0.03863100  1
  C  C39  1  0.87751200  0.69456200  0.98763700  1
  C  C40  1  0.85228400  0.61052400  0.96433200  1
  C  C41  1  0.77737100  0.57722500  0.99169100  1
  C  C42  1  0.65459000  0.42929000  0.07441700  1
  C  C43  1  0.72473800  0.43293800  0.13452900  1
  C  C44  1  0.79404900  0.38154100  0.11741000  1
  C  C45  1  0.86070200  0.38070100  0.17147500  1
  C  C46  1  0.85871000  0.43042000  0.24394700  1
  C  C47  1  0.78960400  0.48036500  0.26255000  1
  C  C48  1  0.72271500  0.48104000  0.20881100  1
  C  C49  1  0.91355700  0.66202400  0.50243100  1
  C  C50  1  0.93337600  0.73382600  0.44267800  1
  C  C51  1  0.91256600  0.82103000  0.46184100  1
  C  C52  1  0.92965000  0.88878800  0.40596800  1
  C  C53  1  0.96688800  0.86989400  0.33033200  1
  C  C54  1  0.98671400  0.78307700  0.31033300  1
  C  C55  1  0.96987800  0.71512400  0.36606900  1
  C  C56  1  0.91409400  0.33029600  0.50121900  1
  C  C57  1  0.93673600  0.25658800  0.55784200  1
  C  C58  1  0.91602100  0.16990400  0.53659900  1
  C  C59  1  0.93577700  0.10030600  0.58948600  1
  C  C60  1  0.97563700  0.11679700  0.66422700  1
  C  C61  1  0.99537100  0.20304700  0.68635500  1
  C  C62  1  0.97580900  0.27283800  0.63362700  1
  N  N1  1  0.50059200  0.26151600  0.50274900  1
  N  N2  1  0.50098400  0.73173400  0.50462900  1
  O  O1  1  0.37737400  0.57386400  0.50320900  1
  O  O2  1  0.37724500  0.41963200  0.50251600  1
  O  O3  1  0.50179500  0.57430000  0.37916700  1
  O  O4  1  0.50166700  0.42004200  0.37845400  1
  O  O5  1  0.62429600  0.57364100  0.50493500  1
  O  O6  1  0.62415800  0.41935300  0.50424000  1
  O  O7  1  0.50004000  0.57319800  0.62901500  1
  O  O8  1  0.49991200  0.41895400  0.62833700  1
  O  O9  1  0.61178100  0.64189000  0.12947800  1
  O  O10  1  0.64531300  0.35925500  0.03662100  1
  O  O11  1  0.86168800  0.67534700  0.55664100  1
  O  O12  1  0.86011600  0.31833800  0.44888500  1
