# generated using pymatgen
data_ZnH20C30(NO2)2
_symmetry_space_group_name_H-M   'P 1'
_cell_length_a   13.07326800
_cell_length_b   19.48647000
_cell_length_c   18.26626600
_cell_angle_alpha   89.98917400
_cell_angle_beta   95.43461600
_cell_angle_gamma   90.01562400
_symmetry_Int_Tables_number   1
_chemical_formula_structural   ZnH20C30(NO2)2
_chemical_formula_sum   'Zn2 H40 C60 N4 O8'
_cell_volume   4632.44750534
_cell_formula_units_Z   2
loop_
 _symmetry_equiv_pos_site_id
 _symmetry_equiv_pos_as_xyz
  1  'x, y, z'
loop_
 _atom_site_type_symbol
 _atom_site_label
 _atom_site_symmetry_multiplicity
 _atom_site_fract_x
 _atom_site_fract_y
 _atom_site_fract_z
 _atom_site_occupancy
  Zn  Zn1  1  0.51422100  0.50126900  0.58413200  1
  Zn  Zn2  1  0.51371000  0.49844600  0.41767600  1
  H  H1  1  0.84041800  0.49807900  0.40542800  1
  H  H2  1  0.18751300  0.50167700  0.59638100  1
  H  H3  1  0.84258600  0.50216800  0.63989100  1
  H  H4  1  0.18534400  0.49749800  0.36191800  1
  H  H5  1  0.99855900  0.49718700  0.35052400  1
  H  H6  1  0.02937400  0.50251600  0.65128500  1
  H  H7  1  0.42170900  0.84467700  0.39756000  1
  H  H8  1  0.42545500  0.15488000  0.59367300  1
  H  H9  1  0.61076200  0.84069800  0.60206400  1
  H  H10  1  0.60727800  0.15900800  0.41080200  1
  H  H11  1  0.60398500  0.71677400  0.60164700  1
  H  H12  1  0.60056200  0.28289600  0.41050500  1
  H  H13  1  0.51762200  0.93709500  0.61764500  1
  H  H14  1  0.51334400  0.06253800  0.38425700  1
  H  H15  1  0.52390500  0.06026600  0.61931200  1
  H  H16  1  0.51947000  0.93935100  0.38331400  1
  H  H17  1  0.63521500  0.57387900  0.70882200  1
  H  H18  1  0.39314100  0.42558100  0.29298500  1
  H  H19  1  0.63794900  0.57382900  0.84255700  1
  H  H20  1  0.39039100  0.42566300  0.15926700  1
  H  H21  1  0.38964400  0.42991500  0.82460800  1
  H  H22  1  0.63796900  0.57014900  0.17721400  1
  H  H23  1  0.39283300  0.43136800  0.69149100  1
  H  H24  1  0.63459800  0.56879800  0.31030800  1
  H  H25  1  0.48863000  0.39224200  0.93153700  1
  H  H26  1  0.53933000  0.60751800  0.07023500  1
  H  H27  1  0.48852300  0.39067100  0.06395000  1
  H  H28  1  0.53954700  0.60906400  0.93783000  1
  H  H29  1  0.33131500  0.72246900  0.38011500  1
  H  H30  1  0.29410300  0.73691300  0.25587200  1
  H  H31  1  0.35606700  0.75782000  0.13570300  1
  H  H32  1  0.54130000  0.75712600  0.12197000  1
  H  H33  1  0.66493000  0.73472900  0.22920700  1
  H  H34  1  0.60511500  0.71311700  0.34946500  1
  H  H35  1  0.33568800  0.27615000  0.60142600  1
  H  H36  1  0.30498800  0.26281200  0.72211200  1
  H  H37  1  0.37363300  0.24361000  0.84965000  1
  H  H38  1  0.56006800  0.24575200  0.88367100  1
  H  H39  1  0.67818200  0.26796900  0.78939800  1
  H  H40  1  0.61169300  0.28803000  0.66203300  1
  C  C1  1  0.51358500  0.36541700  0.50308100  1
  C  C2  1  0.51352100  0.63427500  0.49867800  1
  C  C3  1  0.31270500  0.49980000  0.48734600  1
  C  C4  1  0.71523100  0.49991900  0.51446200  1
  C  C5  1  0.82798100  0.50007300  0.52171900  1
  C  C6  1  0.19995300  0.49964900  0.48009000  1
  C  C7  1  0.03993200  0.49818300  0.40463100  1
  C  C8  1  0.98800100  0.50152800  0.59717800  1
  C  C9  1  0.14585600  0.49836500  0.41126600  1
  C  C10  1  0.88207700  0.50131700  0.59054300  1
  C  C11  1  0.14679200  0.50071200  0.54209000  1
  C  C12  1  0.88114100  0.49904400  0.45971800  1
  C  C13  1  0.04071000  0.50049600  0.53524400  1
  C  C14  1  0.98722400  0.49924400  0.46656400  1
  C  C15  1  0.46569300  0.74636700  0.43943800  1
  C  C16  1  0.46787100  0.25320000  0.55685300  1
  C  C17  1  0.46542900  0.81724700  0.44138100  1
  C  C18  1  0.46758200  0.18233100  0.55483500  1
  C  C19  1  0.51727900  0.85243700  0.49941400  1
  C  C20  1  0.51738300  0.14718700  0.50272100  1
  C  C21  1  0.56724900  0.81529200  0.55669900  1
  C  C22  1  0.56534500  0.18438100  0.45118800  1
  C  C23  1  0.56426600  0.74458400  0.55629000  1
  C  C24  1  0.56238700  0.25509300  0.45130100  1
  C  C25  1  0.51442700  0.70960000  0.49764900  1
  C  C26  1  0.51454400  0.29005800  0.50423000  1
  C  C27  1  0.51936700  0.96379200  0.56597200  1
  C  C28  1  0.51698800  0.03583400  0.43624100  1
  C  C29  1  0.52034600  0.03454700  0.56677100  1
  C  C30  1  0.51788100  0.96507600  0.43555100  1
  C  C31  1  0.51840600  0.07142000  0.50188200  1
  C  C32  1  0.51832900  0.92820400  0.50035600  1
  C  C33  1  0.58115900  0.54231000  0.73490800  1
  C  C34  1  0.44704900  0.45727100  0.26690200  1
  C  C35  1  0.58195300  0.54262500  0.81048900  1
  C  C36  1  0.44625100  0.45697700  0.19132300  1
  C  C37  1  0.51388300  0.50172500  0.84424000  1
  C  C38  1  0.51413600  0.49802300  0.15756600  1
  C  C39  1  0.44563600  0.46155100  0.80066100  1
  C  C40  1  0.58214000  0.53836800  0.20114900  1
  C  C41  1  0.44665200  0.46275000  0.72529300  1
  C  C42  1  0.58106900  0.53719600  0.27651500  1
  C  C43  1  0.49840300  0.44006900  0.96130500  1
  C  C44  1  0.52960500  0.55968100  0.04048400  1
  C  C45  1  0.49833200  0.43916200  0.03678500  1
  C  C46  1  0.52971600  0.56058100  0.96500800  1
  C  C47  1  0.51395600  0.49895800  0.07701500  1
  C  C48  1  0.51407800  0.50078800  0.92478300  1
  C  C49  1  0.44503900  0.72508500  0.31164100  1
  C  C50  1  0.37583800  0.73675500  0.25086800  1
  C  C51  1  0.41047200  0.74849000  0.18298400  1
  C  C52  1  0.51426700  0.74812900  0.17526700  1
  C  C53  1  0.58353700  0.73572200  0.23542900  1
  C  C54  1  0.54928400  0.72405900  0.30346300  1
  C  C55  1  0.45328200  0.27515200  0.68254600  1
  C  C56  1  0.38720800  0.26358000  0.73606100  1
  C  C57  1  0.42560900  0.25282400  0.80807000  1
  C  C58  1  0.53008000  0.25402500  0.82716200  1
  C  C59  1  0.59625300  0.26636200  0.77427000  1
  C  C60  1  0.55822500  0.27712500  0.70216300  1
  N  N1  1  0.51409500  0.50258400  0.69361700  1
  N  N2  1  0.51392000  0.49712700  0.30819700  1
  N  N3  1  0.40859800  0.71224400  0.38087700  1
  N  N4  1  0.41292000  0.28716600  0.60901000  1
  O  O1  1  0.51387500  0.39878600  0.56548700  1
  O  O2  1  0.51334400  0.60093000  0.43626400  1
  O  O3  1  0.51433900  0.39645100  0.43933700  1
  O  O4  1  0.51479600  0.60326200  0.56256000  1
  O  O5  1  0.36114600  0.50129600  0.55360500  1
  O  O6  1  0.66677700  0.49896100  0.44821500  1
  O  O7  1  0.36059300  0.49834800  0.42737000  1
  O  O8  1  0.66733000  0.50082600  0.57442500  1
