# generated using pymatgen
data_ZnH16C22NO4
_symmetry_space_group_name_H-M   'P 1'
_cell_length_a   17.79079900
_cell_length_b   16.59160100
_cell_length_c   14.53525600
_cell_angle_alpha   90.00000000
_cell_angle_beta   90.00171800
_cell_angle_gamma   90.00000000
_symmetry_Int_Tables_number   1
_chemical_formula_structural   ZnH16C22NO4
_chemical_formula_sum   'Zn2 H32 C44 N2 O8'
_cell_volume   4290.48544589
_cell_formula_units_Z   2
loop_
 _symmetry_equiv_pos_site_id
 _symmetry_equiv_pos_as_xyz
  1  'x, y, z'
loop_
 _atom_site_type_symbol
 _atom_site_label
 _atom_site_symmetry_multiplicity
 _atom_site_fract_x
 _atom_site_fract_y
 _atom_site_fract_z
 _atom_site_occupancy
  Zn  Zn1  1  0.50000000  0.59166000  0.50000000  1
  Zn  Zn2  1  0.50000000  0.40834000  0.50000000  1
  H  H1  1  0.73695700  0.62728700  0.49997500  1
  H  H2  1  0.26304300  0.37271300  0.50005800  1
  H  H3  1  0.26304300  0.62728700  0.50002500  1
  H  H4  1  0.73695700  0.37271300  0.49994200  1
  H  H5  1  0.40732900  0.86744100  0.40736500  1
  H  H6  1  0.59267100  0.13255900  0.59263600  1
  H  H7  1  0.59267200  0.86744100  0.59263500  1
  H  H8  1  0.40732900  0.13255900  0.40736400  1
  H  H9  1  0.40849300  0.71926300  0.40841600  1
  H  H10  1  0.59150600  0.28073700  0.59158500  1
  H  H11  1  0.59150700  0.71926300  0.59158400  1
  H  H12  1  0.40849400  0.28073700  0.40841500  1
  H  H13  1  0.81084200  0.72975100  0.43736300  1
  H  H14  1  0.81076300  0.72953600  0.56317700  1
  H  H15  1  0.88484700  0.77853300  0.50044800  1
  H  H16  1  0.92842100  0.65033500  0.56227800  1
  H  H17  1  0.92842600  0.65049000  0.43805400  1
  H  H18  1  0.18923700  0.27045100  0.43688200  1
  H  H19  1  0.18915800  0.27026100  0.56269600  1
  H  H20  1  0.11515300  0.22146700  0.49962300  1
  H  H21  1  0.07157400  0.34952300  0.56198500  1
  H  H22  1  0.07157900  0.34965300  0.43776100  1
  H  H23  1  0.18915800  0.72975100  0.56263700  1
  H  H24  1  0.18923800  0.72953600  0.43682300  1
  H  H25  1  0.11515400  0.77853300  0.49955200  1
  H  H26  1  0.07157900  0.65033500  0.43772200  1
  H  H27  1  0.07157400  0.65049000  0.56194600  1
  H  H28  1  0.81076300  0.27045100  0.56311800  1
  H  H29  1  0.81084200  0.27026100  0.43730400  1
  H  H30  1  0.88484700  0.22146700  0.50037700  1
  H  H31  1  0.92842600  0.34952300  0.43801500  1
  H  H32  1  0.92842100  0.34965300  0.56223900  1
  C  C1  1  0.35271000  0.50000000  0.50020900  1
  C  C2  1  0.64729000  0.50000000  0.49979100  1
  C  C3  1  0.49980600  0.50000000  0.32019100  1
  C  C4  1  0.50019400  0.50000000  0.67980900  1
  C  C5  1  0.49981200  0.50000000  0.22148500  1
  C  C6  1  0.50018800  0.50000000  0.77851500  1
  C  C7  1  0.49986300  0.50000000  0.13858600  1
  C  C8  1  0.50013700  0.50000000  0.86141300  1
  C  C9  1  0.49995600  0.50000000  0.04145000  1
  C  C10  1  0.50004400  0.50000000  0.95855000  1
  C  C11  1  0.84678600  0.57268200  0.50003800  1
  C  C12  1  0.15321400  0.42731800  0.49998000  1
  C  C13  1  0.15321400  0.57268200  0.49996200  1
  C  C14  1  0.84678600  0.42731800  0.50001900  1
  C  C15  1  0.76877100  0.57210700  0.49995900  1
  C  C16  1  0.23122900  0.42789300  0.50005900  1
  C  C17  1  0.23122900  0.57210700  0.50004100  1
  C  C18  1  0.76877100  0.42789300  0.49994100  1
  C  C19  1  0.72990900  0.50000000  0.49986400  1
  C  C20  1  0.27009100  0.50000000  0.50013600  1
  C  C21  1  0.88516800  0.50000000  0.50001800  1
  C  C22  1  0.11483300  0.50000000  0.49998200  1
  C  C23  1  0.96609000  0.50000000  0.50000800  1
  C  C24  1  0.03391000  0.50000000  0.49999200  1
  C  C25  1  0.44828400  0.83535900  0.44831000  1
  C  C26  1  0.55171600  0.16464100  0.55169100  1
  C  C27  1  0.55171600  0.83535900  0.55169000  1
  C  C28  1  0.44828400  0.16464100  0.44830900  1
  C  C29  1  0.44902800  0.75226200  0.44902800  1
  C  C30  1  0.55097200  0.24773800  0.55097300  1
  C  C31  1  0.55097300  0.75226200  0.55097200  1
  C  C32  1  0.44902800  0.24773800  0.44902700  1
  C  C33  1  0.50000000  0.87723500  0.50000000  1
  C  C34  1  0.50000000  0.12276500  0.50000000  1
  C  C35  1  0.50000000  0.96369600  0.50000000  1
  C  C36  1  0.50000000  0.03630400  0.50000000  1
  C  C37  1  0.89223100  0.64934300  0.50016100  1
  C  C38  1  0.84597700  0.72628600  0.50029600  1
  C  C39  1  0.10776900  0.35065700  0.49987800  1
  C  C40  1  0.15402300  0.27371400  0.49976200  1
  C  C41  1  0.10776900  0.64934300  0.49983900  1
  C  C42  1  0.15402300  0.72628600  0.49970400  1
  C  C43  1  0.89223100  0.35065700  0.50012200  1
  C  C44  1  0.84597700  0.27371400  0.50023800  1
  N  N1  1  0.50000000  0.71214400  0.50000000  1
  N  N2  1  0.50000000  0.28785600  0.50000000  1
  O  O1  1  0.38801800  0.56948100  0.50018600  1
  O  O2  1  0.61198200  0.43051900  0.49981400  1
  O  O3  1  0.61198200  0.56948100  0.49981400  1
  O  O4  1  0.38801800  0.43051900  0.50018600  1
  O  O5  1  0.49985200  0.56958600  0.36291900  1
  O  O6  1  0.50014800  0.43041400  0.63708100  1
  O  O7  1  0.50014800  0.56958600  0.63708100  1
  O  O8  1  0.49985200  0.43041400  0.36291900  1
