# Generated by REPEAT Assigner based on pymatgen
data_DB0-m3_o16_o44_f0_fsc.sym.33_sqe
_audit_creation_date              2022-05-24
_audit_creation_method            REPEAT_Assigner
_cell_length_a                    12.101352
_cell_length_b                    8.548460
_cell_length_c                    13.467988
_cell_angle_alpha                 90.000000
_cell_angle_beta                  108.079174
_cell_angle_gamma                 90.000000
_cell_volume                      1324.449401
_symmetry_space_group_name_H-M    P1
_symmetry_Int_Tables_number       1
loop_
    _symmetry_equiv_pos_site_id
    _symmetry_equiv_pos_as_xyz
    1  x,y,z
loop_
    _atom_site_type_symbol
    _atom_site_label
    _atom_site_fract_x
    _atom_site_fract_y
    _atom_site_fract_z
    _atom_type_partial_charge
    C   C1   0.017292  0.863484  0.700662  -0.022778
    C   C2   0.018958  0.142865  0.701867  -0.012053
    C   C3   0.007866  0.862184  0.800141  -0.282029
    C   C4   0.009304  0.143274  0.801189  -0.277326
    H   H1   0.002456  0.752465  0.838268  0.131483
    H   H2   0.004738  0.252656  0.840003  0.122261
    C   C5   0.009158  0.002494  0.852021  0.358093
    C   C6   0.030152  0.003374  0.655752  -0.170235
    C   C7   0.011078  0.002230  0.959119  -0.215733
    C   C8   0.013354  0.002227  0.049221  -0.133081
    C   C9   0.010229  0.861127  0.205702  -0.305904
    C   C10  0.012204  0.142024  0.207087  -0.330659
    H   H3   0.017494  0.751775  0.167901  0.139465
    H   H4   0.020809  0.251706  0.170301  0.147267
    C   C11  0.994062  0.861436  0.302591  0.093478
    C   C12  0.995960  0.140853  0.304009  0.111486
    C   C13  0.978873  0.000961  0.346972  -0.219014
    C   C14  0.012887  0.001862  0.155659  0.302867
    H   H5   0.044695  0.003854  0.581293  0.169890
    H   H6   0.959505  0.000462  0.419356  0.078696
    O   O1   0.110067  0.672223  0.626435  -0.730091
    O   O2   0.111581  0.334549  0.627859  -0.737985
    O   O3   0.910092  0.666982  0.584728  -0.697625
    O   O4   0.911534  0.338823  0.586399  -0.708325
    C   C15  0.012665  0.721579  0.638972  0.836601
    C   C16  0.014330  0.285212  0.640795  0.841283
    O   O5   0.901308  0.669544  0.376670  -0.610061
    O   O6   0.902963  0.331825  0.378667  -0.593582
    O   O7   0.101171  0.665187  0.417859  -0.768282
    O   O8   0.102669  0.338380  0.419214  -0.768576
    C   C17  0.998473  0.719162  0.363764  0.817801
    C   C18  0.000240  0.282726  0.365767  0.803976
    Zn  Zn1  0.876400  0.501603  0.472470  0.956501
    Zn  Zn2  0.135874  0.502838  0.531950  1.111076
    C   C19  0.463316  0.510569  0.708247  -0.217695
    H   H7   0.295789  0.509610  0.727786  0.160303
    H   H8   0.687540  0.512946  0.758603  0.168731
    H   H9   0.507726  0.513382  0.791345  0.137134
    N   N1   0.288143  0.504121  0.569558  0.144785
    C   C20  0.666748  0.499469  0.329312  0.162417
    C   C21  0.548124  0.503045  0.291226  -0.182909
    C   C22  0.482087  0.505983  0.356344  -0.074175
    C   C23  0.535316  0.504619  0.463063  -0.020107
    C   C24  0.657520  0.503266  0.501228  0.211507
    C   C25  0.468755  0.505407  0.532237  0.050636
    C   C26  0.525293  0.508738  0.638229  0.271544
    C   C27  0.644049  0.509688  0.675509  -0.296255
    C   C28  0.709358  0.505253  0.608799  -0.130090
    C   C29  0.346940  0.502556  0.499384  -0.213650
    C   C30  0.344289  0.508344  0.672595  -0.127462
    N   N2   0.723248  0.500483  0.434313  -0.144749
    H   H10  0.295131  0.497998  0.418855  0.190893
    H   H11  0.389985  0.510013  0.318977  0.131661
    H   H12  0.506088  0.502873  0.207718  0.116405
    H   H13  0.800621  0.503495  0.646207  0.189459
    C   C31  0.724562  0.491958  0.248766  0.158532
    C   C32  0.738429  0.626958  0.197437  -0.136985
    C   C33  0.778446  0.619361  0.112158  -0.275196
    C   C34  0.799252  0.475885  0.074452  0.232821
    C   C35  0.843301  0.465242  0.983099  -0.289053
    C   C36  0.775024  0.340805  0.119472  -0.237225
    C   C37  0.734025  0.349131  0.204020  -0.169971
    H   H14  0.718540  0.739377  0.224536  0.101721
    H   H15  0.792201  0.726293  0.074800  0.143288
    H   H16  0.850489  0.583445  0.951797  0.078270
    H   H17  0.782592  0.393119  0.921633  0.066696
    H   H18  0.930064  0.408811  0.007312  0.109085
    H   H19  0.786379  0.228190  0.087438  0.142244
    H   H20  0.711399  0.242927  0.236802  0.108507
