# Generated by REPEAT Assigner based on pymatgen
data_DB0-m2_o14_o27_f0_pcu.sym.39
_audit_creation_date              2022-05-24
_audit_creation_method            REPEAT_Assigner
_cell_length_a                    19.235191
_cell_length_b                    10.879530
_cell_length_c                    9.475336
_cell_angle_alpha                 89.986499
_cell_angle_beta                  89.986065
_cell_angle_gamma                 90.005365
_cell_volume                      1982.901886
_symmetry_space_group_name_H-M    P1
_symmetry_Int_Tables_number       1
loop_
    _symmetry_equiv_pos_site_id
    _symmetry_equiv_pos_as_xyz
    1  x,y,z
loop_
    _atom_site_type_symbol
    _atom_site_label
    _atom_site_fract_x
    _atom_site_fract_y
    _atom_site_fract_z
    _atom_type_partial_charge
    O   O1   0.484974  0.329328  0.614922  -0.544762
    O   O2   0.513301  0.331248  0.377379  -0.503856
    C   C1   0.504140  0.271717  0.498566  0.752185
    O   O3   0.401051  0.533196  0.622793  -0.504896
    O   O4   0.398591  0.482114  0.384368  -0.502854
    C   C2   0.367291  0.507747  0.504827  0.506008
    Cu  Cu1  0.501116  0.505309  0.638015  0.724851
    Cu  Cu2  0.498256  0.508372  0.359067  0.819704
    O   O5   0.516466  0.681834  0.617392  -0.429122
    O   O6   0.482786  0.684582  0.384763  -0.551459
    O   O7   0.600384  0.476018  0.610559  -0.523293
    O   O8   0.598474  0.533098  0.377713  -0.461198
    C   C3   0.495870  0.741404  0.504410  0.592909
    C   C4   0.632479  0.501845  0.492215  0.526338
    C   C5   0.254910  0.533672  0.629342  -0.172284
    H   H1   0.282182  0.553335  0.726432  0.114230
    C   C6   0.183137  0.533859  0.629749  0.130825
    H   H2   0.156318  0.553626  0.727340  0.030064
    C   C7   0.146591  0.508815  0.507301  -0.469695
    C   C8   0.182767  0.483889  0.384573  0.121566
    H   H3   0.155844  0.464032  0.287163  0.027348
    C   C9   0.254376  0.483755  0.384207  -0.163465
    H   H4   0.280991  0.463972  0.286457  0.118240
    C   C10  0.290979  0.508439  0.506511  0.068924
    N   N1   0.035309  0.481988  0.387861  -0.320217
    N   N2   0.966602  0.479841  0.387691  -0.396113
    C   C11  0.930924  0.502996  0.506928  1.015479
    N   N3   0.965995  0.530157  0.625865  -0.299282
    N   N4   0.034723  0.532291  0.626152  -0.367413
    C   C12  0.070252  0.507830  0.507176  0.859624
    C   C13  0.815278  0.488264  0.627439  0.524219
    C   C14  0.743490  0.488754  0.620205  -0.275855
    H   H5   0.713897  0.479425  0.716443  0.085148
    C   C15  0.709258  0.500361  0.492368  -0.078754
    C   C16  0.748248  0.509964  0.369360  0.396522
    C   C17  0.820127  0.510566  0.376765  -0.159866
    H   H6   0.850015  0.519493  0.280789  0.104112
    C   C18  0.854232  0.500751  0.504890  -0.596832
    C   C19  0.523593  0.124754  0.757389  -0.092486
    H   H7   0.550252  0.211680  0.763443  0.124119
    C   C20  0.510144  0.066524  0.882142  -0.287340
    H   H8   0.522473  0.113886  0.977704  0.113754
    C   C21  0.479846  0.952379  0.883281  0.461567
    C   C22  0.471446  0.890465  0.758030  -0.403431
    H   H9   0.446464  0.801865  0.760296  0.118673
    C   C23  0.491331  0.944664  0.631641  0.206635
    C   C24  0.507142  0.069368  0.630335  0.046393
    C   C25  0.508958  0.134334  0.503058  -0.384513
    C   C26  0.509777  0.066212  0.379738  0.546377
    H   H10  0.508742  0.890200  0.284368  0.192228
    C   C27  0.504798  0.939882  0.382500  -0.378815
    C   C28  0.494657  0.877361  0.507031  -0.099924
    C   C29  0.582840  0.676851  0.140466  -0.418902
    H   H11  0.575739  0.700239  0.247427  0.194555
    C   C30  0.632744  0.744719  0.071773  0.449177
    C   C31  0.643214  0.727014  0.931308  0.314312
    C   C32  0.601280  0.646186  0.859663  -0.343940
    H   H12  0.611669  0.638659  0.750628  0.189716
    C   C33  0.549264  0.577869  0.926094  0.058400
    C   C34  0.542896  0.587075  0.072986  0.247936
    N   N5   0.497295  0.514027  0.146530  -0.240772
    C   C35  0.454062  0.441592  0.069015  0.284655
    H   H13  0.420532  0.385530  0.862359  0.110482
    C   C36  0.457102  0.440493  0.921588  -0.130836
    N   N6   0.505469  0.504847  0.849980  -0.041134
    N   N7   0.460153  0.897014  0.013642  -0.717327
    H   H14  0.417610  0.946002  0.052526  0.232159
    H   H15  0.443651  0.807171  0.994717  0.315333
    N   N8   0.401374  0.370871  0.136903  -0.489579
    H   H16  0.368196  0.334037  0.060816  0.247366
    H   H17  0.425102  0.297714  0.188353  0.224199
    N   N9   0.673024  0.834526  0.145326  -0.830468
    H   H18  0.655938  0.841221  0.249528  0.312833
    H   H19  0.724439  0.803856  0.147664  0.342720
    N   N10  0.695225  0.796697  0.859306  -0.749321
    H   H20  0.743681  0.767201  0.895585  0.294776
    H   H21  0.692949  0.778430  0.751337  0.308720
    N   N11  0.848348  0.470748  0.760822  -0.823333
    H   H22  0.810828  0.470539  0.840326  0.316095
    H   H23  0.871511  0.383932  0.759633  0.314319
    N   N12  0.715220  0.516758  0.234681  -0.780237
    H   H24  0.692995  0.430975  0.214381  0.292612
    H   H25  0.752733  0.532485  0.157231  0.289959
    N   N13  0.517807  0.124243  0.247296  -0.785968
    H   H26  0.474042  0.100652  0.188536  0.333452
    H   H27  0.562074  0.086576  0.200472  0.317723
