# generated using pymatgen
data_ZnH12C17NO7
_symmetry_space_group_name_H-M   'P 1'
_cell_length_a   11.83895100
_cell_length_b   13.09584000
_cell_length_c   14.51865500
_cell_angle_alpha   89.99024000
_cell_angle_beta   85.56363200
_cell_angle_gamma   91.18577900
_symmetry_Int_Tables_number   1
_chemical_formula_structural   ZnH12C17NO7
_chemical_formula_sum   'Zn2 H24 C34 N2 O14'
_cell_volume   2243.75847811
_cell_formula_units_Z   2
loop_
 _symmetry_equiv_pos_site_id
 _symmetry_equiv_pos_as_xyz
  1  'x, y, z'
loop_
 _atom_site_type_symbol
 _atom_site_label
 _atom_site_symmetry_multiplicity
 _atom_site_fract_x
 _atom_site_fract_y
 _atom_site_fract_z
 _atom_site_occupancy
  Zn  Zn1  1  0.37824400  0.51113400  0.51220400  1
  Zn  Zn2  1  0.63514300  0.49242100  0.48999500  1
  H  H1  1  0.63212900  0.99438900  0.65241200  1
  H  H2  1  0.38695100  0.01036700  0.34649200  1
  H  H3  1  0.19981500  0.42505100  0.41679100  1
  H  H4  1  0.81360800  0.58098800  0.58393100  1
  H  H5  1  0.02533600  0.36812600  0.35802900  1
  H  H6  1  0.98824100  0.63556300  0.64447100  1
  H  H7  1  0.55196800  0.25962100  0.64594400  1
  H  H8  1  0.65693200  0.16535400  0.64243100  1
  H  H9  1  0.43559900  0.17097800  0.72694600  1
  H  H10  1  0.47093100  0.74638700  0.35257600  1
  H  H11  1  0.47572100  0.86805500  0.30235900  1
  H  H12  1  0.30295200  0.80915800  0.43861800  1
  H  H13  1  0.36002300  0.16135200  0.28251000  1
  H  H14  1  0.42377700  0.27511200  0.32367100  1
  H  H15  1  0.20996300  0.19600500  0.34728700  1
  H  H16  1  0.68959600  0.84711200  0.70348400  1
  H  H17  1  0.71578300  0.74909700  0.62017900  1
  H  H18  1  0.54695900  0.77444400  0.76057100  1
  H  H19  1  0.17986900  0.72968800  0.65324000  1
  H  H20  1  0.30003700  0.64938500  0.64872700  1
  H  H21  1  0.14981600  0.67651600  0.78329700  1
  H  H22  1  0.83602600  0.37384500  0.27362300  1
  H  H23  1  0.71338200  0.35591500  0.35250200  1
  H  H24  1  0.85648500  0.22326500  0.29601000  1
  C  C1  1  0.53203200  0.70075700  0.50726500  1
  C  C2  1  0.48140100  0.30283500  0.49504100  1
  C  C3  1  0.51362500  0.49244400  0.68036600  1
  C  C4  1  0.49972000  0.51084100  0.32183100  1
  C  C5  1  0.51511100  0.49246600  0.77910400  1
  C  C6  1  0.49819400  0.51037300  0.22310800  1
  C  C7  1  0.51324100  0.49477200  0.86217700  1
  C  C8  1  0.50006000  0.50781800  0.14004300  1
  C  C9  1  0.50882100  0.49913300  0.95956000  1
  C  C10  1  0.50448000  0.50331700  0.04266600  1
  C  C11  1  0.47243500  0.19077500  0.49021500  1
  C  C12  1  0.54132300  0.81288200  0.51191200  1
  C  C13  1  0.58959800  0.96288200  0.59571100  1
  C  C14  1  0.42802100  0.04128900  0.40419300  1
  C  C15  1  0.59304600  0.85856400  0.58421900  1
  C  C16  1  0.42448900  0.14549700  0.41593200  1
  C  C17  1  0.48883300  0.87360300  0.44943600  1
  C  C18  1  0.52352000  0.12980600  0.55339200  1
  C  C19  1  0.48290300  0.97948300  0.46356300  1
  C  C20  1  0.53182100  0.02427200  0.53790900  1
  C  C21  1  0.97915800  0.41548500  0.40831100  1
  C  C22  1  0.03427100  0.58818600  0.59411700  1
  C  C23  1  0.86232400  0.41732700  0.41155700  1
  C  C24  1  0.15103600  0.58526600  0.59157900  1
  C  C25  1  0.86016700  0.53384400  0.53385900  1
  C  C26  1  0.15323200  0.47105600  0.46762700  1
  C  C27  1  0.97673200  0.53160500  0.53257100  1
  C  C28  1  0.03665100  0.47278300  0.46935500  1
  C  C29  1  0.56458100  0.17658600  0.64019200  1
  C  C30  1  0.44291800  0.82546700  0.36517500  1
  C  C31  1  0.37044900  0.20745900  0.34540700  1
  C  C32  1  0.64847600  0.79667800  0.65412300  1
  C  C33  1  0.20737400  0.64976000  0.65993500  1
  C  C34  1  0.80590500  0.35053100  0.34491400  1
  N  N1  1  0.20979300  0.52625800  0.52831100  1
  N  N2  1  0.80361200  0.47748300  0.47390200  1
  O  O1  1  0.42977100  0.65958100  0.51300700  1
  O  O2  1  0.58372700  0.34395800  0.48908800  1
  O  O3  1  0.62447700  0.64652500  0.49802200  1
  O  O4  1  0.38880900  0.35700500  0.50412500  1
  O  O5  1  0.41518100  0.50039700  0.64574700  1
  O  O6  1  0.59818800  0.50315600  0.35645500  1
  O  O7  1  0.61022600  0.48880500  0.62966200  1
  O  O8  1  0.40314900  0.51468500  0.37253600  1
  O  O9  1  0.50616200  0.13177700  0.71758400  1
  O  O10  1  0.32462800  0.82590500  0.37306500  1
  O  O11  1  0.26374900  0.23777100  0.38112300  1
  O  O12  1  0.56770700  0.73514800  0.70373700  1
  O  O13  1  0.17509400  0.61470800  0.74897400  1
  O  O14  1  0.83479900  0.24930500  0.35877600  1
