data_DB0-m3_o115_o21_f0_fsc.sym.26_repeat
_audit_creation_date              2024-02-23
_audit_creation_method            'Materials Studio'
_symmetry_space_group_name_H-M    'P1'
_symmetry_Int_Tables_number       1
_symmetry_cell_setting            triclinic
loop_
_symmetry_equiv_pos_as_xyz
  x,y,z
_cell_length_a                    12.3497
_cell_length_b                    16.4679
_cell_length_c                    16.6984
_cell_angle_alpha                 90.0517
_cell_angle_beta                  81.2302
_cell_angle_gamma                 94.4837
loop_
_atom_site_label
_atom_site_type_symbol
_atom_site_fract_x
_atom_site_fract_y
_atom_site_fract_z
_atom_site_U_iso_or_equiv
_atom_site_adp_type
_atom_site_occupancy
H1     H     0.12466   0.08731   0.25898   0.00000  Uiso   1.00
H2     H     0.09501   0.92333   0.70954   0.00000  Uiso   1.00
C1     C     0.97485   0.74170   0.04509   0.00000  Uiso   1.00
C2     C     0.96252   0.25070   0.96304   0.00000  Uiso   1.00
C3     C     0.97004   0.74119   0.96338   0.00000  Uiso   1.00
C4     C     0.96744   0.25115   0.04475   0.00000  Uiso   1.00
C5     C     0.98739   0.82143   0.93733   0.00000  Uiso   1.00
C6     C     0.98900   0.17335   0.06516   0.00000  Uiso   1.00
N1     N     0.00325   0.87087   0.99954   0.00000  Uiso   1.00
N2     N     0.99777   0.12551   0.99930   0.00000  Uiso   1.00
C7     C     0.99512   0.82222   0.06542   0.00000  Uiso   1.00
C8     C     0.98100   0.17262   0.93705   0.00000  Uiso   1.00
C9     C     0.99274   0.84640   0.86055   0.00000  Uiso   1.00
C10    C     0.00502   0.14984   0.13887   0.00000  Uiso   1.00
C11    C     0.01251   0.93288   0.83597   0.00000  Uiso   1.00
C12    C     0.03138   0.06649   0.15669   0.00000  Uiso   1.00
C13    C     0.06187   0.95983   0.75988   0.00000  Uiso   1.00
C14    C     0.08850   0.04649   0.21791   0.00000  Uiso   1.00
C15    C     0.06041   0.04338   0.75969   0.00000  Uiso   1.00
C16    C     0.08974   0.96293   0.21800   0.00000  Uiso   1.00
C17    C     0.01025   0.06434   0.83571   0.00000  Uiso   1.00
C18    C     0.03333   0.93495   0.15688   0.00000  Uiso   1.00
N3     N     0.97963   0.99665   0.88155   0.00000  Uiso   1.00
N4     N     0.99641   0.99817   0.12059   0.00000  Uiso   1.00
C19    C     0.98757   0.14820   0.86015   0.00000  Uiso   1.00
C20    C     0.00980   0.84816   0.13921   0.00000  Uiso   1.00
H3     H     0.96535   0.68840   0.08404   0.00000  Uiso   1.00
H4     H     0.94784   0.30251   0.92760   0.00000  Uiso   1.00
H5     H     0.95573   0.68747   0.92802   0.00000  Uiso   1.00
H6     H     0.95760   0.30351   0.08353   0.00000  Uiso   1.00
H7     H     0.09221   0.08365   0.70907   0.00000  Uiso   1.00
H8     H     0.12705   0.92714   0.25899   0.00000  Uiso   1.00
H9     H     0.93138   0.99352   0.93842   0.00000  Uiso   1.00
H10    H     0.94233   0.99438   0.07846   0.00000  Uiso   1.00
C21    C     0.10082   0.25104   0.21793   0.00000  Uiso   1.00
C22    C     0.89610   0.76357   0.76603   0.00000  Uiso   1.00
H11    H     0.17785   0.23793   0.18206   0.00000  Uiso   1.00
H12    H     0.82141   0.79151   0.78910   0.00000  Uiso   1.00
C23    C     0.09980   0.30822   0.27834   0.00000  Uiso   1.00
C24    C     0.89548   0.70552   0.70639   0.00000  Uiso   1.00
C25    C     0.00141   0.32604   0.32383   0.00000  Uiso   1.00
C26    C     0.99107   0.66997   0.67635   0.00000  Uiso   1.00
C27    C     0.90430   0.28563   0.30853   0.00000  Uiso   1.00
C28    C     0.08683   0.69274   0.70688   0.00000  Uiso   1.00
H13    H     0.82635   0.29825   0.34328   0.00000  Uiso   1.00
H14    H     0.16254   0.66574   0.68481   0.00000  Uiso   1.00
C29    C     0.90581   0.22775   0.24873   0.00000  Uiso   1.00
C30    C     0.08673   0.74982   0.76719   0.00000  Uiso   1.00
H15    H     0.82973   0.19622   0.23717   0.00000  Uiso   1.00
H16    H     0.16171   0.76704   0.79109   0.00000  Uiso   1.00
C31    C     0.00397   0.21040   0.20329   0.00000  Uiso   1.00
C32    C     0.99156   0.78539   0.79680   0.00000  Uiso   1.00
C33    C     0.10514   0.75646   0.21689   0.00000  Uiso   1.00
C34    C     0.08348   0.25107   0.76239   0.00000  Uiso   1.00
H17    H     0.18184   0.77668   0.17952   0.00000  Uiso   1.00
H18    H     0.15963   0.23883   0.78278   0.00000  Uiso   1.00
C35    C     0.10379   0.69903   0.27723   0.00000  Uiso   1.00
C36    C     0.08394   0.30826   0.70220   0.00000  Uiso   1.00
H19    H     0.18011   0.67498   0.28604   0.00000  Uiso   1.00
H20    H     0.16127   0.34018   0.67669   0.00000  Uiso   1.00
C37    C     0.00569   0.67209   0.32459   0.00000  Uiso   1.00
C38    C     0.98682   0.32483   0.67606   0.00000  Uiso   1.00
C39    C     0.90936   0.70387   0.31135   0.00000  Uiso   1.00
C40    C     0.88932   0.28308   0.71067   0.00000  Uiso   1.00
H21    H     0.83161   0.68412   0.34752   0.00000  Uiso   1.00
H22    H     0.81244   0.29480   0.69117   0.00000  Uiso   1.00
C41    C     0.91122   0.76185   0.25155   0.00000  Uiso   1.00
C42    C     0.88940   0.22502   0.77032   0.00000  Uiso   1.00
H23    H     0.83566   0.78631   0.24145   0.00000  Uiso   1.00
H24    H     0.81315   0.19230   0.79697   0.00000  Uiso   1.00
C43    C     0.00892   0.78805   0.20404   0.00000  Uiso   1.00
C44    C     0.98649   0.20908   0.79635   0.00000  Uiso   1.00
H25    H     0.17673   0.33926   0.28867   0.00000  Uiso   1.00
H26    H     0.81978   0.68902   0.68323   0.00000  Uiso   1.00
O1     O     0.90473   0.41077   0.42178   0.00000  Uiso   1.00
O2     O     0.08680   0.58532   0.57836   0.00000  Uiso   1.00
O3     O     0.09384   0.41745   0.40712   0.00000  Uiso   1.00
O4     O     0.89772   0.57883   0.59293   0.00000  Uiso   1.00
C45    C     0.99995   0.38766   0.38736   0.00000  Uiso   1.00
C46    C     0.99169   0.60851   0.61274   0.00000  Uiso   1.00
O5     O     0.09659   0.58645   0.40455   0.00000  Uiso   1.00
O6     O     0.89495   0.40974   0.59559   0.00000  Uiso   1.00
O7     O     0.90724   0.57959   0.42492   0.00000  Uiso   1.00
O8     O     0.08431   0.41665   0.57517   0.00000  Uiso   1.00
C47    C     0.00321   0.60980   0.38779   0.00000  Uiso   1.00
C48    C     0.98843   0.38650   0.61239   0.00000  Uiso   1.00
Zn1    Zn    0.11820   0.50433   0.48898   0.00000  Uiso   1.00
Zn2    Zn    0.87335   0.49187   0.51112   0.00000  Uiso   1.00
N5     N     0.72919   0.48512   0.52289   0.00000  Uiso   1.00
N6     N     0.26236   0.51109   0.47723   0.00000  Uiso   1.00
C49    C     0.51737   0.48071   0.52971   0.00000  Uiso   1.00
C50    C     0.47402   0.51814   0.47231   0.00000  Uiso   1.00
C51    C     0.35677   0.51431   0.47449   0.00000  Uiso   1.00
C52    C     0.63472   0.48290   0.52637   0.00000  Uiso   1.00
C53    C     0.54562   0.56415   0.40446   0.00000  Uiso   1.00
O9     O     0.60130   0.63158   0.43466   0.00000  Uiso   1.00
H27    H     0.49297   0.58561   0.36190   0.00000  Uiso   1.00
H28    H     0.60525   0.52436   0.37115   0.00000  Uiso   1.00
H29    H     0.59277   0.67702   0.39793   0.00000  Uiso   1.00
C54    C     0.44581   0.43466   0.59758   0.00000  Uiso   1.00
O10    O     0.38338   0.48807   0.64640   0.00000  Uiso   1.00
H30    H     0.49895   0.40474   0.63458   0.00000  Uiso   1.00
H31    H     0.39097   0.38728   0.57338   0.00000  Uiso   1.00
H32    H     0.34766   0.45447   0.69366   0.00000  Uiso   1.00
