# Generated by REPEAT Assigner based on pymatgen
data_DB0-m3_o23_o23_f0_nbo.sym.136
_audit_creation_date              2022-05-24
_audit_creation_method            REPEAT_Assigner
_cell_length_a                    27.625407
_cell_length_b                    27.621091
_cell_length_c                    27.600166
_cell_angle_alpha                 109.483547
_cell_angle_beta                  109.489869
_cell_angle_gamma                 109.473598
_cell_volume                      16205.424816
_symmetry_space_group_name_H-M    P1
_symmetry_Int_Tables_number       1
loop_
    _symmetry_equiv_pos_site_id
    _symmetry_equiv_pos_as_xyz
    1  x,y,z
loop_
    _atom_site_type_symbol
    _atom_site_label
    _atom_site_fract_x
    _atom_site_fract_y
    _atom_site_fract_z
    _atom_type_partial_charge
    O   O1    0.430317  0.396904  0.464551  -0.691795
    O   O2    0.558295  0.592371  0.538797  -0.688101
    O   O3    0.433036  0.468973  0.540104  -0.671829
    O   O4    0.555550  0.520287  0.463223  -0.678170
    C   C1    0.412150  0.413390  0.502160  0.718885
    C   C2    0.576428  0.575868  0.501145  0.728215
    O   O5    0.557026  0.459429  0.527388  -0.649499
    O   O6    0.431633  0.529900  0.475977  -0.693400
    O   O7    0.556392  0.529836  0.601281  -0.663421
    O   O8    0.432265  0.459456  0.402087  -0.670343
    C   C3    0.576132  0.494253  0.583436  0.654132
    C   C4    0.412511  0.495020  0.419924  0.722127
    Zn  Zn1   0.493652  0.447130  0.453416  1.300079
    Zn  Zn2   0.494970  0.542141  0.549949  1.309100
    C   C5    0.699126  0.429131  0.688320  0.009149
    C   C6    0.299048  0.564290  0.310017  0.131075
    C   C7    0.698707  0.510110  0.762432  -0.198568
    C   C8    0.289173  0.474355  0.236541  -0.417794
    C   C9    0.750456  0.521719  0.816582  -0.001580
    C   C10   0.252651  0.486499  0.191494  0.127535
    H   H1    0.719555  0.408402  0.758918  0.018830
    H   H2    0.253097  0.591807  0.253529  0.088581
    H   H3    0.654224  0.398861  0.677484  0.022594
    H   H4    0.334339  0.584904  0.301055  -0.014940
    H   H5    0.695129  0.550362  0.769907  0.046254
    H   H6    0.271262  0.426695  0.221628  0.108620
    H   H7    0.656780  0.475247  0.753196  0.015533
    H   H8    0.335785  0.494691  0.246603  0.090534
    H   H9    0.731959  0.493605  0.833560  0.023133
    H   H10   0.283147  0.529035  0.198003  -0.017513
    C   C11   0.869124  0.494812  0.872929  0.039983
    C   C12   0.122537  0.495429  0.127558  0.040568
    C   C13   0.705641  0.491060  0.707819  0.584260
    C   C14   0.287897  0.501115  0.293584  0.631064
    C   C15   0.743740  0.434325  0.743191  -0.209088
    C   C16   0.242143  0.556880  0.265730  -0.416156
    C   C17   0.785795  0.498425  0.792851  0.573945
    C   C18   0.208620  0.496710  0.209981  0.656598
    C   C19   0.813667  0.534583  0.768760  -0.100439
    C   C20   0.180641  0.450156  0.224559  -0.129017
    C   C21   0.766033  0.536168  0.723236  -0.106565
    C   C22   0.226972  0.462327  0.282298  -0.129243
    C   C23   0.831395  0.496541  0.836945  -0.480996
    C   C24   0.161392  0.495911  0.164697  -0.487621
    C   C25   0.659137  0.491993  0.663567  -0.481432
    C   C26   0.332170  0.499005  0.338909  -0.461579
    C   C27   0.621175  0.493386  0.627407  0.053901
    C   C28   0.368547  0.496807  0.375827  0.013340
    H   H11   0.770787  0.526809  0.683348  0.019592
    H   H12   0.220294  0.484672  0.319074  0.012932
    H   H13   0.771194  0.581025  0.741907  0.019210
    H   H14   0.222447  0.419716  0.278873  0.043924
    H   H15   0.834498  0.513652  0.747571  0.019601
    H   H16   0.143118  0.452402  0.229541  0.041965
    H   H17   0.772048  0.416831  0.733519  0.058412
    H   H18   0.211154  0.557593  0.282465  0.110318
    H   H19   0.848475  0.580392  0.804744  0.014524
    H   H20   0.163681  0.405118  0.188659  0.012501
    C   C29   0.243377  0.230582  0.438440  -0.182378
    C   C30   0.744429  0.758228  0.561820  -0.176598
    C   C31   0.246185  0.307430  0.519477  -0.163501
    C   C32   0.739731  0.680340  0.480015  -0.165569
    C   C33   0.195808  0.258089  0.514391  -0.145862
    C   C34   0.789372  0.729079  0.483632  -0.145780
    H   H21   0.153283  0.165466  0.404406  0.033867
    H   H22   0.834069  0.822773  0.593733  0.034887
    H   H23   0.219834  0.242966  0.407797  0.037266
    H   H24   0.768637  0.746156  0.592376  0.033986
    H   H25   0.274409  0.344362  0.566117  0.028696
    H   H26   0.710693  0.643036  0.433582  0.029591
    H   H27   0.227853  0.323943  0.490540  0.042567
    H   H28   0.758774  0.664185  0.508995  0.042347
    H   H29   0.152977  0.246543  0.478834  0.025693
    H   H30   0.832654  0.740742  0.518558  0.025917
    H   H31   0.195998  0.273109  0.557094  0.041117
    H   H32   0.788016  0.713395  0.440363  0.041534
    C   C35   0.119767  0.119972  0.498648  0.041854
    C   C36   0.864607  0.866320  0.497453  0.036285
    C   C37   0.282983  0.283907  0.500577  0.757680
    C   C38   0.703798  0.704461  0.500028  0.770259
    C   C39   0.198594  0.181169  0.438937  -0.130341
    C   C40   0.788394  0.807009  0.559923  -0.132655
    C   C41   0.203563  0.204171  0.499485  0.752071
    C   C42   0.781868  0.783145  0.498706  0.744239
    C   C43   0.264049  0.221210  0.545776  -0.169943
    C   C44   0.720874  0.766022  0.453360  -0.172345
    C   C45   0.311623  0.265754  0.543155  -0.151962
    C   C46   0.674187  0.722149  0.457461  -0.157983
    C   C47   0.157559  0.157968  0.498922  -0.552695
    C   C48   0.827171  0.828748  0.497963  -0.544951
    C   C49   0.329037  0.330129  0.501211  -0.543638
    C   C50   0.658519  0.658787  0.500722  -0.549804
    C   C51   0.366985  0.368174  0.501692  0.036123
    C   C52   0.621124  0.621019  0.501072  0.033688
    H   H33   0.335874  0.245480  0.527553  0.030968
    H   H34   0.650571  0.742857  0.473816  0.033457
    H   H35   0.343255  0.305234  0.588068  0.040116
    H   H36   0.641844  0.682376  0.412877  0.039913
    H   H37   0.268706  0.181273  0.537053  0.044661
    H   H38   0.716323  0.806021  0.462150  0.045658
    H   H39   0.270543  0.215214  0.423022  0.046283
    H   H40   0.717955  0.774076  0.578087  0.043598
    H   H41   0.207527  0.143763  0.429357  0.024520
    H   H42   0.779655  0.844543  0.569703  0.025491
    H   H43   0.269017  0.241116  0.590515  0.033352
    H   H44   0.714774  0.745490  0.408174  0.035525
    O   O9    0.960490  0.394834  0.939071  -0.673048
    O   O10   0.030783  0.594294  0.060435  -0.675864
    O   O11   0.030610  0.467684  0.937235  -0.695149
    O   O12   0.960652  0.521428  0.062259  -0.695951
    C   C53   0.995914  0.411900  0.918938  0.736155
    C   C54   0.995264  0.577201  0.080475  0.728981
    O   O13   0.897900  0.457001  0.935533  -0.686363
    O   O14   0.093393  0.532129  0.064037  -0.668613
    O   O15   0.969785  0.532038  0.937501  -0.660056
    O   O16   0.021558  0.457118  0.062098  -0.672913
    C   C55   0.914303  0.494147  0.916856  0.681159
    C   C56   0.077065  0.495039  0.082771  0.688166
    Zn  Zn3   0.948331  0.447080  0.999972  1.314155
    Zn  Zn4   0.042985  0.542034  0.999584  1.301558
    O   O17   0.952643  0.929827  0.397423  -0.670885
    O   O18   0.031637  0.056090  0.598169  -0.670386
    O   O19   0.027070  0.931046  0.469096  -0.691622
    O   O20   0.957204  0.054872  0.526491  -0.690388
    C   C57   0.989598  0.910946  0.413534  0.723544
    C   C58   0.994688  0.074978  0.582048  0.719776
    O   O21   0.019136  0.054611  0.461753  -0.687747
    O   O22   0.965137  0.931314  0.533855  -0.686939
    O   O23   0.091947  0.056219  0.535616  -0.670206
    O   O24   0.892320  0.929695  0.459996  -0.671384
    C   C59   0.074933  0.074842  0.498601  0.715101
    C   C60   0.909345  0.911094  0.497041  0.717465
    Zn  Zn5   0.944640  0.993826  0.451145  1.309182
    Zn  Zn6   0.039626  0.992078  0.544446  1.307464
    C   C61   0.980426  0.228990  0.797683  -0.152229
    C   C62   0.013708  0.761365  0.203780  -0.126358
    C   C63   0.057684  0.306307  0.797125  -0.165057
    C   C64   0.928578  0.683429  0.194983  -0.092381
    C   C65   0.058459  0.257059  0.752383  -0.161004
    C   C66   0.927097  0.732289  0.239425  -0.191745
    H   H45   0.004004  0.162848  0.765797  0.037579
    H   H46   0.992093  0.829352  0.235141  0.041304
    H   H47   0.015113  0.239834  0.840696  0.027889
    H   H48   0.982928  0.753743  0.160490  0.023617
    H   H49   0.068288  0.344187  0.788925  0.030222
    H   H50   0.913278  0.643662  0.199839  0.018304
    H   H51   0.091348  0.321282  0.842600  0.049114
    H   H52   0.898761  0.671793  0.149332  0.023629
    H   H53   0.088312  0.244037  0.775992  0.028028
    H   H54   0.900959  0.748334  0.215974  0.031589
    H   H55   0.074952  0.272905  0.726017  0.044520
    H   H56   0.905989  0.714758  0.262209  0.048755
    C   C67   0.995372  0.120136  0.627540  0.041221
    C   C68   0.989226  0.866087  0.368042  0.032609
    C   C69   0.996637  0.283476  0.790883  0.743070
    C   C70   0.991475  0.704658  0.206306  0.692532
    C   C71   0.975789  0.179929  0.747371  -0.150096
    C   C72   0.016854  0.809549  0.253603  -0.168783
    C   C73   0.996202  0.204118  0.711647  0.769460
    C   C74   0.989900  0.783013  0.284513  0.772647
    C   C75   0.954640  0.223104  0.682854  -0.160819
    C   C76   0.026631  0.760054  0.313420  -0.160490
    C   C77   0.951570  0.267416  0.730219  -0.165355
    C   C78   0.031108  0.716275  0.267056  -0.163901
    C   C79   0.995840  0.158082  0.665619  -0.557203
    C   C80   0.989273  0.828507  0.330103  -0.543963
    C   C81   0.996736  0.329427  0.836724  -0.532627
    C   C82   0.992625  0.659250  0.161209  -0.522591
    C   C83   0.996515  0.367155  0.874327  0.020866
    C   C84   0.993826  0.621821  0.124323  0.028059
    H   H57   0.906452  0.247647  0.724316  0.033419
    H   H58   0.077680  0.734826  0.276701  0.036648
    H   H59   0.961236  0.307773  0.726214  0.045168
    H   H60   0.017042  0.674238  0.268116  0.046996
    H   H61   0.909706  0.183939  0.650446  0.042435
    H   H62   0.071711  0.797483  0.348764  0.042178
    H   H63   0.937305  0.214050  0.796564  0.039558
    H   H64   0.058434  0.775355  0.208683  0.035905
    H   H65   0.929088  0.143281  0.718310  0.028233
    H   H66   0.063817  0.844562  0.285883  0.032219
    H   H67   0.971333  0.243833  0.659406  0.030621
    H   H68   0.005219  0.737767  0.333311  0.030097
    C   C85   0.709034  0.401663  0.635511  0.246831
    C   C86   0.693206  0.336842  0.616119  -0.190300
    C   C87   0.626724  0.293931  0.581138  0.168617
    C   C88   0.597442  0.298852  0.527333  -0.159683
    C   C89   0.610343  0.361875  0.547053  0.157205
    C   C90   0.676862  0.403227  0.579493  -0.133528
    H   H69   0.756929  0.426872  0.651110  -0.065196
    H   H70   0.712741  0.330539  0.653976  0.009642
    H   H71   0.711888  0.323989  0.587372  0.040662
    H   H72   0.606454  0.302238  0.609257  -0.044105
    H   H73   0.619004  0.248116  0.565972  -0.026625
    H   H74   0.548842  0.268702  0.503694  0.006593
    H   H75   0.614549  0.286029  0.496954  0.034829
    H   H76   0.591456  0.373339  0.575861  -0.022247
    H   H77   0.589085  0.365347  0.507431  -0.020164
    H   H78   0.687714  0.448581  0.588263  0.012735
    H   H79   0.693314  0.387761  0.549286  0.011803
    C   C91   0.321616  0.604517  0.376896  0.026244
    C   C92   0.389683  0.640222  0.413023  -0.032964
    C   C93   0.416308  0.693536  0.405858  -0.045621
    C   C94   0.391493  0.733766  0.421660  0.083929
    C   C95   0.325003  0.699184  0.381978  -0.009954
    C   C96   0.298934  0.648033  0.391848  -0.020466
    H   H80   0.306782  0.575529  0.394643  -0.020774
    H   H81   0.409118  0.612430  0.400495  0.010952
    H   H82   0.403688  0.656316  0.460615  0.028540
    H   H83   0.407790  0.679365  0.359898  0.006126
    H   H84   0.464991  0.718783  0.436124  0.000160
    H   H85   0.410588  0.771443  0.414797  -0.031364
    H   H86   0.403182  0.751159  0.468846  -0.013416
    H   H87   0.313884  0.683331  0.335205  0.001857
    H   H88   0.306875  0.728802  0.393676  -0.010198
    H   H89   0.250132  0.626611  0.369308  -0.016474
    H   H90   0.313438  0.667144  0.439786  0.020500
    C   C97   0.783355  0.588319  0.865479  0.295983
    C   C98   0.744866  0.602697  0.890712  -0.212361
    C   C99   0.740653  0.580004  0.933200  0.148158
    C   C100  0.801728  0.604362  0.983570  -0.135487
    C   C101  0.837820  0.586673  0.958376  0.064195
    C   C102  0.843569  0.612298  0.918424  -0.128156
    H   H91   0.791908  0.615495  0.844319  -0.073377
    H   H92   0.699269  0.584731  0.855523  0.020730
    H   H93   0.765030  0.651587  0.915343  0.042717
    H   H94   0.716850  0.530918  0.909656  -0.034567
    H   H95   0.715228  0.595068  0.951985  -0.023967
    H   H96   0.797628  0.585742  0.012844  0.005705
    H   H97   0.823892  0.653378  0.009847  0.045332
    H   H98   0.815827  0.537713  0.933635  0.004701
    H   H99   0.882638  0.604626  0.995342  0.016878
    H   H100  0.875583  0.606596  0.905006  0.019306
    H   H101  0.863185  0.660937  0.945047  0.006091
    C   C103  0.222817  0.439271  0.124878  0.020923
    C   C104  0.222391  0.468443  0.086219  0.005381
    C   C105  0.282063  0.497917  0.090181  -0.022997
    C   C106  0.303240  0.454199  0.074517  0.031903
    C   C107  0.308508  0.430060  0.116496  0.006285
    C   C108  0.248130  0.398275  0.109843  -0.037877
    H   H102  0.175991  0.409082  0.109405  -0.020374
    H   H103  0.209547  0.502552  0.098499  -0.006071
    H   H104  0.189032  0.433781  0.039343  0.012930
    H   H105  0.315789  0.536274  0.135207  0.004386
    H   H106  0.276892  0.514406  0.058295  -0.005066
    H   H107  0.347283  0.477097  0.079024  -0.019596
    H   H108  0.271449  0.417520  0.028082  -0.000711
    H   H109  0.341359  0.466778  0.162456  0.003036
    H   H110  0.324047  0.397956  0.104909  -0.011333
    H   H111  0.248956  0.373671  0.134168  -0.010494
    H   H112  0.217333  0.363527  0.062511  0.025444
