# Generated by REPEAT Assigner based on pymatgen
data_DB0-m3_o6_o13_f0_pcu.sym.128
_audit_creation_date              2022-05-24
_audit_creation_method            REPEAT_Assigner
_cell_length_a                    13.162551
_cell_length_b                    16.145129
_cell_length_c                    14.990662
_cell_angle_alpha                 90.008364
_cell_angle_beta                  95.471481
_cell_angle_gamma                 89.996734
_cell_volume                      3171.167311
_symmetry_space_group_name_H-M    P1
_symmetry_Int_Tables_number       1
loop_
    _symmetry_equiv_pos_site_id
    _symmetry_equiv_pos_as_xyz
    1  x,y,z
loop_
    _atom_site_type_symbol
    _atom_site_label
    _atom_site_fract_x
    _atom_site_fract_y
    _atom_site_fract_z
    _atom_type_partial_charge
    O   O1   0.506082  0.381170  0.579047  -0.643755
    O   O2   0.518720  0.628510  0.428369  -0.666297
    O   O3   0.503831  0.381945  0.424810  -0.677952
    O   O4   0.521571  0.627698  0.582327  -0.632301
    C   C1   0.502120  0.343061  0.501562  0.855275
    C   C2   0.522240  0.666672  0.505637  0.852067
    O   O5   0.362124  0.510683  0.568181  -0.639832
    O   O6   0.663415  0.499325  0.439401  -0.540469
    O   O7   0.359582  0.511426  0.414320  -0.589784
    O   O8   0.665966  0.498023  0.592879  -0.633698
    C   C3   0.312504  0.512527  0.487852  0.836346
    C   C4   0.713383  0.495979  0.519482  0.737245
    Zn  Zn1  0.514050  0.504232  0.605140  1.044320
    Zn  Zn2  0.511497  0.505454  0.402208  0.980060
    C   C5   0.826949  0.493001  0.527640  -0.291416
    C   C6   0.199593  0.516440  0.480910  -0.586033
    C   C7   0.041422  0.565759  0.407206  0.180279
    C   C8   0.986269  0.471854  0.618194  0.358255
    C   C9   0.145537  0.553596  0.407550  0.468587
    C   C10  0.880708  0.465500  0.606274  0.072303
    C   C11  0.146536  0.487142  0.550727  0.503799
    C   C12  0.881837  0.520731  0.458511  0.417308
    C   C13  0.040672  0.496514  0.547613  -0.232440
    C   C14  0.987739  0.528556  0.471633  -0.232455
    C   C15  0.499463  0.961176  0.583933  0.203340
    C   C16  0.519702  0.048216  0.427495  0.215177
    C   C17  0.518704  0.919488  0.506468  -0.224451
    C   C18  0.502234  0.090264  0.504772  -0.329526
    C   C19  0.531539  0.963086  0.429009  0.253525
    C   C20  0.491223  0.046923  0.583188  0.316524
    C   C21  0.521148  0.830379  0.505614  0.204044
    C   C22  0.497862  0.179366  0.502810  0.243286
    C   C23  0.498259  0.254093  0.501435  -0.364711
    C   C24  0.522487  0.755669  0.505663  -0.348715
    H   H1   0.517642  0.376693  0.089423  0.169029
    H   H2   0.500046  0.635639  0.916470  0.219214
    C   C25  0.511365  0.431302  0.959321  0.281433
    C   C26  0.510430  0.581804  0.048121  0.271552
    C   C27  0.510300  0.504480  0.911380  0.113021
    C   C28  0.513432  0.508288  0.095823  0.075619
    C   C29  0.506295  0.579237  0.955443  -0.299365
    C   C30  0.514761  0.433677  0.051470  -0.233444
    C   C31  0.512492  0.503531  0.815669  0.149608
    C   C32  0.512324  0.508081  0.191602  0.133118
    N   N1   0.511413  0.506788  0.268757  -0.105901
    N   N2   0.514389  0.503294  0.738611  -0.163662
    O   O9   0.832864  0.533999  0.374842  -0.430202
    C   C33  0.839683  0.458738  0.328688  0.118732
    H   H3   0.787027  0.412469  0.353641  -0.004923
    H   H4   0.918345  0.433744  0.337557  -0.011663
    C   C34  0.811119  0.472697  0.229637  0.305700
    H   H5   0.730927  0.493831  0.219476  -0.044095
    H   H6   0.861829  0.520530  0.204686  -0.042550
    C   C35  0.822136  0.392766  0.178403  -0.383509
    H   H7   0.902684  0.371718  0.186922  0.082025
    H   H8   0.799211  0.403589  0.106231  0.071247
    H   H9   0.772282  0.344436  0.203622  0.082618
    O   O10  0.197519  0.441926  0.618351  -0.336146
    C   C36  0.203028  0.361029  0.585101  0.135087
    H   H10  0.278600  0.351180  0.559990  0.003733
    H   H11  0.142512  0.350576  0.529572  -0.032002
    C   C37  0.189723  0.299286  0.659322  0.349383
    H   H12  0.242519  0.315155  0.718871  -0.113435
    H   H13  0.110079  0.301353  0.677382  -0.089092
    C   C38  0.212878  0.212576  0.628238  -0.275097
    H   H14  0.161771  0.197108  0.567390  0.038920
    H   H15  0.200192  0.167734  0.682096  0.050036
    H   H16  0.293531  0.208779  0.612956  0.058515
    O   O11  0.830507  0.427338  0.671033  -0.300326
    C   C39  0.850728  0.342398  0.663282  0.210531
    H   H17  0.885007  0.318585  0.728743  0.002132
    H   H18  0.904188  0.330696  0.611944  0.015469
    C   C40  0.753514  0.295407  0.635147  0.115207
    H   H19  0.698339  0.303663  0.685907  0.014148
    H   H20  0.720094  0.319034  0.569445  0.029717
    C   C41  0.778369  0.204260  0.625885  -0.396534
    H   H21  0.841029  0.196444  0.582132  0.079063
    H   H22  0.710307  0.171130  0.594950  0.092689
    H   H23  0.801715  0.177609  0.692900  0.077629
    O   O12  0.194526  0.582487  0.337034  -0.425658
    C   C42  0.161819  0.531103  0.264525  0.238256
    H   H24  0.097787  0.561103  0.223222  -0.017031
    H   H25  0.136829  0.470306  0.289129  -0.034255
    C   C43  0.248272  0.516763  0.206591  0.214574
    H   H26  0.283998  0.576843  0.191965  -0.019156
    H   H27  0.305455  0.475494  0.242615  -0.016631
    C   C44  0.207889  0.475649  0.119408  -0.373057
    H   H28  0.169676  0.416588  0.133838  0.074434
    H   H29  0.272284  0.462715  0.078848  0.078598
    H   H30  0.152665  0.517232  0.081072  0.088833
    O   O13  0.992561  0.617843  0.344895  -0.304641
    C   C45  0.010684  0.697765  0.379220  0.168441
    H   H31  0.049479  0.734975  0.330349  -0.002845
    H   H32  0.060064  0.695327  0.443326  -0.014865
    C   C46  0.910850  0.738892  0.396401  0.196800
    H   H33  0.862775  0.746773  0.332191  -0.025231
    H   H34  0.869797  0.699985  0.442139  -0.002225
    C   C47  0.932282  0.822747  0.439713  -0.321526
    H   H35  0.978238  0.814805  0.505092  0.078234
    H   H36  0.859144  0.853230  0.450966  0.053522
    H   H37  0.974734  0.862099  0.395328  0.057744
    O   O14  0.035487  0.450331  0.699546  -0.400099
    C   C48  0.031982  0.520809  0.753350  0.214585
    H   H38  0.963235  0.518245  0.790654  -0.014908
    H   H39  0.029186  0.577358  0.711218  -0.024116
    C   C49  0.126600  0.523558  0.819424  0.208756
    H   H40  0.130377  0.466574  0.860922  -0.023089
    H   H41  0.195416  0.527224  0.782332  -0.033214
    C   C50  0.122941  0.598673  0.879677  -0.322876
    H   H42  0.118837  0.655893  0.838575  0.070314
    H   H43  0.192917  0.600376  0.927116  0.064485
    H   H44  0.055103  0.594914  0.918049  0.062772
    O   O15  0.459455  0.087347  0.656128  -0.387197
    C   C51  0.547133  0.118273  0.704870  0.263171
    H   H45  0.561331  0.182460  0.683267  0.016299
    H   H46  0.613918  0.079051  0.694131  -0.065419
    C   C52  0.530658  0.120240  0.803490  0.120357
    H   H47  0.467739  0.163810  0.813286  -0.012619
    H   H48  0.509423  0.057843  0.826182  -0.021731
    C   C53  0.627216  0.148888  0.857923  -0.214915
    H   H49  0.690340  0.105171  0.848627  0.043693
    H   H50  0.614054  0.150852  0.929859  0.043579
    H   H51  0.648098  0.211681  0.835891  0.054076
    O   O16  0.548504  0.921523  0.352127  -0.389322
    C   C54  0.654489  0.919658  0.349932  0.295183
    H   H52  0.681789  0.855001  0.359542  -0.024825
    H   H53  0.692027  0.958770  0.404258  -0.040004
    C   C55  0.681634  0.951379  0.259860  0.253414
    H   H54  0.648634  0.909490  0.206058  -0.066251
    H   H55  0.650151  0.014417  0.247865  -0.054091
    C   C56  0.796469  0.954961  0.258233  -0.334348
    H   H56  0.829993  0.996514  0.312145  0.080859
    H   H57  0.814816  0.979228  0.192453  0.061646
    H   H58  0.829144  0.892075  0.268043  0.080735
    O   O17  0.478041  0.917248  0.658290  -0.361627
    C   C57  0.571757  0.899663  0.707019  0.138477
    H   H59  0.588954  0.947250  0.759227  0.054080
    H   H60  0.634254  0.898568  0.662468  -0.013843
    C   C58  0.565277  0.816294  0.752735  0.203709
    H   H61  0.503719  0.818150  0.798316  -0.034419
    H   H62  0.547789  0.767423  0.701746  -0.018349
    C   C59  0.665796  0.796569  0.806456  -0.275091
    H   H63  0.727802  0.794504  0.761342  0.069934
    H   H64  0.660083  0.735420  0.839298  0.056826
    H   H65  0.683247  0.844638  0.858522  0.030441
    O   O18  0.527993  0.091334  0.349860  -0.352126
    C   C60  0.428560  0.098239  0.308321  0.257935
    H   H66  0.401310  0.162698  0.315288  -0.035820
    H   H67  0.376749  0.055420  0.339943  -0.006647
    C   C61  0.427958  0.077078  0.209732  0.241366
    H   H68  0.482323  0.117996  0.178613  -0.035134
    H   H69  0.451249  0.011612  0.202553  -0.040776
    C   C62  0.321836  0.089204  0.162832  -0.408235
    H   H70  0.266751  0.049361  0.194448  0.087134
    H   H71  0.322001  0.071922  0.091252  0.103038
    H   H72  0.298895  0.155036  0.167593  0.089536
    O   O19  0.511440  0.356494  0.916342  -0.391353
    C   C63  0.408627  0.335476  0.896154  0.203862
    H   H73  0.397670  0.313358  0.825923  0.083340
    H   H74  0.359034  0.390195  0.902928  -0.032716
    C   C64  0.378329  0.267603  0.958563  0.164504
    H   H75  0.435780  0.217262  0.961934  -0.002389
    H   H76  0.373770  0.293170  0.026664  -0.016768
    C   C65  0.274789  0.233039  0.924445  -0.333748
    H   H77  0.217835  0.283828  0.917810  0.080659
    H   H78  0.250974  0.186406  0.972583  0.074829
    H   H79  0.279213  0.203101  0.858347  0.088090
    O   O20  0.503162  0.655739  0.092479  -0.295729
    C   C66  0.592866  0.701340  0.084345  -0.072304
    H   H80  0.583474  0.762996  0.115094  0.120144
    H   H81  0.605628  0.712303  0.013397  0.061928
    C   C67  0.685927  0.659983  0.133203  0.301771
    H   H82  0.670509  0.645629  0.202981  -0.012676
    H   H83  0.705869  0.602524  0.098313  -0.050130
    C   C68  0.776505  0.718047  0.135061  -0.427757
    H   H84  0.791218  0.734322  0.065582  0.080694
    H   H85  0.844824  0.686958  0.168797  0.123465
    H   H86  0.760648  0.775121  0.172328  0.113527
