# Generated by REPEAT Assigner based on pymatgen
data_DB0-m2_o14_o74_f0_fsc
_audit_creation_date              2022-05-24
_audit_creation_method            REPEAT_Assigner
_cell_length_a                    6.593956
_cell_length_b                    9.207935
_cell_length_c                    13.315241
_cell_angle_alpha                 95.369226
_cell_angle_beta                  90.069074
_cell_angle_gamma                 90.047314
_cell_volume                      804.909580
_symmetry_space_group_name_H-M    P1
_symmetry_Int_Tables_number       1
loop_
    _symmetry_equiv_pos_site_id
    _symmetry_equiv_pos_as_xyz
    1  x,y,z
loop_
    _atom_site_type_symbol
    _atom_site_label
    _atom_site_fract_x
    _atom_site_fract_y
    _atom_site_fract_z
    _atom_type_partial_charge
    O   O1   0.225075  0.872576  0.902057  -0.543431
    O   O2   0.199712  0.120418  0.904046  -0.546453
    C   C1   0.283454  0.996487  0.868811  0.579949
    O   O3   0.818905  0.860203  0.889722  -0.684778
    O   O4   0.791271  0.107326  0.901579  -0.687372
    C   C2   0.734440  0.978352  0.861476  0.920737
    Cu  Cu1  0.008717  0.856186  0.002431  0.908275
    Cu  Cu2  0.991202  0.144446  0.009146  0.922712
    O   O5   0.796513  0.880302  0.104813  -0.684912
    O   O6   0.781076  0.127948  0.111490  -0.695382
    O   O7   0.210320  0.891595  0.109010  -0.616204
    O   O8   0.195623  0.140107  0.115393  -0.608913
    C   C3   0.718128  0.004287  0.142348  0.840170
    C   C4   0.272049  0.020875  0.146915  0.739462
    H   H1   0.286233  0.370068  0.065297  0.132000
    C   C5   0.634198  0.353823  0.972435  -0.095160
    H   H2   0.617820  0.240937  0.985267  0.126498
    C   C6   0.467344  0.426757  0.940502  -0.118337
    H   H3   0.329362  0.367879  0.919684  0.126816
    C   C7   0.473978  0.575646  0.939151  -0.090509
    H   H4   0.341514  0.634124  0.916909  0.098416
    C   C8   0.647600  0.650545  0.969473  -0.069013
    H   H5   0.640597  0.767447  0.981271  0.095463
    C   C9   0.823880  0.575950  0.987886  0.073615
    C   C10  0.816369  0.426285  0.990557  0.101336
    N   N1   0.984559  0.352886  0.013552  -0.025644
    C   C11  0.154952  0.427419  0.040479  -0.066894
    H   H6   0.298549  0.636057  0.061571  0.141469
    C   C12  0.162747  0.576794  0.037247  -0.049604
    N   N2   0.000077  0.648787  0.006364  0.008017
    C   C13  0.293821  0.040289  0.329916  -0.228908
    C   C14  0.393902  0.030101  0.238507  -0.100703
    C   C15  0.600789  0.006720  0.235553  -0.032922
    C   C16  0.703105  0.986459  0.323590  -0.268421
    C   C17  0.601716  0.992882  0.414271  0.230955
    C   C18  0.397111  0.021647  0.417735  0.201893
    C   C19  0.705065  0.970517  0.501462  -0.427988
    C   C20  0.603197  0.976912  0.592089  0.257564
    C   C21  0.398696  0.005907  0.595868  0.212562
    C   C22  0.295057  0.027977  0.508501  -0.406349
    C   C23  0.707348  0.958323  0.679451  -0.288200
    C   C24  0.609039  0.969555  0.771164  -0.100889
    C   C25  0.401424  0.993181  0.775117  0.004763
    C   C26  0.298223  0.012881  0.687006  -0.276525
    H   H7   0.132054  0.057777  0.332160  0.153284
    H   H8   0.863819  0.964484  0.321281  0.166061
    H   H9   0.865993  0.948344  0.498841  0.171911
    H   H10  0.869129  0.940760  0.676648  0.163806
    H   H11  0.137438  0.034744  0.689636  0.166340
    H   H12  0.134145  0.050214  0.511135  0.169435
