# Generated by REPEAT Assigner based on pymatgen
data_DB0-m29_o81_o420_f0_pts.sym.8
_audit_creation_date              2022-05-24
_audit_creation_method            REPEAT_Assigner
_cell_length_a                    15.745247
_cell_length_b                    12.171489
_cell_length_c                    13.338378
_cell_angle_alpha                 91.322969
_cell_angle_beta                  87.081702
_cell_angle_gamma                 107.914216
_cell_volume                      2429.049816
_symmetry_space_group_name_H-M    P1
_symmetry_Int_Tables_number       1
loop_
    _symmetry_equiv_pos_site_id
    _symmetry_equiv_pos_as_xyz
    1  x,y,z
loop_
    _atom_site_type_symbol
    _atom_site_label
    _atom_site_fract_x
    _atom_site_fract_y
    _atom_site_fract_z
    _atom_type_partial_charge
    C   C1   0.879102  0.988145  0.862605  -0.227057
    C   C2   0.285974  0.994291  0.914567  0.066675
    C   C3   0.200553  0.982096  0.884921  -0.265218
    C   C4   0.130984  0.973075  0.954622  0.257224
    C   C5   0.047965  0.968235  0.922529  -0.234705
    C   C6   0.977437  0.966107  0.991008  0.021581
    C   C7   0.798109  0.993837  0.835417  -0.095562
    C   C8   0.728228  0.979291  0.904618  -0.016782
    C   C9   0.893787  0.970213  0.961870  0.161176
    C   C10  0.824434  0.961674  0.034029  0.057640
    C   C11  0.740105  0.963232  0.005134  -0.017676
    C   C12  0.300524  0.994535  0.017184  -0.267699
    C   C13  0.229107  0.979717  0.086225  0.424755
    C   C14  0.144758  0.970690  0.055018  -0.136789
    C   C15  0.074247  0.961825  0.123554  -0.101874
    C   C16  0.991773  0.960617  0.091862  0.158027
    C   C17  0.924448  0.956776  0.162640  -0.219414
    C   C18  0.841946  0.957378  0.134594  -0.088383
    H   H1   0.929220  0.001623  0.802633  0.134804
    H   H2   0.187867  0.982568  0.806154  0.157075
    H   H3   0.041875  0.966510  0.842711  0.168752
    H   H4   0.789271  0.006571  0.757188  0.178569
    H   H5   0.083251  0.958703  0.203057  0.105867
    H   H6   0.936171  0.954363  0.241589  0.157171
    H   H7   0.793709  0.958238  0.194490  0.124618
    O   O1   0.618107  0.028173  0.072752  -0.550801
    C   C19  0.665458  0.956480  0.079260  0.464731
    O   O2   0.455321  0.751651  0.201713  -0.446682
    O   O3   0.643299  0.875996  0.147955  -0.413226
    O   O4   0.512105  0.913222  0.298254  -0.612017
    C   C20  0.477331  0.800360  0.289392  0.624920
    Fe  Fe1  0.524646  0.014677  0.180879  1.463081
    O   O5   0.406008  0.945597  0.119295  -0.515160
    O   O6   0.449482  0.119559  0.041918  -0.492049
    C   C21  0.389922  0.018104  0.056792  0.726350
    O   O7   0.558674  0.177280  0.234029  -0.629905
    O   O8   0.411966  0.114974  0.278179  -0.570831
    C   C22  0.489043  0.196124  0.280807  0.677250
    O   O9   0.457096  0.857850  0.681697  -0.616690
    O   O10  0.599563  0.851432  0.664579  -0.529867
    C   C23  0.514985  0.807485  0.645163  0.647456
    O   O11  0.643124  0.045802  0.790430  -0.644336
    O   O12  0.568096  0.901826  0.897097  -0.497730
    C   C24  0.642791  0.979231  0.866562  0.737790
    O   O13  0.335719  0.987770  0.740772  -0.528402
    O   O14  0.542896  0.125118  0.628578  -0.589560
    C   C25  0.510734  0.212602  0.638175  0.533746
    O   O15  0.439676  0.019105  0.857849  -0.560589
    C   C26  0.356548  0.001762  0.835242  0.680391
    O   O16  0.474431  0.234539  0.723980  -0.492008
    Fe  Fe2  0.519871  0.013541  0.739942  1.476433
    C   C27  0.492993  0.735839  0.555481  0.088804
    C   C28  0.502373  0.627258  0.550278  -0.214070
    H   H8   0.523248  0.597740  0.617366  0.135155
    C   C29  0.487549  0.562305  0.461588  0.107089
    C   C30  0.472973  0.617113  0.375450  -0.178936
    H   H9   0.465464  0.575524  0.303072  0.136202
    C   C31  0.472832  0.731159  0.379716  0.021688
    C   C32  0.478035  0.787140  0.470904  -0.147279
    C   C33  0.495663  0.381216  0.368870  -0.309738
    H   H10  0.490061  0.415795  0.296950  0.164220
    C   C34  0.503535  0.271332  0.368937  0.130974
    C   C35  0.512851  0.221566  0.456611  -0.239826
    C   C36  0.507685  0.275838  0.546810  0.179416
    C   C37  0.494951  0.383271  0.548621  -0.279535
    H   H11  0.485751  0.418587  0.621479  0.155602
    C   C38  0.493350  0.441216  0.459262  0.180072
    H   H12  0.477250  0.875543  0.476171  0.146056
    H   H13  0.517112  0.134641  0.453306  0.162397
    O   O17  0.243623  0.981730  0.186455  -0.404272
    H   H14  0.249676  0.062123  0.207898  0.320914
