data_DB0-m3_o11_o29_f0_pcu.sym.43_repeat
_audit_creation_date              2024-02-23
_audit_creation_method            'Materials Studio'
_symmetry_space_group_name_H-M    'P1'
_symmetry_Int_Tables_number       1
_symmetry_cell_setting            triclinic
loop_
_symmetry_equiv_pos_as_xyz
  x,y,z
_cell_length_a                    27.6410
_cell_length_b                    11.1387
_cell_length_c                    9.9361
_cell_angle_alpha                 89.9974
_cell_angle_beta                  89.9930
_cell_angle_gamma                 89.9936
loop_
_atom_site_label
_atom_site_type_symbol
_atom_site_fract_x
_atom_site_fract_y
_atom_site_fract_z
_atom_site_U_iso_or_equiv
_atom_site_adp_type
_atom_site_occupancy
O1     O     0.50201   0.32156   0.61042   0.00000  Uiso   1.00
O2     O     0.49913   0.32157   0.37810   0.00000  Uiso   1.00
C1     C     0.50047   0.26562   0.49448   0.00000  Uiso   1.00
O3     O     0.43055   0.50068   0.62045   0.00000  Uiso   1.00
O4     O     0.42756   0.50246   0.38824   0.00000  Uiso   1.00
C2     C     0.40642   0.50170   0.50648   0.00000  Uiso   1.00
Zn1    Zn    0.50322   0.50026   0.64754   0.00000  Uiso   1.00
Zn2    Zn    0.49886   0.50060   0.34130   0.00000  Uiso   1.00
O5     O     0.50236   0.67905   0.61045   0.00000  Uiso   1.00
O6     O     0.50002   0.67955   0.37826   0.00000  Uiso   1.00
O7     O     0.57454   0.49916   0.60037   0.00000  Uiso   1.00
O8     O     0.57153   0.50005   0.36851   0.00000  Uiso   1.00
C3     C     0.50125   0.73528   0.49467   0.00000  Uiso   1.00
C4     C     0.59570   0.49883   0.48219   0.00000  Uiso   1.00
C5     C     0.17719   0.40734   0.55931   0.00000  Uiso   1.00
O9     O     0.20192   0.31127   0.60360   0.00000  Uiso   1.00
N1     N     0.20144   0.50464   0.51549   0.00000  Uiso   1.00
C6     C     0.17726   0.60069   0.46798   0.00000  Uiso   1.00
C7     C     0.27759   0.51404   0.39406   0.00000  Uiso   1.00
C8     C     0.32740   0.51284   0.39175   0.00000  Uiso   1.00
C9     C     0.32876   0.49354   0.63113   0.00000  Uiso   1.00
C10    C     0.27881   0.49379   0.63301   0.00000  Uiso   1.00
C11    C     0.25307   0.50439   0.51446   0.00000  Uiso   1.00
C12    C     0.10170   0.50136   0.50574   0.00000  Uiso   1.00
C13    C     0.12713   0.40464   0.55508   0.00000  Uiso   1.00
C14    C     0.10250   0.30445   0.59725   0.00000  Uiso   1.00
C15    C     0.12724   0.60014   0.46251   0.00000  Uiso   1.00
C16    C     0.35335   0.50279   0.51027   0.00000  Uiso   1.00
H1     H     0.34814   0.48547   0.72513   0.00000  Uiso   1.00
H2     H     0.25993   0.48691   0.72801   0.00000  Uiso   1.00
H3     H     0.12143   0.22616   0.63396   0.00000  Uiso   1.00
C17    C     0.64878   0.49675   0.47780   0.00000  Uiso   1.00
C18    C     0.97559   0.39981   0.54528   0.00000  Uiso   1.00
C19    C     0.97616   0.59149   0.43223   0.00000  Uiso   1.00
C20    C     0.95095   0.49460   0.48547   0.00000  Uiso   1.00
C21    C     0.94857   0.30782   0.60372   0.00000  Uiso   1.00
C22    C     0.89898   0.30789   0.59820   0.00000  Uiso   1.00
C23    C     0.87478   0.39975   0.53528   0.00000  Uiso   1.00
C24    C     0.90062   0.49270   0.47924   0.00000  Uiso   1.00
C25    C     0.87548   0.58402   0.41745   0.00000  Uiso   1.00
C26    C     0.82541   0.58216   0.41402   0.00000  Uiso   1.00
N2     N     0.80080   0.49072   0.47058   0.00000  Uiso   1.00
C27    C     0.82475   0.39964   0.53003   0.00000  Uiso   1.00
C28    C     0.72474   0.48993   0.59341   0.00000  Uiso   1.00
C29    C     0.67494   0.49177   0.59625   0.00000  Uiso   1.00
C30    C     0.67318   0.49917   0.35622   0.00000  Uiso   1.00
C31    C     0.72312   0.49703   0.35359   0.00000  Uiso   1.00
C32    C     0.74912   0.49239   0.47227   0.00000  Uiso   1.00
O10    O     0.79980   0.30736   0.58274   0.00000  Uiso   1.00
C33    C     0.02631   0.39955   0.54641   0.00000  Uiso   1.00
C34    C     0.05138   0.49914   0.49919   0.00000  Uiso   1.00
C35    C     0.02661   0.59642   0.44516   0.00000  Uiso   1.00
C36    C     0.05289   0.30148   0.59277   0.00000  Uiso   1.00
H4     H     0.65697   0.48910   0.69259   0.00000  Uiso   1.00
H5     H     0.74459   0.48774   0.68713   0.00000  Uiso   1.00
H6     H     0.87972   0.23472   0.64534   0.00000  Uiso   1.00
H7     H     0.96416   0.23449   0.65887   0.00000  Uiso   1.00
H8     H     0.03695   0.21804   0.62376   0.00000  Uiso   1.00
O11    O     0.20202   0.69795   0.42722   0.00000  Uiso   1.00
C37    C     0.10270   0.69850   0.41480   0.00000  Uiso   1.00
H9     H     0.34554   0.52019   0.29577   0.00000  Uiso   1.00
H10    H     0.25780   0.52107   0.30054   0.00000  Uiso   1.00
H11    H     0.12164   0.77844   0.38296   0.00000  Uiso   1.00
C38    C     0.95003   0.68085   0.36603   0.00000  Uiso   1.00
C39    C     0.90047   0.67716   0.35948   0.00000  Uiso   1.00
O12    O     0.80107   0.67390   0.35803   0.00000  Uiso   1.00
C40    C     0.05316   0.69716   0.40660   0.00000  Uiso   1.00
H12    H     0.96647   0.75496   0.31418   0.00000  Uiso   1.00
H13    H     0.65365   0.50260   0.26209   0.00000  Uiso   1.00
H14    H     0.88187   0.74886   0.30766   0.00000  Uiso   1.00
H15    H     0.74174   0.49780   0.25791   0.00000  Uiso   1.00
H16    H     0.03708   0.77935   0.37209   0.00000  Uiso   1.00
C41    C     0.49959   0.93384   0.38705   0.00000  Uiso   1.00
C42    C     0.50138   0.86677   0.49887   0.00000  Uiso   1.00
H17    H     0.49816   0.88976   0.28994   0.00000  Uiso   1.00
H18    H     0.50302   0.90613   0.59792   0.00000  Uiso   1.00
C43    C     0.49959   0.06697   0.38688   0.00000  Uiso   1.00
C44    C     0.50027   0.13414   0.49867   0.00000  Uiso   1.00
H19    H     0.49895   0.11095   0.28964   0.00000  Uiso   1.00
H20    H     0.50077   0.09483   0.59784   0.00000  Uiso   1.00
C45    C     0.53254   0.56797   0.92872   0.00000  Uiso   1.00
N3     N     0.50729   0.50098   0.84885   0.00000  Uiso   1.00
H21    H     0.48953   0.43064   0.89363   0.00000  Uiso   1.00
C46    C     0.53135   0.55048   0.07700   0.00000  Uiso   1.00
N4     N     0.49572   0.50222   0.14012   0.00000  Uiso   1.00
H22    H     0.56094   0.58564   0.13594   0.00000  Uiso   1.00
H23    H     0.46477   0.48396   0.08675   0.00000  Uiso   1.00
C47    C     0.56594   0.66263   0.87423   0.00000  Uiso   1.00
C48    C     0.54873   0.78646   0.91643   0.00000  Uiso   1.00
C49    C     0.61761   0.64248   0.92140   0.00000  Uiso   1.00
H24    H     0.56666   0.65928   0.76413   0.00000  Uiso   1.00
H25    H     0.54956   0.79585   0.02749   0.00000  Uiso   1.00
H26    H     0.51117   0.80033   0.88040   0.00000  Uiso   1.00
H27    H     0.57256   0.85553   0.87094   0.00000  Uiso   1.00
H28    H     0.62309   0.67858   0.02420   0.00000  Uiso   1.00
H29    H     0.64270   0.68967   0.85222   0.00000  Uiso   1.00
H30    H     0.62590   0.54509   0.92022   0.00000  Uiso   1.00
