# generated using pymatgen
data_Fe2H19C44ClO16
_symmetry_space_group_name_H-M   'P 1'
_cell_length_a   13.50221300
_cell_length_b   16.14788100
_cell_length_c   13.16098600
_cell_angle_alpha   87.36321900
_cell_angle_beta   84.84854300
_cell_angle_gamma   66.68749100
_symmetry_Int_Tables_number   1
_chemical_formula_structural   Fe2H19C44ClO16
_chemical_formula_sum   'Fe2 H19 C44 Cl1 O16'
_cell_volume   2624.43415561
_cell_formula_units_Z   1
loop_
 _symmetry_equiv_pos_site_id
 _symmetry_equiv_pos_as_xyz
  1  'x, y, z'
loop_
 _atom_site_type_symbol
 _atom_site_label
 _atom_site_symmetry_multiplicity
 _atom_site_fract_x
 _atom_site_fract_y
 _atom_site_fract_z
 _atom_site_occupancy
  Fe  Fe1  1  0.49578500  0.03428900  0.22838600  1
  Fe  Fe2  1  0.48977600  0.03563500  0.78185500  1
  H  H1  1  0.05745800  0.93630000  0.16105800  1
  H  H2  1  0.10039100  0.05340100  0.87164900  1
  H  H3  1  0.99693600  0.98960800  0.82636100  1
  H  H4  1  0.82204100  0.00272800  0.78532100  1
  H  H5  1  0.88578500  0.01795000  0.14327100  1
  H  H6  1  0.41649100  0.14207000  0.49323700  1
  H  H7  1  0.16630800  0.34172300  0.34277400  1
  H  H8  1  0.17764500  0.35817500  0.66564300  1
  H  H9  1  0.12258700  0.51217900  0.61140500  1
  H  H10  1  0.96463000  0.65223500  0.61220500  1
  H  H11  1  0.82744800  0.54425200  0.39917600  1
  H  H12  1  0.98516400  0.40341300  0.39901100  1
  H  H13  1  0.77459500  0.70395000  0.34768400  1
  H  H14  1  0.53923800  0.91753800  0.52571400  1
  H  H15  1  0.78235500  0.70597000  0.67209100  1
  H  H16  1  0.37602700  0.75823600  0.37440500  1
  H  H17  1  0.27883600  0.85853900  0.51749600  1
  H  H18  1  0.14149500  0.00962400  0.48425600  1
  H  H19  1  0.10296900  0.06114100  0.30802800  1
  C  C1  1  0.19361500  0.96953900  0.13740100  1
  C  C2  1  0.10046300  0.96559000  0.10790900  1
  C  C3  1  0.06238000  0.99944400  0.01452500  1
  C  C4  1  0.12681900  0.02811200  0.94589500  1
  C  C5  1  0.22468700  0.02728400  0.97143500  1
  C  C6  1  0.25383300  0.00534900  0.07166700  1
  C  C7  1  0.93545400  0.99959200  0.88823200  1
  C  C8  1  0.83560400  0.00624400  0.86441100  1
  C  C9  1  0.75548500  0.01171500  0.93962600  1
  C  C10  1  0.77494700  0.01300400  0.04164100  1
  C  C11  1  0.87421000  0.01083700  0.06466000  1
  C  C12  1  0.95594200  0.00312400  0.98866600  1
  C  C13  1  0.69319400  0.01794000  0.12636900  1
  C  C14  1  0.60940800  0.86990500  0.33511000  1
  C  C15  1  0.33785500  0.02903200  0.11160300  1
  C  C16  1  0.33227100  0.18042500  0.32208100  1
  C  C17  1  0.62161200  0.86742700  0.70012900  1
  C  C18  1  0.65503100  0.01148600  0.90639400  1
  C  C19  1  0.35214000  0.19870500  0.68313800  1
  C  C20  1  0.29811300  0.04170000  0.88803600  1
  C  C21  1  0.29719400  0.23919900  0.41031000  1
  C  C22  1  0.20476800  0.31697100  0.41280300  1
  C  C23  1  0.16334000  0.36253100  0.50382800  1
  C  C24  1  0.21280200  0.32637200  0.59326000  1
  C  C25  1  0.30462000  0.24699900  0.59046600  1
  C  C26  1  0.34766800  0.20585000  0.49792600  1
  C  C27  1  0.05757400  0.51772000  0.56572500  1
  C  C28  1  0.96752500  0.59761800  0.56596300  1
  C  C29  1  0.88400900  0.60840600  0.50602900  1
  C  C30  1  0.89251000  0.53816900  0.44509200  1
  C  C31  1  0.98249100  0.45802300  0.44510800  1
  C  C32  1  0.06585300  0.44707100  0.50551400  1
  C  C33  1  0.73856400  0.73309300  0.42109400  1
  C  C34  1  0.65053800  0.81521100  0.42622500  1
  C  C35  1  0.60645800  0.85278600  0.52024800  1
  C  C36  1  0.65402300  0.81365400  0.60780400  1
  C  C37  1  0.74483800  0.73467600  0.60255900  1
  C  C38  1  0.78627900  0.69258800  0.50978000  1
  C  C39  1  0.22080600  0.93995200  0.24176700  1
  C  C40  1  0.29569700  0.85405300  0.26070500  1
  C  C41  1  0.31695200  0.82519500  0.35969400  1
  C  C42  1  0.26226700  0.88131900  0.43994300  1
  C  C43  1  0.18536100  0.96601700  0.42130300  1
  C  C44  1  0.16399600  0.99497400  0.32238800  1
  Cl  Cl1  1  0.36292200  0.78082900  0.15961400  1
  O  O1  1  0.59070700  0.04502300  0.10941700  1
  O  O2  1  0.63399300  0.83520100  0.24346700  1
  O  O3  1  0.72298000  0.99485900  0.21920200  1
  O  O4  1  0.55312500  0.95677400  0.34810200  1
  O  O5  1  0.40166100  0.97709500  0.17883500  1
  O  O6  1  0.34089300  0.10803200  0.08861000  1
  O  O7  1  0.42982500  0.16178000  0.27808700  1
  O  O8  1  0.28767700  0.12230400  0.31571800  1
  O  O9  1  0.51802600  0.91529800  0.72248000  1
  O  O10  1  0.69412900  0.89017400  0.73683800  1
  O  O11  1  0.61290500  0.06114200  0.82705200  1
  O  O12  1  0.61877900  0.95080600  0.94288100  1
  O  O13  1  0.27256200  0.04783600  0.79330200  1
  O  O14  1  0.44123700  0.12561200  0.67027300  1
  O  O15  1  0.39501200  0.03548600  0.90570700  1
  O  O16  1  0.30000600  0.21985900  0.77342500  1
