# Generated by REPEAT Assigner based on pymatgen
data_DB0-m3_o1470_o158_f0_fsc.sym.31
_audit_creation_date              2022-05-24
_audit_creation_method            REPEAT_Assigner
_cell_length_a                    13.439897
_cell_length_b                    8.569185
_cell_length_c                    10.832578
_cell_angle_alpha                 90.000000
_cell_angle_beta                  97.816814
_cell_angle_gamma                 90.000000
_cell_volume                      1235.984319
_symmetry_space_group_name_H-M    P1
_symmetry_Int_Tables_number       1
loop_
    _symmetry_equiv_pos_site_id
    _symmetry_equiv_pos_as_xyz
    1  x,y,z
loop_
    _atom_site_type_symbol
    _atom_site_label
    _atom_site_fract_x
    _atom_site_fract_y
    _atom_site_fract_z
    _atom_type_partial_charge
    C   C1   0.027523  0.003161  0.686953  -0.119669
    C   C2   0.972477  0.003161  0.313047  -0.119663
    C   C3   0.015024  0.143048  0.744628  -0.127624
    C   C4   0.985939  0.864396  0.254273  -0.223408
    C   C5   0.984976  0.143048  0.255372  -0.127616
    C   C6   0.014061  0.864396  0.745727  -0.223411
    C   C7   0.006235  0.146081  0.869819  0.018720
    C   C8   0.001666  0.866648  0.130527  -0.000696
    C   C9   0.993765  0.146081  0.130181  0.018712
    C   C10  0.998334  0.866648  0.869473  -0.000695
    C   C11  0.999922  0.301002  0.929786  -0.033533
    C   C12  0.027120  0.721989  0.065744  0.089579
    C   C13  0.000078  0.301002  0.070213  -0.033507
    C   C14  0.972881  0.721989  0.934256  0.089609
    C   C15  0.002551  0.007104  0.933442  -0.020092
    C   C16  0.997449  0.007104  0.066558  -0.020094
    H   H1   0.065363  0.370773  0.909967  0.078030
    H   H2   0.005069  0.617553  0.115016  -0.075183
    H   H3   0.934637  0.370773  0.090033  0.078023
    H   H4   0.994931  0.617553  0.884984  -0.075189
    H   H5   0.069729  0.359124  0.114104  0.035462
    H   H6   0.890809  0.719246  0.937714  0.004335
    H   H7   0.930271  0.359124  0.885895  0.035467
    H   H8   0.109192  0.719246  0.062285  0.004343
    H   H9   0.041235  0.002283  0.591639  0.128134
    H   H10  0.958764  0.002283  0.408361  0.128124
    O   O1   0.919640  0.336593  0.621489  -0.713659
    O   O2   0.080379  0.671999  0.379082  -0.741822
    O   O3   0.080361  0.336593  0.378511  -0.713658
    O   O4   0.919621  0.671999  0.620918  -0.741820
    O   O5   0.092571  0.339210  0.635865  -0.650837
    O   O6   0.907497  0.668250  0.363589  -0.780515
    O   O7   0.907429  0.339210  0.364135  -0.650836
    O   O8   0.092503  0.668250  0.636410  -0.780515
    C   C17  0.008978  0.285122  0.668963  0.821749
    C   C18  0.991328  0.722575  0.330616  1.013510
    C   C19  0.991022  0.285122  0.331037  0.821742
    C   C20  0.008672  0.722575  0.669383  1.013508
    Zn  Zn1  0.112122  0.503992  0.508639  1.004668
    Zn  Zn2  0.887878  0.503992  0.491360  1.004684
    C   C21  0.688461  0.489888  0.372589  -0.238407
    C   C22  0.311539  0.489888  0.627410  -0.238403
    N   N1   0.756026  0.503958  0.478437  0.193116
    N   N2   0.243974  0.503958  0.521562  0.193138
    C   C23  0.722750  0.517176  0.590177  -0.312125
    C   C24  0.277250  0.517176  0.409823  -0.312136
    C   C25  0.621633  0.520062  0.599351  0.174615
    C   C26  0.378367  0.520062  0.400648  0.174628
    C   C27  0.553405  0.501307  0.494905  -0.092990
    C   C28  0.446595  0.501307  0.505095  -0.093008
    C   C29  0.585763  0.483841  0.380886  0.211833
    C   C30  0.414237  0.483841  0.619114  0.211831
    C   C31  0.584865  0.547831  0.720749  -0.118941
    C   C32  0.415135  0.547830  0.279250  -0.118945
    C   C33  0.492550  0.448878  0.728301  -0.050118
    C   C34  0.507450  0.448877  0.271699  -0.050132
    H   H11  0.775697  0.527153  0.674111  0.207078
    H   H12  0.224303  0.527153  0.325889  0.207074
    H   H13  0.564467  0.672636  0.727568  0.051332
    H   H14  0.356012  0.517634  0.201257  0.060215
    H   H15  0.435533  0.672635  0.272432  0.051332
    H   H16  0.643988  0.517634  0.798743  0.060211
    H   H17  0.468006  0.470870  0.819868  0.079349
    H   H18  0.485717  0.324373  0.276202  0.059310
    H   H19  0.531995  0.470870  0.180132  0.079354
    H   H20  0.514283  0.324374  0.723798  0.059308
    C   C35  0.720564  0.479157  0.245621  0.349311
    O   O9   0.697067  0.331726  0.195386  -0.610903
    H   H21  0.800260  0.501668  0.243914  0.003672
    H   H22  0.681514  0.570186  0.184479  -0.019863
    H   H23  0.760224  0.294480  0.167892  0.346350
    C   C36  0.279436  0.479158  0.754379  0.349284
    O   O10  0.302933  0.331726  0.804613  -0.610900
    H   H24  0.199740  0.501668  0.756086  0.003677
    H   H25  0.318486  0.570187  0.815521  -0.019858
    H   H26  0.239776  0.294481  0.832109  0.346352
