# generated using pymatgen
data_Cu2H20C30(N2O9)3
_symmetry_space_group_name_H-M   'P 1'
_cell_length_a   11.09271500
_cell_length_b   15.66492900
_cell_length_c   17.11667900
_cell_angle_alpha   96.36302800
_cell_angle_beta   89.99656100
_cell_angle_gamma   92.84279800
_symmetry_Int_Tables_number   1
_chemical_formula_structural   Cu2H20C30(N2O9)3
_chemical_formula_sum   'Cu2 H20 C30 N6 O27'
_cell_volume   2952.30218740
_cell_formula_units_Z   1
loop_
 _symmetry_equiv_pos_site_id
 _symmetry_equiv_pos_as_xyz
  1  'x, y, z'
loop_
 _atom_site_type_symbol
 _atom_site_label
 _atom_site_symmetry_multiplicity
 _atom_site_fract_x
 _atom_site_fract_y
 _atom_site_fract_z
 _atom_site_occupancy
  Cu  Cu1  1  0.49247700  0.41562900  0.49425500  1
  Cu  Cu2  1  0.50351800  0.58728600  0.50193900  1
  H  H1  1  0.08934400  0.43923100  0.46297700  1
  H  H2  1  0.88753800  0.68022700  0.52519200  1
  H  H3  1  0.67705600  0.62047300  0.10564900  1
  H  H4  1  0.47394500  0.70481300  0.91409100  1
  H  H5  1  0.51962100  0.67344000  0.25820400  1
  H  H6  1  0.72109400  0.28244300  0.55360100  1
  H  H7  1  0.58637900  0.13184100  0.63799800  1
  H  H8  1  0.63448900  0.91091800  0.65980500  1
  H  H9  1  0.63102300  0.73369300  0.65639500  1
  H  H10  1  0.33598200  0.25475700  0.34662400  1
  H  H11  1  0.27918100  0.87875400  0.45017900  1
  H  H12  1  0.33800800  0.08711500  0.35152500  1
  H  H13  1  0.90084200  0.43893500  0.59441600  1
  H  H14  1  0.38321700  0.71412600  0.36138200  1
  H  H15  1  0.13148900  0.67812600  0.48854500  1
  H  H16  1  0.53307800  0.33739600  0.73274500  1
  H  H17  1  0.69243600  0.41753200  0.89044200  1
  H  H18  1  0.52942900  0.30152400  0.07906400  1
  H  H19  1  0.52421300  0.30391300  0.24479000  1
  H  H20  1  0.45821600  0.69941500  0.75062800  1
  C  C1  1  0.50482700  0.49095300  0.34660400  1
  C  C2  1  0.26601300  0.50104700  0.49419100  1
  C  C3  1  0.49331400  0.51201000  0.64943900  1
  C  C4  1  0.72997600  0.50198600  0.50208600  1
  C  C5  1  0.93628400  0.56757800  0.49693700  1
  C  C6  1  0.86195800  0.50021100  0.51013300  1
  C  C7  1  0.06881000  0.56861900  0.50793800  1
  C  C8  1  0.13347000  0.49925700  0.48777400  1
  C  C9  1  0.51006700  0.48594400  0.25958900  1
  C  C10  1  0.54495700  0.55798500  0.22259800  1
  C  C11  1  0.54665700  0.55432800  0.14151600  1
  C  C12  1  0.51230000  0.47811600  0.09561200  1
  C  C13  1  0.48280600  0.40603400  0.13219000  1
  C  C14  1  0.48149000  0.40929400  0.21296100  1
  C  C15  1  0.54843400  0.45921900  0.85509100  1
  C  C16  1  0.54392700  0.45362800  0.77412400  1
  C  C17  1  0.50050900  0.52891900  0.90013700  1
  C  C18  1  0.49452000  0.51769100  0.73620900  1
  C  C19  1  0.44912000  0.58777600  0.78136900  1
  C  C20  1  0.45240200  0.59288900  0.86239000  1
  C  C21  1  0.43462100  0.75514900  0.46390000  1
  C  C22  1  0.43585800  0.84372400  0.46721100  1
  C  C23  1  0.51870400  0.89376300  0.51602100  1
  C  C24  1  0.59547300  0.85224400  0.56060800  1
  C  C25  1  0.59026400  0.76370700  0.55683500  1
  C  C26  1  0.55039500  0.16001000  0.53689600  1
  C  C27  1  0.55820600  0.24802000  0.53478700  1
  C  C28  1  0.46425000  0.10993700  0.49096400  1
  C  C29  1  0.39694600  0.23926500  0.44611600  1
  C  C30  1  0.38692200  0.15112700  0.44659700  1
  N  N1  1  0.51035500  0.46946500  0.01224300  1
  N  N2  1  0.50074100  0.53841800  0.98359800  1
  N  N3  1  0.51198100  0.71581700  0.50755500  1
  N  N4  1  0.53099400  0.98499800  0.52160400  1
  N  N5  1  0.45078500  0.01885000  0.48676000  1
  N  N6  1  0.48391500  0.28697900  0.48865100  1
  O  O1  1  0.50216700  0.41980000  0.38073900  1
  O  O2  1  0.50258400  0.56686300  0.38727800  1
  O  O3  1  0.31822600  0.42742200  0.48888000  1
  O  O4  1  0.32749700  0.57492100  0.50143700  1
  O  O5  1  0.49316500  0.43590600  0.60892400  1
  O  O6  1  0.49485400  0.58312600  0.61546800  1
  O  O7  1  0.66852200  0.42805300  0.49530400  1
  O  O8  1  0.67780300  0.57563500  0.50686300  1
  O  O9  1  0.88902800  0.64090200  0.47578300  1
  O  O10  1  0.58855900  0.62581000  0.10873800  1
  O  O11  1  0.40546700  0.66171700  0.90595300  1
  O  O12  1  0.58370300  0.63319500  0.26537600  1
  O  O13  1  0.64386200  0.29534700  0.58033600  1
  O  O14  1  0.62707500  0.12578200  0.58631800  1
  O  O15  1  0.67753700  0.89941300  0.60934300  1
  O  O16  1  0.66642200  0.72513500  0.60318600  1
  O  O17  1  0.31796300  0.27739600  0.40138300  1
  O  O18  1  0.35583300  0.87869100  0.42049800  1
  O  O19  1  0.29907100  0.10395600  0.40260000  1
  O  O20  1  0.90673300  0.42861100  0.53644500  1
  O  O21  1  0.35344500  0.70749400  0.41494600  1
  O  O22  1  0.12630000  0.64564800  0.53496900  1
  O  O23  1  0.59459500  0.38536200  0.73218000  1
  O  O24  1  0.60647100  0.39704400  0.88835700  1
  O  O25  1  0.45223400  0.33024400  0.08757100  1
  O  O26  1  0.44931800  0.33587500  0.24551300  1
  O  O27  1  0.39648800  0.65124500  0.74676900  1
