# generated using pymatgen
data_CuH9C18(NO2)3
_symmetry_space_group_name_H-M   'P 1'
_cell_length_a   16.03342900
_cell_length_b   14.62670200
_cell_length_c   10.90084000
_cell_angle_alpha   90.00000000
_cell_angle_beta   89.98992300
_cell_angle_gamma   90.00000000
_symmetry_Int_Tables_number   1
_chemical_formula_structural   CuH9C18(NO2)3
_chemical_formula_sum   'Cu2 H18 C36 N6 O12'
_cell_volume   2556.42340349
_cell_formula_units_Z   2
loop_
 _symmetry_equiv_pos_site_id
 _symmetry_equiv_pos_as_xyz
  1  'x, y, z'
loop_
 _atom_site_type_symbol
 _atom_site_label
 _atom_site_symmetry_multiplicity
 _atom_site_fract_x
 _atom_site_fract_y
 _atom_site_fract_z
 _atom_site_occupancy
  Cu  Cu1  1  0.50004200  0.59109500  0.49586700  1
  Cu  Cu2  1  0.50000400  0.40853100  0.49636200  1
  H  H1  1  0.49879000  0.35689900  0.10698800  1
  H  H2  1  0.49040600  0.35693100  0.88576500  1
  H  H3  1  0.58218700  0.66617800  0.18844600  1
  H  H4  1  0.42977900  0.67238200  0.80254200  1
  H  H5  1  0.07666400  0.64529500  0.49200300  1
  H  H6  1  0.92335500  0.64533700  0.50044800  1
  H  H7  1  0.92327200  0.35402200  0.50009500  1
  H  H8  1  0.07658600  0.35398000  0.49165100  1
  H  H9  1  0.62828000  0.08626200  0.53979700  1
  H  H10  1  0.37155700  0.08706100  0.45495400  1
  H  H11  1  0.48703800  0.92097000  0.20847600  1
  H  H12  1  0.54188400  0.96724500  0.09218200  1
  H  H13  1  0.39377600  0.90876500  0.76440000  1
  H  H14  1  0.34471700  0.84351600  0.86981800  1
  H  H15  1  0.76860500  0.90920400  0.61700800  1
  H  H16  1  0.69575800  0.96459100  0.70044800  1
  H  H17  1  0.26318900  0.92112700  0.31090000  1
  H  H18  1  0.22858100  0.95594600  0.44961600  1
  C  C1  1  0.34003200  0.49950500  0.48611300  1
  C  C2  1  0.65990600  0.50010400  0.50598800  1
  C  C3  1  0.50954300  0.50037900  0.25947300  1
  C  C4  1  0.49030200  0.50059000  0.73258500  1
  C  C5  1  0.54571800  0.66573800  0.10560200  1
  C  C6  1  0.46616400  0.66878800  0.88530300  1
  C  C7  1  0.53177700  0.74880000  0.04913400  1
  C  C8  1  0.48731800  0.75046400  0.94017800  1
  C  C9  1  0.48964000  0.58515300  0.93541200  1
  C  C10  1  0.51594600  0.58424300  0.05620300  1
  C  C11  1  0.51244000  0.50234900  0.12308500  1
  C  C12  1  0.48726700  0.50304100  0.86895600  1
  C  C13  1  0.50048400  0.42163400  0.05932100  1
  C  C14  1  0.49333500  0.42174000  0.93312000  1
  C  C15  1  0.95702100  0.58131800  0.49863100  1
  C  C16  1  0.04296300  0.58129500  0.49366600  1
  C  C17  1  0.91402500  0.49968300  0.50111600  1
  C  C18  1  0.08591300  0.49963700  0.49098300  1
  C  C19  1  0.95697400  0.41802200  0.49843300  1
  C  C20  1  0.04291800  0.41799900  0.49346800  1
  C  C21  1  0.82455500  0.49973200  0.50478500  1
  C  C22  1  0.17538300  0.49961500  0.48731400  1
  C  C23  1  0.25053200  0.49958300  0.48565700  1
  C  C24  1  0.74940500  0.49985000  0.50644100  1
  C  C25  1  0.57321700  0.95314000  0.52109400  1
  C  C26  1  0.42592600  0.95341500  0.47334900  1
  C  C27  1  0.49958500  0.90540400  0.49690000  1
  C  C28  1  0.42742700  0.04797800  0.47263700  1
  C  C29  1  0.57210100  0.04765700  0.52222500  1
  C  C30  1  0.49987000  0.09458300  0.49735300  1
  C  C31  1  0.49978600  0.80697000  0.49636600  1
  C  C32  1  0.50008000  0.19269300  0.49695200  1
  C  C33  1  0.55785400  0.83225200  0.11467800  1
  C  C34  1  0.46956100  0.83533000  0.87249100  1
  C  C35  1  0.65335300  0.90652600  0.54578800  1
  C  C36  1  0.34552100  0.90733700  0.44810600  1
  N  N1  1  0.50018100  0.27179500  0.49660600  1
  N  N2  1  0.49994700  0.72783300  0.49592000  1
  N  N3  1  0.50548900  0.91115900  0.11762800  1
  N  N4  1  0.39333600  0.84451400  0.80609700  1
  N  N5  1  0.71748900  0.95322800  0.61143300  1
  N  N6  1  0.27967800  0.95678300  0.39024300  1
  O  O1  1  0.37897500  0.57807900  0.48679800  1
  O  O2  1  0.62129800  0.57856200  0.49641000  1
  O  O3  1  0.37881600  0.42090000  0.48977400  1
  O  O4  1  0.62078900  0.42169500  0.51135400  1
  O  O5  1  0.50588000  0.57812700  0.31808000  1
  O  O6  1  0.49946900  0.57770400  0.67380500  1
  O  O7  1  0.50471800  0.42160000  0.31776000  1
  O  O8  1  0.48952800  0.42158700  0.67443700  1
  O  O9  1  0.62088700  0.83106200  0.17723300  1
  O  O10  1  0.52224700  0.89516600  0.86464200  1
  O  O11  1  0.66735200  0.83001800  0.50645900  1
  O  O12  1  0.33301600  0.82854000  0.47955300  1
