# generated using pymatgen
data_Zn3H19C38ClO12
_symmetry_space_group_name_H-M   'P 1'
_cell_length_a   30.95091600
_cell_length_b   31.02834200
_cell_length_c   22.35570500
_cell_angle_alpha   90.00000000
_cell_angle_beta   46.18571500
_cell_angle_gamma   90.00000000
_symmetry_Int_Tables_number   1
_chemical_formula_structural   Zn3H19C38ClO12
_chemical_formula_sum   'Zn12 H76 C152 Cl4 O48'
_cell_volume   15492.07291001
_cell_formula_units_Z   4
loop_
 _symmetry_equiv_pos_site_id
 _symmetry_equiv_pos_as_xyz
  1  'x, y, z'
loop_
 _atom_site_type_symbol
 _atom_site_label
 _atom_site_symmetry_multiplicity
 _atom_site_fract_x
 _atom_site_fract_y
 _atom_site_fract_z
 _atom_site_occupancy
  Zn  Zn1  1  0.22028400  0.28132300  0.49606700  1
  Zn  Zn2  1  0.77971800  0.28132800  0.50393600  1
  Zn  Zn3  1  0.72028400  0.78132300  0.49606700  1
  Zn  Zn4  1  0.27971800  0.78132900  0.50393600  1
  Zn  Zn5  1  0.28549300  0.21211600  0.50337300  1
  Zn  Zn6  1  0.71452200  0.21212000  0.49660700  1
  Zn  Zn7  1  0.78549300  0.71211600  0.50337200  1
  Zn  Zn8  1  0.21452300  0.71212000  0.49660600  1
  Zn  Zn9  1  0.04479900  0.99979200  0.40635500  1
  Zn  Zn10  1  0.95520300  0.99979100  0.59363900  1
  Zn  Zn11  1  0.54479900  0.49979200  0.40635500  1
  Zn  Zn12  1  0.45520300  0.49979100  0.59363900  1
  H  H1  1  0.46408800  0.17438600  0.07617800  1
  H  H2  1  0.53590500  0.17438400  0.92382000  1
  H  H3  1  0.96408800  0.67438600  0.07617800  1
  H  H4  1  0.03590400  0.67438400  0.92382000  1
  H  H5  1  0.53586300  0.31167900  0.92389100  1
  H  H6  1  0.46413600  0.31168200  0.07609100  1
  H  H7  1  0.03586300  0.81167900  0.92389100  1
  H  H8  1  0.96413600  0.81168200  0.07609000  1
  H  H9  1  0.15174200  0.11136100  0.58160500  1
  H  H10  1  0.84827000  0.11136800  0.41838000  1
  H  H11  1  0.65174300  0.61136100  0.58160500  1
  H  H12  1  0.34827000  0.61136800  0.41838000  1
  H  H13  1  0.09307900  0.05725600  0.58311400  1
  H  H14  1  0.90692700  0.05726000  0.41687600  1
  H  H15  1  0.59308000  0.55725600  0.58311400  1
  H  H16  1  0.40692800  0.55726100  0.41687600  1
  H  H17  1  0.14650500  0.13524800  0.32982500  1
  H  H18  1  0.85349200  0.13524700  0.67017600  1
  H  H19  1  0.64650500  0.63524800  0.32982500  1
  H  H20  1  0.35349200  0.63524700  0.67017600  1
  H  H21  1  0.07341500  0.16187200  0.42057700  1
  H  H22  1  0.92658500  0.16187000  0.57942900  1
  H  H23  1  0.57341500  0.66187200  0.42057700  1
  H  H24  1  0.42658500  0.66187000  0.57942900  1
  H  H25  1  0.20095300  0.19029600  0.33304400  1
  H  H26  1  0.79904900  0.19029800  0.66695200  1
  H  H27  1  0.70095300  0.69029600  0.33304400  1
  H  H28  1  0.29904900  0.69029800  0.66695200  1
  H  H29  1  0.12784600  0.21713600  0.42313000  1
  H  H30  1  0.87215800  0.21713700  0.57687100  1
  H  H31  1  0.62784600  0.71713600  0.42313000  1
  H  H32  1  0.37215800  0.71713700  0.57687100  1
  H  H33  1  0.10687200  0.24972700  0.92358300  1
  H  H34  1  0.89316200  0.25077500  0.07640200  1
  H  H35  1  0.60687300  0.74969300  0.92358200  1
  H  H36  1  0.39316300  0.75081000  0.07640200  1
  H  H37  1  0.03112900  0.24988000  0.07572500  1
  H  H38  1  0.96890500  0.25087900  0.92426300  1
  H  H39  1  0.53113000  0.74984700  0.07572500  1
  H  H40  1  0.46890700  0.75091100  0.92426200  1
  H  H41  1  0.39032200  0.36886200  0.59866100  1
  H  H42  1  0.60965100  0.36885100  0.40136500  1
  H  H43  1  0.89032100  0.86886200  0.59866200  1
  H  H44  1  0.10965000  0.86885100  0.40136600  1
  H  H45  1  0.38235000  0.46362300  0.41300000  1
  H  H46  1  0.61768700  0.46363500  0.58694300  1
  H  H47  1  0.88235100  0.96362300  0.41299900  1
  H  H48  1  0.11768800  0.96363600  0.58694100  1
  H  H49  1  0.45398500  0.43298500  0.33042100  1
  H  H50  1  0.54605100  0.43300300  0.66954200  1
  H  H51  1  0.95398600  0.93298500  0.33042000  1
  H  H52  1  0.04605200  0.93300400  0.66954100  1
  H  H53  1  0.32621500  0.40752000  0.41538200  1
  H  H54  1  0.67382500  0.40753400  0.58455800  1
  H  H55  1  0.82621600  0.90752000  0.41538000  1
  H  H56  1  0.17382700  0.90753500  0.58455600  1
  H  H57  1  0.39781600  0.37671500  0.33338300  1
  H  H58  1  0.60222200  0.37673500  0.66657700  1
  H  H59  1  0.89781800  0.87671400  0.33338200  1
  H  H60  1  0.10222400  0.87673500  0.66657600  1
  H  H61  1  0.20553000  0.25898100  0.79180700  1
  H  H62  1  0.27772800  0.20493100  0.75790500  1
  H  H63  1  0.38480200  0.21329300  0.63227600  1
  H  H64  1  0.41924400  0.27516900  0.53986900  1
  H  H65  1  0.79438300  0.25886000  0.20833300  1
  H  H66  1  0.72212800  0.20484900  0.24230800  1
  H  H67  1  0.61505900  0.21328600  0.36790300  1
  H  H68  1  0.58068300  0.27519700  0.46021200  1
  H  H69  1  0.70552700  0.75898500  0.79181200  1
  H  H70  1  0.77772300  0.70493400  0.75791200  1
  H  H71  1  0.88479800  0.71329400  0.63228200  1
  H  H72  1  0.91924100  0.77516800  0.53987200  1
  H  H73  1  0.29438100  0.75885600  0.20833700  1
  H  H74  1  0.22212300  0.70484600  0.24231500  1
  H  H75  1  0.11505500  0.71328600  0.36790900  1
  H  H76  1  0.08068100  0.77519800  0.46021400  1
  C  C1  1  0.19462900  0.18673500  0.49755500  1
  C  C2  1  0.80538100  0.18674100  0.50243500  1
  C  C3  1  0.69462900  0.68673500  0.49755400  1
  C  C4  1  0.30538100  0.68674100  0.50243500  1
  C  C5  1  0.33589700  0.24587500  0.33769500  1
  C  C6  1  0.66410400  0.24587100  0.66229500  1
  C  C7  1  0.83589700  0.74587500  0.33769500  1
  C  C8  1  0.16410500  0.74587100  0.66229500  1
  C  C9  1  0.31093700  0.30679000  0.50239100  1
  C  C10  1  0.68906900  0.30679300  0.49760100  1
  C  C11  1  0.81093700  0.80679000  0.50239100  1
  C  C12  1  0.18907000  0.80679300  0.49760100  1
  C  C13  1  0.16977200  0.24748500  0.66179900  1
  C  C14  1  0.83024400  0.24749900  0.33819100  1
  C  C15  1  0.66977200  0.74748500  0.66179900  1
  C  C16  1  0.33024500  0.74749900  0.33819100  1
  C  C17  1  0.52005400  0.20454300  0.95730800  1
  C  C18  1  0.47993900  0.20454500  0.04268700  1
  C  C19  1  0.02005400  0.70454300  0.95730800  1
  C  C20  1  0.97993900  0.70454500  0.04268700  1
  C  C21  1  0.54002000  0.24304900  0.91468000  1
  C  C22  1  0.45997500  0.24305200  0.08531100  1
  C  C23  1  0.04002000  0.74304900  0.91467900  1
  C  C24  1  0.95997500  0.74305200  0.08531100  1
  C  C25  1  0.52002800  0.28151200  0.95735300  1
  C  C26  1  0.47996900  0.28151400  0.04263300  1
  C  C27  1  0.02002800  0.78151200  0.95735300  1
  C  C28  1  0.97996900  0.78151400  0.04263200  1
  C  C29  1  0.58261100  0.24330200  0.82581700  1
  C  C30  1  0.41738500  0.24330800  0.17417300  1
  C  C31  1  0.08261100  0.74330200  0.82581700  1
  C  C32  1  0.91738500  0.74330800  0.17417300  1
  C  C33  1  0.38080300  0.24414200  0.24883000  1
  C  C34  1  0.61919400  0.24413600  0.75116100  1
  C  C35  1  0.88080300  0.74414300  0.24882900  1
  C  C36  1  0.11919400  0.74413600  0.75116000  1
  C  C37  1  0.14738700  0.15772200  0.45102600  1
  C  C38  1  0.85261900  0.15772500  0.54896900  1
  C  C39  1  0.64738700  0.65772200  0.45102500  1
  C  C40  1  0.35261900  0.65772500  0.54896900  1
  C  C41  1  0.16142900  0.15360100  0.49701400  1
  C  C42  1  0.83858000  0.15360600  0.50297600  1
  C  C43  1  0.66142900  0.65360100  0.49701400  1
  C  C44  1  0.33858100  0.65360600  0.50297600  1
  C  C45  1  0.14236800  0.11626800  0.54365100  1
  C  C46  1  0.85764200  0.11627300  0.45633800  1
  C  C47  1  0.64236800  0.61626700  0.54365000  1
  C  C48  1  0.35764200  0.61627400  0.45633800  1
  C  C49  1  0.10882700  0.08564400  0.54481600  1
  C  C50  1  0.89118000  0.08564800  0.45517600  1
  C  C51  1  0.60882700  0.58564400  0.54481600  1
  C  C52  1  0.39118000  0.58564800  0.45517500  1
  C  C53  1  0.09670700  0.09086600  0.49598400  1
  C  C54  1  0.90329600  0.09086800  0.50401200  1
  C  C55  1  0.59670800  0.59086600  0.49598400  1
  C  C56  1  0.40329600  0.59086800  0.50401100  1
  C  C57  1  0.11820800  0.12748500  0.44877800  1
  C  C58  1  0.88179500  0.12748600  0.55121900  1
  C  C59  1  0.61820800  0.62748500  0.44877800  1
  C  C60  1  0.38179500  0.62748700  0.55121900  1
  C  C61  1  0.11886300  0.15146500  0.39083300  1
  C  C62  1  0.88113700  0.15146400  0.60916900  1
  C  C63  1  0.61886300  0.65146500  0.39083300  1
  C  C64  1  0.38113700  0.65146400  0.60916900  1
  C  C65  1  0.15370300  0.18688700  0.39282100  1
  C  C66  1  0.84630000  0.18688800  0.60717700  1
  C  C67  1  0.65370300  0.68688700  0.39282100  1
  C  C68  1  0.34630000  0.68688900  0.60717700  1
  C  C69  1  0.01743100  0.25026700  0.04248600  1
  C  C70  1  0.98260600  0.25082400  0.95750200  1
  C  C71  1  0.51743200  0.75024900  0.04248500  1
  C  C72  1  0.48260700  0.75084200  0.95750200  1
  C  C73  1  0.95744800  0.25050600  0.08554000  1
  C  C74  1  0.04258700  0.25048500  0.91444800  1
  C  C75  1  0.45744900  0.75050700  0.08554000  1
  C  C76  1  0.54258800  0.75048400  0.91444800  1
  C  C77  1  0.94008100  0.25079600  0.04296700  1
  C  C78  1  0.05995500  0.25021600  0.95702100  1
  C  C79  1  0.44008300  0.75081500  0.04296600  1
  C  C80  1  0.55995600  0.75019700  0.95702100  1
  C  C81  1  0.91317300  0.24982200  0.17453700  1
  C  C82  1  0.08685300  0.24979900  0.82545300  1
  C  C83  1  0.41317400  0.74982300  0.17453700  1
  C  C84  1  0.58685400  0.74979800  0.82545200  1
  C  C85  1  0.12431700  0.24892200  0.75074300  1
  C  C86  1  0.87570300  0.24894100  0.24924700  1
  C  C87  1  0.62431800  0.74892100  0.75074300  1
  C  C88  1  0.37570400  0.74894200  0.24924700  1
  C  C89  1  0.36443700  0.37602900  0.45613100  1
  C  C90  1  0.63558500  0.37603800  0.54384000  1
  C  C91  1  0.86443700  0.87602900  0.45613000  1
  C  C92  1  0.13558600  0.87603800  0.54383900  1
  C  C93  1  0.34275400  0.34022400  0.50551800  1
  C  C94  1  0.65725400  0.34022700  0.49446900  1
  C  C95  1  0.84275400  0.84022300  0.50551800  1
  C  C96  1  0.15725400  0.84022700  0.49446900  1
  C  C97  1  0.35270300  0.33794300  0.55760100  1
  C  C98  1  0.64728800  0.33793900  0.44240500  1
  C  C99  1  0.85270300  0.83794300  0.55760100  1
  C  C100  1  0.14728800  0.83793900  0.44240600  1
  C  C101  1  0.38312100  0.37105300  0.55784800  1
  C  C102  1  0.61686800  0.37104800  0.44215900  1
  C  C103  1  0.88312100  0.87105300  0.55784800  1
  C  C104  1  0.11686800  0.87104800  0.44215900  1
  C  C105  1  0.40550400  0.40598000  0.50487800  1
  C  C106  1  0.59450100  0.40598100  0.49511200  1
  C  C107  1  0.90550400  0.90598000  0.50487800  1
  C  C108  1  0.09450100  0.90598100  0.49511200  1
  C  C109  1  0.39540900  0.40647700  0.45419800  1
  C  C110  1  0.60461100  0.40648500  0.54577500  1
  C  C111  1  0.89540900  0.90647600  0.45419800  1
  C  C112  1  0.10461200  0.90648500  0.54577400  1
  C  C113  1  0.40602700  0.43221600  0.38918500  1
  C  C114  1  0.59400600  0.43223000  0.61077200  1
  C  C115  1  0.90602800  0.93221500  0.38918400  1
  C  C116  1  0.09400800  0.93223000  0.61077100  1
  C  C117  1  0.36992100  0.39618900  0.39099700  1
  C  C118  1  0.63011400  0.39620400  0.60895700  1
  C  C119  1  0.86992200  0.89618900  0.39099600  1
  C  C120  1  0.13011500  0.89620500  0.60895600  1
  C  C121  1  0.56071200  0.44003500  0.49784700  1
  C  C122  1  0.43929100  0.44003500  0.50214600  1
  C  C123  1  0.06071200  0.94003500  0.49784600  1
  C  C124  1  0.93929100  0.94003500  0.50214600  1
  C  C125  1  0.06084000  0.05924400  0.49805400  1
  C  C126  1  0.93916200  0.05924400  0.50194200  1
  C  C127  1  0.56084000  0.55924400  0.49805400  1
  C  C128  1  0.43916200  0.55924500  0.50194200  1
  C  C129  1  0.33151700  0.30145100  0.61328900  1
  C  C130  1  0.27154100  0.29715000  0.68457000  1
  C  C131  1  0.25237800  0.26239500  0.73620000  1
  C  C132  1  0.29292500  0.23214500  0.71725300  1
  C  C133  1  0.35291000  0.23684800  0.64691700  1
  C  C134  1  0.37220800  0.27158900  0.59520600  1
  C  C135  1  0.66843800  0.30143200  0.38675700  1
  C  C136  1  0.72841000  0.29709400  0.31548600  1
  C  C137  1  0.74753700  0.26231300  0.26392100  1
  C  C138  1  0.70695900  0.23208100  0.28291000  1
  C  C139  1  0.64697700  0.23682700  0.35322800  1
  C  C140  1  0.62771600  0.27158800  0.40488300  1
  C  C141  1  0.83151500  0.80145100  0.61329100  1
  C  C142  1  0.77153900  0.79715200  0.68457200  1
  C  C143  1  0.75237500  0.76239700  0.73620400  1
  C  C144  1  0.79292100  0.73214700  0.71725900  1
  C  C145  1  0.85290600  0.73684900  0.64692200  1
  C  C146  1  0.87220500  0.77158900  0.59520900  1
  C  C147  1  0.16843700  0.80143200  0.38675900  1
  C  C148  1  0.22840900  0.79709200  0.31548800  1
  C  C149  1  0.24753500  0.76231000  0.26392500  1
  C  C150  1  0.20695500  0.73207900  0.28291600  1
  C  C151  1  0.14697300  0.73682600  0.35323300  1
  C  C152  1  0.12771300  0.77158800  0.40488500  1
  Cl  Cl1  1  0.21976600  0.33629900  0.71147200  1
  Cl  Cl2  1  0.78022400  0.33622600  0.28851800  1
  Cl  Cl3  1  0.71976600  0.83630200  0.71147200  1
  Cl  Cl4  1  0.28022400  0.83622300  0.28851800  1
  O  O1  1  0.18526800  0.22728800  0.49261900  1
  O  O2  1  0.81473700  0.22729400  0.50738000  1
  O  O3  1  0.68526800  0.72728800  0.49261900  1
  O  O4  1  0.31473700  0.72729400  0.50738000  1
  O  O5  1  0.23185800  0.17435400  0.50388600  1
  O  O6  1  0.76815700  0.17436000  0.49609500  1
  O  O7  1  0.73185900  0.67435400  0.50388500  1
  O  O8  1  0.26815700  0.67436000  0.49609500  1
  O  O9  1  0.29215300  0.27358300  0.37302500  1
  O  O10  1  0.70784500  0.27358100  0.62697400  1
  O  O11  1  0.79215300  0.77358300  0.37302500  1
  O  O12  1  0.20784400  0.77358100  0.62697400  1
  O  O13  1  0.33985600  0.21921400  0.37932900  1
  O  O14  1  0.66015200  0.21921200  0.62065300  1
  O  O15  1  0.83985700  0.71921400  0.37932800  1
  O  O16  1  0.16015200  0.71921200  0.62065200  1
  O  O17  1  0.27375000  0.31909500  0.49592300  1
  O  O18  1  0.72625200  0.31909900  0.50407700  1
  O  O19  1  0.77375000  0.81909500  0.49592300  1
  O  O20  1  0.22625200  0.81909900  0.50407700  1
  O  O21  1  0.32069100  0.26617700  0.50633800  1
  O  O22  1  0.67932100  0.26618100  0.49364700  1
  O  O23  1  0.82069100  0.76617700  0.50633700  1
  O  O24  1  0.17932100  0.76618100  0.49364600  1
  O  O25  1  0.16574600  0.27405900  0.62011600  1
  O  O26  1  0.83426300  0.27407000  0.37988400  1
  O  O27  1  0.66574600  0.77405900  0.62011600  1
  O  O28  1  0.33426300  0.77407100  0.37988400  1
  O  O29  1  0.21373600  0.21995800  0.62645100  1
  O  O30  1  0.78628300  0.21996900  0.37353100  1
  O  O31  1  0.71373700  0.71995700  0.62645100  1
  O  O32  1  0.28628300  0.71996900  0.37353000  1
  O  O33  1  0.57885600  0.45337200  0.42773100  1
  O  O34  1  0.42114700  0.45337200  0.57226200  1
  O  O35  1  0.07885600  0.95337200  0.42773100  1
  O  O36  1  0.92114700  0.95337100  0.57226200  1
  O  O37  1  0.51308300  0.45515800  0.57054700  1
  O  O38  1  0.48691900  0.45515900  0.42944600  1
  O  O39  1  0.01308400  0.95515800  0.57054700  1
  O  O40  1  0.98691900  0.95515900  0.42944500  1
  O  O41  1  0.07897800  0.04603100  0.42783900  1
  O  O42  1  0.92102300  0.04603000  0.57215700  1
  O  O43  1  0.57897900  0.54603100  0.42783900  1
  O  O44  1  0.42102300  0.54603000  0.57215700  1
  O  O45  1  0.01306400  0.04423000  0.57061700  1
  O  O46  1  0.98693800  0.04423000  0.42937900  1
  O  O47  1  0.51306400  0.54423000  0.57061700  1
  O  O48  1  0.48693800  0.54423000  0.42937900  1
