# generated using pymatgen
data_CuH11C23N3O4
_symmetry_space_group_name_H-M   'P 1'
_cell_length_a   18.09047300
_cell_length_b   10.94296800
_cell_length_c   15.73106100
_cell_angle_alpha   90.00000000
_cell_angle_beta   95.93300800
_cell_angle_gamma   90.00000000
_symmetry_Int_Tables_number   1
_chemical_formula_structural   CuH11C23N3O4
_chemical_formula_sum   'Cu2 H22 C46 N6 O8'
_cell_volume   3097.49408976
_cell_formula_units_Z   2
loop_
 _symmetry_equiv_pos_site_id
 _symmetry_equiv_pos_as_xyz
  1  'x, y, z'
loop_
 _atom_site_type_symbol
 _atom_site_label
 _atom_site_symmetry_multiplicity
 _atom_site_fract_x
 _atom_site_fract_y
 _atom_site_fract_z
 _atom_site_occupancy
  Cu  Cu1  1  0.92779400  0.98712800  0.99383800  1
  Cu  Cu2  1  0.07436400  0.01197300  0.00642300  1
  H  H1  1  0.20066900  0.82820300  0.03238700  1
  H  H2  1  0.80154600  0.17089700  0.96743200  1
  H  H3  1  0.79998000  0.79077400  0.00583100  1
  H  H4  1  0.20216800  0.20847600  0.99466700  1
  H  H5  1  0.33443100  0.81877700  0.03097800  1
  H  H6  1  0.66775900  0.18043600  0.96879200  1
  H  H7  1  0.66514700  0.79346700  0.00836300  1
  H  H8  1  0.33700400  0.20588200  0.99206600  1
  H  H9  1  0.05598800  0.69922700  0.50875700  1
  H  H10  1  0.98657100  0.27985100  0.49813800  1
  H  H11  1  0.00510200  0.59060400  0.13223600  1
  H  H12  1  0.02236200  0.40072100  0.86706500  1
  H  H13  1  0.99393400  0.58893700  0.86822100  1
  H  H14  1  0.03407400  0.40236000  0.14029300  1
  H  H15  1  0.02990100  0.91496300  0.27600100  1
  H  H16  1  0.93163700  0.09934800  0.72511100  1
  H  H17  1  0.01983100  0.91395000  0.73142900  1
  H  H18  1  0.93921800  0.10133500  0.25676500  1
  H  H19  1  0.02213700  0.80758400  0.40455800  1
  H  H20  1  0.92847400  0.21160100  0.59539000  1
  H  H21  1  0.01423000  0.80691800  0.60081200  1
  H  H22  1  0.93254700  0.21285400  0.38488400  1
  C  C1  1  0.99617400  0.16675500  0.11749400  1
  C  C2  1  0.00567300  0.83119500  0.88374300  1
  C  C3  1  0.98803400  0.16432400  0.87942500  1
  C  C4  1  0.01395600  0.83320700  0.11969100  1
  C  C5  1  0.23114900  0.91179200  0.02500800  1
  C  C6  1  0.77104000  0.08737000  0.97496000  1
  C  C7  1  0.77017900  0.87613400  0.99649100  1
  C  C8  1  0.23197900  0.12310300  0.00384600  1
  C  C9  1  0.30718500  0.90656200  0.02368300  1
  C  C10  1  0.69500100  0.09266400  0.97625300  1
  C  C11  1  0.69377000  0.87806500  0.99822600  1
  C  C12  1  0.30838900  0.12123200  0.00206800  1
  C  C13  1  0.34681400  0.01174800  0.01125300  1
  C  C14  1  0.65536100  0.98754600  0.98885200  1
  C  C15  1  0.57449400  0.99350300  0.99413400  1
  C  C16  1  0.42768400  0.00582800  0.00595900  1
  C  C17  1  0.01167200  0.56040900  0.42419400  1
  C  C18  1  0.98890200  0.43811500  0.57634200  1
  C  C19  1  0.00784000  0.56000100  0.57890100  1
  C  C20  1  0.99240700  0.43860700  0.42112200  1
  C  C21  1  0.02523400  0.61564200  0.50393800  1
  C  C22  1  0.98657600  0.37746700  0.49809600  1
  C  C23  1  0.01417200  0.56334600  0.27028500  1
  C  C24  1  0.99539000  0.43504300  0.73099500  1
  C  C25  1  0.00483900  0.56231400  0.73260700  1
  C  C26  1  0.00438500  0.43609100  0.26902300  1
  C  C27  1  0.01410600  0.63163200  0.19467200  1
  C  C28  1  0.00099800  0.36436500  0.80575100  1
  C  C29  1  0.00314600  0.63020900  0.80807700  1
  C  C30  1  0.01173900  0.36567600  0.19584600  1
  C  C31  1  0.02049900  0.75755600  0.19706500  1
  C  C32  1  0.98054400  0.24259400  0.80316100  1
  C  C33  1  0.00926900  0.75606700  0.80734000  1
  C  C34  1  0.99098800  0.24403500  0.19280400  1
  C  C35  1  0.02694400  0.81636400  0.27403100  1
  C  C36  1  0.95134600  0.19263500  0.72720400  1
  C  C37  1  0.01659800  0.81537400  0.73234100  1
  C  C38  1  0.95972600  0.19414900  0.26040100  1
  C  C39  1  0.02395900  0.75221900  0.34831800  1
  C  C40  1  0.95183900  0.25738800  0.65255000  1
  C  C41  1  0.01529700  0.75157800  0.65746700  1
  C  C42  1  0.95811000  0.25855700  0.33483200  1
  C  C43  1  0.01787500  0.62509600  0.34822100  1
  C  C44  1  0.97905500  0.37652600  0.65263900  1
  C  C45  1  0.01046300  0.62443200  0.65609800  1
  C  C46  1  0.98549500  0.37739300  0.34240600  1
  N  N1  1  0.19449000  0.01881600  0.01480100  1
  N  N2  1  0.80768000  0.98035800  0.98538500  1
  N  N3  1  0.46634300  0.10768700  0.99201100  1
  N  N4  1  0.53583700  0.89164900  0.00808700  1
  N  N5  1  0.53873500  0.10155300  0.98629300  1
  N  N6  1  0.46344600  0.89778200  0.01380100  1
  O  O1  1  0.93563600  0.11148300  0.08402000  1
  O  O2  1  0.06639600  0.88691600  0.91632200  1
  O  O3  1  0.05449700  0.13647100  0.91622900  1
  O  O4  1  0.94752300  0.86344300  0.08410600  1
  O  O5  1  0.06138200  0.13749500  0.09325900  1
  O  O6  1  0.94062900  0.86174200  0.90764000  1
  O  O7  1  0.92883100  0.10858900  0.90223200  1
  O  O8  1  0.07334700  0.88866300  0.09708300  1
