# generated using pymatgen
data_Cu3H33C43O21
_symmetry_space_group_name_H-M   'P 1'
_cell_length_a   21.69731300
_cell_length_b   21.71444600
_cell_length_c   22.06439700
_cell_angle_alpha   119.46873500
_cell_angle_beta   119.43695000
_cell_angle_gamma   90.00720600
_symmetry_Int_Tables_number   1
_chemical_formula_structural   Cu3H33C43O21
_chemical_formula_sum   'Cu6 H66 C86 O42'
_cell_volume   7470.24098975
_cell_formula_units_Z   2
loop_
 _symmetry_equiv_pos_site_id
 _symmetry_equiv_pos_as_xyz
  1  'x, y, z'
loop_
 _atom_site_type_symbol
 _atom_site_label
 _atom_site_symmetry_multiplicity
 _atom_site_fract_x
 _atom_site_fract_y
 _atom_site_fract_z
 _atom_site_occupancy
  Cu  Cu1  1  0.44104500  0.00672400  0.50285500  1
  Cu  Cu2  1  0.56094900  0.00367500  0.49721100  1
  Cu  Cu3  1  0.99953700  0.56377600  0.50028100  1
  Cu  Cu4  1  0.99879600  0.44115000  0.50050000  1
  Cu  Cu5  1  0.54171900  0.54703500  0.58383600  1
  Cu  Cu6  1  0.45581900  0.46283200  0.41581000  1
  H  H1  1  0.75766400  0.38294100  0.07272100  1
  H  H2  1  0.68846600  0.31374100  0.93016000  1
  H  H3  1  0.79435400  0.29265900  0.93886400  1
  H  H4  1  0.86638900  0.35562000  0.07326300  1
  H  H5  1  0.65321500  0.15271000  0.93338900  1
  H  H6  1  0.72234300  0.11536900  0.92200600  1
  H  H7  1  0.73071500  0.21283700  0.07286900  1
  H  H8  1  0.62810600  0.25462000  0.92768900  1
  H  H9  1  0.69808300  0.32207700  0.06972900  1
  H  H10  1  0.80770400  0.18902100  0.06691000  1
  H  H11  1  0.59603300  0.19565000  0.49179500  1
  H  H12  1  0.59582800  0.30881300  0.49235500  1
  H  H13  1  0.40049700  0.34857900  0.56983100  1
  H  H14  1  0.39810400  0.23304100  0.56732500  1
  H  H15  1  0.33349900  0.17587700  0.44858500  1
  H  H16  1  0.18436800  0.62603000  0.93556800  1
  H  H17  1  0.33746500  0.70968100  0.05990600  1
  H  H18  1  0.30764600  0.73913700  0.93147000  1
  H  H19  1  0.21266600  0.86135900  0.06755000  1
  H  H20  1  0.29418700  0.88921300  0.07484500  1
  H  H21  1  0.18031800  0.75991200  0.06503600  1
  H  H22  1  0.23211900  0.81527300  0.93237400  1
  H  H23  1  0.59160100  0.80161400  0.48452400  1
  H  H24  1  0.58874400  0.68814400  0.48344000  1
  H  H25  1  0.33852300  0.68211900  0.46457500  1
  H  H26  1  0.40790000  0.74067600  0.58216500  1
  H  H27  1  0.40941300  0.85360800  0.58366400  1
  H  H28  1  0.75219300  0.38618300  0.39447200  1
  H  H29  1  0.63799200  0.38800500  0.39275700  1
  H  H30  1  0.74636700  0.67899500  0.60568600  1
  H  H31  1  0.78574800  0.65024600  0.68179700  1
  H  H32  1  0.85750900  0.67856400  0.60356400  1
  H  H33  1  0.89629400  0.64892700  0.67886400  1
  H  H34  1  0.24810300  0.49557600  0.61048700  1
  H  H35  1  0.36198700  0.49852200  0.61137300  1
  H  H36  1  0.24642400  0.55977100  0.38376100  1
  H  H37  1  0.20839700  0.45462400  0.31334300  1
  H  H38  1  0.13669100  0.56412900  0.38834900  1
  H  H39  1  0.09874800  0.45900100  0.31819400  1
  H  H40  1  0.21524000  0.27866800  0.31285800  1
  H  H41  1  0.18171800  0.33722100  0.37469700  1
  H  H42  1  0.14908200  0.23691800  0.32021300  1
  H  H43  1  0.21710400  0.61159000  0.15956900  1
  H  H44  1  0.28807300  0.61346300  0.13907500  1
  H  H45  1  0.19895800  0.53979700  0.05853300  1
  H  H46  1  0.53344300  0.88632000  0.19407600  1
  H  H47  1  0.50661300  0.96350400  0.18907000  1
  H  H48  1  0.52997100  0.89985300  0.11786400  1
  H  H49  1  0.30129400  0.50980300  0.81494200  1
  H  H50  1  0.33305800  0.52126000  0.91376000  1
  H  H51  1  0.40030600  0.53918300  0.89368900  1
  H  H52  1  0.99816600  0.78948100  0.85750500  1
  H  H53  1  0.98863500  0.78658700  0.76978500  1
  H  H54  1  0.01648300  0.87540300  0.86537800  1
  H  H55  1  0.96476300  0.66477600  0.84961500  1
  H  H56  1  0.93979000  0.58065900  0.84233700  1
  H  H57  1  0.93559900  0.57423000  0.75527100  1
  H  H58  1  0.86277800  0.11701200  0.81815300  1
  H  H59  1  0.82892800  0.03718600  0.81298300  1
  H  H60  1  0.92527300  0.09660800  0.89300000  1
  H  H61  1  0.21613200  0.80099800  0.34262200  1
  H  H62  1  0.18353400  0.70091700  0.26694400  1
  H  H63  1  0.24503800  0.76130400  0.27084000  1
  H  H64  1  0.00955700  0.22476700  0.14155000  1
  H  H65  1  0.07270500  0.31813900  0.23020300  1
  H  H66  1  0.06998000  0.27445200  0.13436300  1
  C  C1  1  0.50001800  0.12278600  0.49857300  1
  C  C2  1  0.58623500  0.08700700  0.66175900  1
  C  C3  1  0.50197100  0.88753600  0.50130000  1
  C  C4  1  0.41572300  0.92306400  0.33830500  1
  C  C5  1  0.68690300  0.27785000  0.95208300  1
  C  C6  1  0.79752600  0.25093300  0.95447000  1
  C  C7  1  0.84593400  0.29691900  0.05047500  1
  C  C8  1  0.87728800  0.37653600  0.24826000  1
  C  C9  1  0.71731000  0.21503700  0.92036900  1
  C  C10  1  0.73389800  0.32413500  0.04783100  1
  C  C11  1  0.79667400  0.29357800  0.08015700  1
  C  C12  1  0.76317100  0.21362500  0.04693400  1
  C  C13  1  0.71124500  0.16819600  0.95162900  1
  C  C14  1  0.84107700  0.33891800  0.17233200  1
  C  C15  1  0.67172200  0.16959500  0.82815400  1
  C  C16  1  0.63324100  0.13201600  0.75218900  1
  C  C17  1  0.44892100  0.22579000  0.50160600  1
  C  C18  1  0.50038300  0.18988800  0.49801800  1
  C  C19  1  0.55392400  0.22104200  0.49485000  1
  C  C20  1  0.55413800  0.28548600  0.49528500  1
  C  C21  1  0.50130600  0.31984400  0.49954800  1
  C  C22  1  0.45019000  0.28767700  0.50319500  1
  C  C23  1  0.38584600  0.29718000  0.50987000  1
  C  C24  1  0.38345300  0.22393000  0.50715500  1
  C  C25  1  0.21756500  0.73267000  0.04776400  1
  C  C26  1  0.32956100  0.75352000  0.04733600  1
  C  C27  1  0.28586400  0.71277600  0.95193600  1
  C  C28  1  0.12242900  0.62862700  0.75245400  1
  C  C29  1  0.28310000  0.79220000  0.07971600  1
  C  C30  1  0.17547000  0.68072900  0.95220200  1
  C  C31  1  0.20596700  0.71289500  0.92057100  1
  C  C32  1  0.20534800  0.79288500  0.95217100  1
  C  C33  1  0.25029800  0.83991100  0.04760700  1
  C  C34  1  0.16023400  0.66677900  0.82839500  1
  C  C35  1  0.32944900  0.83850800  0.17194000  1
  C  C36  1  0.36847200  0.87703100  0.24789600  1
  C  C37  1  0.45294900  0.79108000  0.50973400  1
  C  C38  1  0.50205400  0.82016300  0.50123900  1
  C  C39  1  0.55157900  0.78198100  0.49184700  1
  C  C40  1  0.54999000  0.71728600  0.49093600  1
  C  C41  1  0.49945800  0.69028700  0.50008400  1
  C  C42  1  0.45207500  0.72978000  0.50963700  1
  C  C43  1  0.38958500  0.73012800  0.52037200  1
  C  C44  1  0.39141600  0.80272700  0.52176500  1
  C  C45  1  0.87950500  0.50189500  0.49763100  1
  C  C46  1  0.92017300  0.42174300  0.33866400  1
  C  C47  1  0.11874000  0.50309700  0.50335500  1
  C  C48  1  0.07739900  0.58321000  0.66205700  1
  C  C49  1  0.61602500  0.50473100  0.49795700  1
  C  C50  1  0.49996400  0.38680300  0.49950200  1
  C  C51  1  0.38136200  0.50414000  0.50159500  1
  C  C52  1  0.49777100  0.62330000  0.50021900  1
  C  C53  1  0.80530800  0.56409300  0.55086900  1
  C  C54  1  0.81152000  0.50143700  0.49600300  1
  C  C55  1  0.75032800  0.43718200  0.43932100  1
  C  C56  1  0.68542600  0.43840600  0.43809200  1
  C  C57  1  0.68250700  0.50290800  0.49643900  1
  C  C58  1  0.74511700  0.56430800  0.55265600  1
  C  C59  1  0.77631300  0.64369200  0.62448400  1
  C  C60  1  0.84741300  0.64319200  0.62278600  1
  C  C61  1  0.19123200  0.50714600  0.44686700  1
  C  C62  1  0.18647000  0.50321900  0.50451800  1
  C  C63  1  0.24879800  0.49870400  0.56341500  1
  C  C64  1  0.31348100  0.50079100  0.56415200  1
  C  C65  1  0.31491200  0.50314300  0.50306900  1
  C  C66  1  0.25098900  0.50457300  0.44434500  1
  C  C67  1  0.21791100  0.50727600  0.36911200  1
  C  C68  1  0.14746600  0.51006200  0.37202600  1
  C  C69  1  0.26054200  0.29171800  0.43044300  1
  C  C70  1  0.19763000  0.28570800  0.35470400  1
  C  C71  1  0.19692700  0.64582900  0.07772300  1
  C  C72  1  0.22721100  0.59976700  0.11088600  1
  C  C73  1  0.42406100  0.85656500  0.08906000  1
  C  C74  1  0.50361600  0.90463900  0.15149700  1
  C  C75  1  0.34778200  0.62252000  0.92151300  1
  C  C76  1  0.34547800  0.54311400  0.88355200  1
  C  C77  1  0.10063500  0.82283000  0.87402600  1
  C  C78  1  0.02087800  0.81829800  0.83948600  1
  C  C79  1  0.04529300  0.60745800  0.86189600  1
  C  C80  1  0.96630600  0.60671200  0.82492500  1
  C  C81  1  0.84563500  0.14285700  0.91410500  1
  C  C82  1  0.86703000  0.09537000  0.85583700  1
  C  C83  1  0.29727400  0.74654300  0.37148000  1
  C  C84  1  0.23126000  0.75280500  0.30895300  1
  C  C85  1  0.97723700  0.31185800  0.12712600  1
  C  C86  1  0.03614600  0.28030600  0.16044500  1
  O  O1  1  0.44635100  0.09370400  0.49772700  1
  O  O2  1  0.55383300  0.09463500  0.50017100  1
  O  O3  1  0.51379700  0.07117600  0.62487300  1
  O  O4  1  0.61762500  0.06326700  0.62019500  1
  O  O5  1  0.44833500  0.91590700  0.50028400  1
  O  O6  1  0.55543200  0.91652300  0.50191200  1
  O  O7  1  0.38436100  0.94680300  0.37987600  1
  O  O8  1  0.48820800  0.93944600  0.37516400  1
  O  O9  1  0.90897400  0.55525300  0.49851100  1
  O  O10  1  0.90795500  0.44874400  0.49789200  1
  O  O11  1  0.93936800  0.49445500  0.37762200  1
  O  O12  1  0.94420600  0.38864000  0.37821000  1
  O  O13  1  0.08658300  0.55228500  0.49540100  1
  O  O14  1  0.09286500  0.45355200  0.50980100  1
  O  O15  1  0.06394500  0.61635100  0.62279600  1
  O  O16  1  0.05810800  0.51048100  0.62314800  1
  O  O17  1  0.62463400  0.54650600  0.57099100  1
  O  O18  1  0.55057100  0.46380000  0.42613000  1
  O  O19  1  0.54147900  0.45171500  0.57184100  1
  O  O20  1  0.45748900  0.37897900  0.42703800  1
  O  O21  1  0.44698000  0.54087900  0.57376500  1
  O  O22  1  0.37247100  0.46821100  0.42820000  1
  O  O23  1  0.53528300  0.63122500  0.57306200  1
  O  O24  1  0.46096600  0.55821000  0.42749600  1
  O  O25  1  0.32588700  0.28771200  0.43855200  1
  O  O26  1  0.25304300  0.30115200  0.48536500  1
  O  O27  1  0.24296900  0.69361300  0.08385600  1
  O  O28  1  0.13092500  0.64029800  0.04566600  1
  O  O29  1  0.40083800  0.80017500  0.09125300  1
  O  O30  1  0.38231400  0.86738600  0.03576800  1
  O  O31  1  0.28651500  0.64032300  0.91616600  1
  O  O32  1  0.40467400  0.67075500  0.95633200  1
  O  O33  1  0.13319300  0.79478400  0.92058800  1
  O  O34  1  0.13551700  0.85192100  0.86006800  1
  O  O35  1  0.10070800  0.67343400  0.91609500  1
  O  O36  1  0.05888100  0.54861800  0.84182000  1
  O  O37  1  0.82713900  0.20278400  0.91487500  1
  O  O38  1  0.84829000  0.12868100  0.96213600  1
  O  O39  1  0.32785700  0.79669400  0.45481600  1
  O  O40  1  0.32244600  0.69657200  0.34650700  1
  O  O41  1  0.90462300  0.27197400  0.08144000  1
  O  O42  1  0.99519700  0.37263100  0.14037700  1
