# Generated by REPEAT Assigner based on pymatgen
data_DB0-m2_o6_o10_f0_pcu.sym.40
_audit_creation_date              2022-05-24
_audit_creation_method            REPEAT_Assigner
_cell_length_a                    8.917755
_cell_length_b                    16.039116
_cell_length_c                    14.619300
_cell_angle_alpha                 90.009356
_cell_angle_beta                  97.975364
_cell_angle_gamma                 89.990371
_cell_volume                      2070.816024
_symmetry_space_group_name_H-M    P1
_symmetry_Int_Tables_number       1
loop_
    _symmetry_equiv_pos_site_id
    _symmetry_equiv_pos_as_xyz
    1  x,y,z
loop_
    _atom_site_type_symbol
    _atom_site_label
    _atom_site_fract_x
    _atom_site_fract_y
    _atom_site_fract_z
    _atom_type_partial_charge
    O   O1   0.499924  0.376698  0.580309  -0.566954
    O   O2   0.512237  0.619917  0.425832  -0.572844
    O   O3   0.508948  0.377607  0.423755  -0.606689
    O   O4   0.511052  0.618935  0.583251  -0.522350
    C   C1   0.503444  0.338306  0.501671  0.772996
    C   C2   0.512582  0.658251  0.504900  0.793805
    O   O5   0.290931  0.503325  0.566608  -0.567440
    O   O6   0.725260  0.500447  0.440063  -0.448354
    O   O7   0.285432  0.502142  0.409158  -0.543845
    O   O8   0.730832  0.496950  0.597302  -0.471916
    C   C3   0.217017  0.499534  0.482812  0.752755
    C   C4   0.799443  0.495123  0.523502  0.515981
    Cu  Cu1  0.511263  0.497640  0.595020  0.781927
    Cu  Cu2  0.504823  0.498872  0.411551  0.854031
    C   C5   0.050375  0.499128  0.467758  -0.351941
    C   C6   0.966138  0.487164  0.536754  -0.028833
    H   H1   0.505353  0.076031  0.648132  0.150622
    H   H2   0.510763  0.920525  0.358517  0.145929
    C   C7   0.508761  0.955891  0.585459  -0.184530
    C   C8   0.507361  0.040665  0.421191  -0.205134
    H   H3   0.509212  0.922675  0.649831  0.148537
    H   H4   0.506903  0.073880  0.356818  0.146108
    C   C9   0.510376  0.912311  0.504289  0.270101
    C   C10  0.505744  0.084245  0.502360  0.290151
    C   C11  0.509630  0.954698  0.422158  -0.183718
    C   C12  0.506492  0.041858  0.584492  -0.197119
    C   C13  0.512044  0.822848  0.505131  -0.086921
    C   C14  0.504052  0.173708  0.501507  -0.127587
    C   C15  0.503274  0.248837  0.501234  -0.206010
    C   C16  0.512794  0.747720  0.505379  -0.241079
    C   C17  0.577732  0.562908  0.962121  -0.176265
    C   C18  0.444875  0.432252  0.045367  -0.139426
    C   C19  0.512756  0.497254  0.909494  0.209278
    C   C20  0.504958  0.499279  0.097408  0.151252
    C   C21  0.444190  0.432542  0.950568  -0.154125
    C   C22  0.569731  0.565149  0.056092  -0.128787
    C   C23  0.515151  0.496820  0.811337  0.002960
    C   C24  0.501673  0.499825  0.195366  0.069253
    N   N1   0.500029  0.499864  0.274371  -0.068063
    N   N2   0.516148  0.496805  0.732230  -0.024441
    C   C25  0.981757  0.512649  0.371724  0.786640
    O   O9   0.008793  0.576731  0.332269  -0.512766
    C   C26  0.906475  0.441983  0.317089  -0.488695
    H   H5   0.892644  0.388712  0.363555  0.091355
    H   H6   0.977879  0.422296  0.264582  0.127617
    H   H7   0.794651  0.462005  0.281279  0.124633
    C   C27  0.036480  0.459673  0.628724  0.645654
    O   O10  0.004262  0.494262  0.697674  -0.514856
    C   C28  0.127092  0.381114  0.638505  -0.535791
    H   H8   0.144455  0.357492  0.569468  0.111605
    H   H9   0.064381  0.333312  0.672739  0.127046
    H   H10  0.237918  0.392524  0.681211  0.230039
    C   C29  0.623520  0.637935  0.112255  0.657078
    O   O11  0.698559  0.628121  0.187783  -0.439001
    C   C30  0.574400  0.723762  0.082172  -0.510691
    H   H11  0.500147  0.721893  0.014819  0.112329
    H   H12  0.674603  0.763497  0.077496  0.155124
    H   H13  0.509497  0.751159  0.134251  0.171952
    C   C31  0.365505  0.367023  0.892341  0.693823
    O   O12  0.424986  0.336325  0.830061  -0.500902
    C   C32  0.207070  0.343047  0.902907  -0.556860
    H   H14  0.166167  0.379389  0.958980  0.125422
    H   H15  0.200921  0.275360  0.916856  0.164168
    H   H16  0.132305  0.357010  0.837711  0.186834
    C   C33  0.659831  0.627407  0.917820  0.745913
    O   O13  0.604258  0.657230  0.844136  -0.493580
    C   C34  0.817581  0.650819  0.957201  -0.541210
    H   H17  0.854679  0.615224  0.021318  0.115857
    H   H18  0.824354  0.718678  0.971161  0.155880
    H   H19  0.894502  0.635620  0.906111  0.184827
    C   C35  0.389057  0.360055  0.092460  0.682420
    O   O14  0.308338  0.370561  0.152310  -0.480688
    C   C36  0.442422  0.274180  0.074503  -0.528468
    H   H20  0.520563  0.275477  0.021824  0.124200
    H   H21  0.344399  0.233207  0.051686  0.158418
    H   H22  0.504253  0.248640  0.139518  0.173358
