# generated using pymatgen
data_CuH16C24(NO3)2
_symmetry_space_group_name_H-M   'P 1'
_cell_length_a   23.35949800
_cell_length_b   10.67019200
_cell_length_c   9.33285800
_cell_angle_alpha   90.00308900
_cell_angle_beta   90.00648900
_cell_angle_gamma   90.00217500
_symmetry_Int_Tables_number   1
_chemical_formula_structural   CuH16C24(NO3)2
_chemical_formula_sum   'Cu2 H32 C48 N4 O12'
_cell_volume   2326.21790408
_cell_formula_units_Z   2
loop_
 _symmetry_equiv_pos_site_id
 _symmetry_equiv_pos_as_xyz
  1  'x, y, z'
loop_
 _atom_site_type_symbol
 _atom_site_label
 _atom_site_symmetry_multiplicity
 _atom_site_fract_x
 _atom_site_fract_y
 _atom_site_fract_z
 _atom_site_occupancy
  Cu  Cu1  1  0.50070800  0.50456400  0.65971200  1
  Cu  Cu2  1  0.49985000  0.50408000  0.37311000  1
  H  H1  1  0.94711400  0.19347000  0.58333200  1
  H  H2  1  0.05410500  0.81285500  0.52189300  1
  H  H3  1  0.05053600  0.19078200  0.58475400  1
  H  H4  1  0.95070500  0.81558400  0.52100600  1
  H  H5  1  0.22079600  0.62192500  0.71689200  1
  H  H6  1  0.77984500  0.41103700  0.73398000  1
  H  H7  1  0.32484400  0.61986600  0.69976000  1
  H  H8  1  0.67627500  0.41257100  0.71674700  1
  H  H9  1  0.21021100  0.36846600  0.36561600  1
  H  H10  1  0.79176900  0.60589400  0.33746500  1
  H  H11  1  0.58651600  0.92238600  0.62742700  1
  H  H12  1  0.41400900  0.08610700  0.40538900  1
  H  H13  1  0.50571700  0.07984900  0.76168200  1
  H  H14  1  0.49482400  0.92877400  0.27115000  1
  H  H15  1  0.41751000  0.92863200  0.64818400  1
  H  H16  1  0.58303100  0.07999000  0.38464500  1
  H  H17  1  0.47329600  0.70221300  0.92139300  1
  H  H18  1  0.52735000  0.30655700  0.11132800  1
  H  H19  1  0.56294100  0.65627400  0.11627600  1
  H  H20  1  0.43671500  0.35428100  0.91656800  1
  H  H21  1  0.59269100  0.45793000  0.92404500  1
  H  H22  1  0.40832100  0.55309400  0.10852200  1
  H  H23  1  0.26342100  0.35946900  0.14170400  1
  H  H24  1  0.31649300  0.48043400  0.16646200  1
  H  H25  1  0.33713900  0.32878600  0.09519700  1
  H  H26  1  0.36634700  0.31668100  0.33726700  1
  H  H27  1  0.29927600  0.23869100  0.33534300  1
  H  H28  1  0.72350400  0.52024600  0.13125600  1
  H  H29  1  0.65098300  0.47621200  0.17509100  1
  H  H30  1  0.66459300  0.61159600  0.06276100  1
  H  H31  1  0.64043800  0.68144400  0.31140800  1
  H  H32  1  0.71148000  0.71977400  0.26286500  1
  C  C1  1  0.50187800  0.26385100  0.51746100  1
  C  C2  1  0.49864800  0.74479000  0.51535900  1
  C  C3  1  0.39024100  0.49734900  0.51798900  1
  C  C4  1  0.61050400  0.51039200  0.51509800  1
  C  C5  1  0.88285200  0.61552800  0.53756100  1
  C  C6  1  0.11841700  0.39042000  0.56221700  1
  C  C7  1  0.88152600  0.39656300  0.55862700  1
  C  C8  1  0.11968200  0.60923600  0.53922400  1
  C  C9  1  0.94073200  0.39372000  0.56275200  1
  C  C10  1  0.06048300  0.61254200  0.54175000  1
  C  C11  1  0.97107500  0.50393700  0.55251000  1
  C  C12  1  0.03015400  0.50240200  0.55317700  1
  C  C13  1  0.94204800  0.61562900  0.54037100  1
  C  C14  1  0.05919900  0.39062400  0.56402600  1
  C  C15  1  0.96982400  0.28138500  0.57495900  1
  C  C16  1  0.03139900  0.72497700  0.53082900  1
  C  C17  1  0.02883400  0.27986600  0.57586300  1
  C  C18  1  0.97240100  0.72653300  0.53041800  1
  C  C19  1  0.24121200  0.56629400  0.63466900  1
  C  C20  1  0.75971400  0.45410900  0.64203500  1
  C  C21  1  0.30006900  0.56392800  0.62573000  1
  C  C22  1  0.70086300  0.45661000  0.63261100  1
  C  C23  1  0.32739800  0.49352200  0.52185000  1
  C  C24  1  0.67363200  0.51231900  0.51711000  1
  C  C25  1  0.29465900  0.42073200  0.42848000  1
  C  C26  1  0.70697300  0.56831900  0.41054500  1
  C  C27  1  0.23565000  0.42398700  0.43859500  1
  C  C28  1  0.76597200  0.56438300  0.42109900  1
  C  C29  1  0.20872200  0.49663500  0.54061700  1
  C  C30  1  0.79254500  0.50798500  0.53613300  1
  C  C31  1  0.50319600  0.04422600  0.65022300  1
  C  C32  1  0.49734500  0.96439800  0.38260800  1
  C  C33  1  0.54736700  0.96133700  0.57707000  1
  C  C34  1  0.45317400  0.04727900  0.45576100  1
  C  C35  1  0.49928700  0.88409500  0.51536200  1
  C  C36  1  0.50125100  0.12453500  0.51746400  1
  C  C37  1  0.45511200  0.96467700  0.58849400  1
  C  C38  1  0.54543000  0.04394700  0.44433800  1
  C  C39  1  0.53434500  0.58477600  0.06844300  1
  C  C40  1  0.46624600  0.42411700  0.96434400  1
  C  C41  1  0.48591000  0.61016200  0.96655300  1
  C  C42  1  0.51474700  0.39862600  0.06619800  1
  C  C43  1  0.54976900  0.47984400  0.96803400  1
  C  C44  1  0.45092700  0.52909900  0.06470400  1
  C  C45  1  0.31998000  0.33151400  0.32210100  1
  C  C46  1  0.30856700  0.37819000  0.17144100  1
  C  C47  1  0.68267600  0.63990100  0.28697000  1
  C  C48  1  0.68008200  0.55641100  0.15563100  1
  N  N1  1  0.85356800  0.50666100  0.54540800  1
  N  N2  1  0.14767800  0.49889800  0.54870200  1
  N  N3  1  0.50124100  0.50521300  0.87405100  1
  N  N4  1  0.49940300  0.50358700  0.15874500  1
  O  O1  1  0.50403700  0.32244500  0.64058200  1
  O  O2  1  0.49640900  0.68618200  0.39229900  1
  O  O3  1  0.49934800  0.32198900  0.39414700  1
  O  O4  1  0.50131000  0.68664300  0.63860200  1
  O  O5  1  0.41753600  0.49703000  0.64058300  1
  O  O6  1  0.58305500  0.51175000  0.39253600  1
  O  O7  1  0.41664200  0.50499000  0.39425300  1
  O  O8  1  0.58386300  0.50328200  0.63837400  1
  O  O9  1  0.85423800  0.72454800  0.52927800  1
  O  O10  1  0.14705600  0.28188400  0.57624500  1
  O  O11  1  0.85170400  0.28893800  0.56301000  1
  O  O12  1  0.14948600  0.71594600  0.52242300  1
