# Generated by REPEAT Assigner based on pymatgen
data_DB0-m3_o96_o11_f0_fsc.sym.3_sqe
_audit_creation_date              2022-05-24
_audit_creation_method            REPEAT_Assigner
_cell_length_a                    9.180027
_cell_length_b                    13.157599
_cell_length_c                    16.513351
_cell_angle_alpha                 90.045630
_cell_angle_beta                  94.581409
_cell_angle_gamma                 90.600919
_cell_volume                      1988.114867
_symmetry_space_group_name_H-M    P1
_symmetry_Int_Tables_number       1
loop_
    _symmetry_equiv_pos_site_id
    _symmetry_equiv_pos_as_xyz
    1  x,y,z
loop_
    _atom_site_type_symbol
    _atom_site_label
    _atom_site_fract_x
    _atom_site_fract_y
    _atom_site_fract_z
    _atom_type_partial_charge
    C   C1   0.954290  0.187368  0.786735  0.042140
    C   C2   0.957567  0.258180  0.846907  0.122344
    C   C3   0.950296  0.207688  0.919166  0.266952
    N   N1   0.939538  0.106696  0.905170  -0.439296
    C   C4   0.940652  0.093810  0.823775  0.279559
    C   C5   0.957432  0.253471  0.991799  -0.362841
    C   C6   0.960986  0.202397  0.071139  0.128268
    C   C7   0.946371  0.250815  0.144289  0.029117
    C   C8   0.991621  0.185103  0.204790  0.085179
    C   C9   0.022234  0.094054  0.167106  0.117147
    N   N2   0.008419  0.107190  0.085583  -0.088344
    C   C10  0.040336  0.994875  0.208604  -0.379931
    C   C11  0.038392  0.904401  0.170548  0.327982
    C   C12  0.035075  0.811017  0.208662  0.084693
    C   C13  0.042126  0.739074  0.149710  0.037069
    C   C14  0.039029  0.789033  0.076009  0.194727
    N   N3   0.040061  0.890485  0.089238  -0.462157
    C   C15  0.024537  0.745008  0.002065  -0.009131
    C   C16  0.024264  0.800669  0.924785  -0.009379
    C   C17  0.050703  0.755259  0.852276  0.049521
    C   C18  0.000190  0.817682  0.791113  0.146665
    C   C19  0.954476  0.905438  0.827767  0.054504
    N   N4   0.964020  0.892271  0.909494  -0.033173
    C   C20  0.934141  0.003768  0.785522  -0.320237
    H   H1   0.973353  0.334557  0.993260  0.179084
    H   H2   0.041965  0.995634  0.274172  0.196976
    H   H3   0.934874  0.002980  0.720038  0.180822
    H   H4   0.039970  0.057885  0.041517  0.210191
    H   H5   0.920428  0.937943  0.952545  0.202681
    C   C21  0.121577  0.666966  0.837288  -0.131487
    C   C22  0.125913  0.637451  0.757480  -0.124171
    C   C23  0.048887  0.689921  0.695041  0.034408
    C   C24  0.991750  0.785220  0.710767  -0.290178
    C   C25  0.972764  0.214798  0.707296  -0.275816
    C   C26  0.989176  0.317795  0.691701  0.040332
    C   C27  0.976574  0.388725  0.752458  -0.018876
    C   C28  0.965289  0.360120  0.831429  -0.355483
    C   C29  0.891034  0.344477  0.161485  0.010754
    C   C30  0.897606  0.374221  0.241632  -0.071290
    C   C31  0.966054  0.315434  0.302927  -0.030799
    C   C32  0.007629  0.216449  0.285559  -0.242285
    C   C33  0.021174  0.784539  0.288800  -0.341369
    C   C34  0.026189  0.681859  0.307370  0.098000
    C   C35  0.060413  0.612059  0.249500  -0.105702
    C   C36  0.066394  0.639044  0.169773  -0.199919
    H   H6   0.176382  0.622623  0.885330  0.107166
    H   H7   0.937704  0.829878  0.662598  0.158882
    H   H8   0.974885  0.159398  0.659104  0.135361
    H   H9   0.973633  0.467990  0.736998  0.117320
    H   H10  0.959768  0.417439  0.877825  0.185789
    H   H11  0.054117  0.167258  0.332995  0.145886
    H   H12  0.006667  0.840423  0.335344  0.146286
    H   H13  0.083014  0.534634  0.267319  0.146116
    H   H14  0.100123  0.582487  0.128332  0.110814
    H   H15  0.180680  0.567674  0.744609  0.128610
    H   H16  0.853936  0.447344  0.256140  0.121868
    O   O1   0.896488  0.611247  0.585880  -0.590305
    O   O2   0.146593  0.597907  0.589460  -0.600836
    C   C37  0.029124  0.637604  0.615888  0.642639
    O   O3   0.129157  0.387358  0.589734  -0.678853
    O   O4   0.878590  0.399909  0.579042  -0.650847
    C   C38  0.999315  0.360109  0.611164  0.745196
    O   O5   0.118687  0.390403  0.413579  -0.669084
    O   O6   0.868930  0.403245  0.410411  -0.684599
    C   C39  0.986209  0.363842  0.383621  0.801680
    O   O7   0.885873  0.613483  0.409618  -0.641229
    O   O8   0.136679  0.601184  0.420561  -0.634494
    C   C40  0.015830  0.640752  0.388266  0.681398
    Zn  Zn1  0.169589  0.490963  0.504188  1.136735
    Zn  Zn2  0.845790  0.510274  0.495534  1.098189
    C   C41  0.580299  0.587469  0.516384  0.082650
    N   N5   0.654084  0.514395  0.490456  -0.259171
    H   H17  0.633237  0.656947  0.539033  0.093728
    C   C42  0.421185  0.575227  0.514577  0.179105
    N   N6   0.361377  0.486047  0.508934  -0.354144
    H   H18  0.356315  0.642891  0.518240  0.072493
    Cl  Cl1  0.799569  0.422048  0.088068  -0.051174
    Cl  Cl2  0.967667  0.617312  0.991627  -0.050422
