# Generated by REPEAT Assigner based on pymatgen
data_DB0-m3_o14_o22_f0_nbo.sym.70_sqe
_audit_creation_date              2022-05-24
_audit_creation_method            REPEAT_Assigner
_cell_length_a                    18.683285
_cell_length_b                    18.936219
_cell_length_c                    18.959056
_cell_angle_alpha                 109.627625
_cell_angle_beta                  109.521030
_cell_angle_gamma                 108.922355
_cell_volume                      5185.015324
_symmetry_space_group_name_H-M    P1
_symmetry_Int_Tables_number       1
loop_
    _symmetry_equiv_pos_site_id
    _symmetry_equiv_pos_as_xyz
    1  x,y,z
loop_
    _atom_site_type_symbol
    _atom_site_label
    _atom_site_fract_x
    _atom_site_fract_y
    _atom_site_fract_z
    _atom_type_partial_charge
    O   O1   0.400423  0.352115  0.433666  -0.672846
    O   O2   0.405730  0.457589  0.544463  -0.680394
    C   C1   0.371523  0.376883  0.486434  0.682855
    O   O3   0.583949  0.433653  0.532517  -0.702043
    O   O4   0.589142  0.541734  0.640382  -0.653629
    C   C2   0.613428  0.484771  0.614509  0.514508
    Zn  Zn1  0.500279  0.426151  0.425703  1.298356
    Zn  Zn2  0.502747  0.564689  0.566692  1.284180
    O   O5   0.597263  0.533210  0.447839  -0.673682
    O   O6   0.602382  0.638752  0.558495  -0.667957
    O   O7   0.413865  0.449045  0.351844  -0.682035
    O   O8   0.419002  0.557075  0.459943  -0.673064
    C   C3   0.631314  0.613974  0.505719  0.661806
    C   C4   0.390737  0.507011  0.378071  0.675457
    C   C5   0.734899  0.452863  0.644630  -0.197769
    H   H1   0.760086  0.493210  0.618413  0.032818
    H   H2   0.693222  0.384660  0.592216  0.036270
    C   C6   0.811173  0.460346  0.715064  -0.024130
    H   H3   0.811612  0.398425  0.692356  0.007251
    H   H4   0.872818  0.511770  0.729668  -0.009427
    H   H5   0.781143  0.614402  0.739648  -0.007782
    H   H6   0.876331  0.620753  0.853292  -0.038096
    C   C7   0.745009  0.573044  0.759212  -0.152888
    C   C8   0.642455  0.419967  0.708590  -0.262309
    C   C9   0.682607  0.482713  0.681542  0.566643
    H   H7   0.597638  0.354942  0.650805  0.100117
    C   C10  0.802823  0.482149  0.795581  0.384501
    C   C11  0.809948  0.570242  0.829972  0.159602
    C   C12  0.714005  0.415976  0.772496  -0.003548
    H   H8   0.705978  0.350476  0.743135  0.014587
    H   H9   0.707592  0.429391  0.831048  -0.028772
    H   H10  0.711089  0.602998  0.785482  0.003034
    H   H11  0.796077  0.583296  0.884063  -0.066786
    H   H12  0.370350  0.353124  0.614774  0.165886
    C   C13  0.204729  0.259383  0.330916  -0.301977
    H   H13  0.250845  0.311803  0.331463  0.188786
    C   C14  0.128341  0.200181  0.254333  -0.070422
    H   H14  0.117288  0.206479  0.197573  0.094861
    C   C15  0.066439  0.132869  0.249922  -0.083221
    H   H15  0.006740  0.085691  0.189443  0.095913
    C   C16  0.079689  0.125736  0.322488  -0.212729
    H   H16  0.029030  0.071445  0.314620  0.144874
    C   C17  0.155449  0.186200  0.401296  0.085863
    C   C18  0.220016  0.252102  0.404418  0.198267
    C   C19  0.298445  0.311160  0.481260  -0.031401
    C   C20  0.309985  0.306895  0.554862  -0.208960
    H   H17  0.258446  0.239592  0.610934  0.133909
    C   C21  0.246811  0.241987  0.552198  -0.133731
    C   C22  0.169450  0.180953  0.476320  -0.032098
    H   H18  0.247487  0.375491  0.237978  0.164407
    C   C23  0.409470  0.668088  0.383240  -0.297451
    H   H19  0.466094  0.671116  0.427502  0.190531
    C   C24  0.415042  0.744919  0.391456  -0.044865
    H   H20  0.473529  0.804903  0.442226  0.087361
    C   C25  0.346007  0.745561  0.336035  -0.059046
    H   H21  0.349692  0.806087  0.343843  0.090584
    C   C26  0.272574  0.669262  0.269811  -0.281789
    H   H22  0.219696  0.673437  0.229032  0.185041
    C   C27  0.267159  0.590853  0.258348  0.155957
    C   C28  0.334383  0.590419  0.318797  0.168256
    C   C29  0.326567  0.512372  0.312432  -0.035637
    C   C30  0.254187  0.436323  0.243831  -0.196186
    H   H23  0.132728  0.376054  0.130172  0.157468
    C   C31  0.188662  0.436689  0.183346  -0.189942
    C   C32  0.194561  0.513056  0.189079  -0.018213
    H   H24  0.631017  0.631114  0.373833  0.145010
    C   C33  0.796006  0.740992  0.662204  -0.201897
    H   H25  0.751840  0.689290  0.664048  0.148919
    C   C34  0.870682  0.804895  0.738652  -0.094646
    H   H26  0.882222  0.802624  0.797450  0.108210
    C   C35  0.930001  0.871974  0.740385  -0.092652
    H   H27  0.988039  0.923075  0.800737  0.103397
    C   C36  0.916166  0.873929  0.665297  -0.233796
    H   H28  0.964255  0.928454  0.670780  0.158666
    C   C37  0.842512  0.808483  0.586793  0.133724
    C   C38  0.779943  0.743123  0.586094  0.116056
    C   C39  0.702873  0.679819  0.509223  -0.020332
    C   C40  0.690782  0.680053  0.433657  -0.166657
    H   H29  0.740988  0.743433  0.373902  0.147764
    C   C41  0.752554  0.744202  0.434018  -0.155012
    C   C42  0.828659  0.808628  0.509617  -0.037396
    O   O9   0.959883  0.355092  0.910870  -0.697475
    O   O10  0.057557  0.459068  0.902038  -0.676262
    C   C43  0.011810  0.378914  0.880949  0.736556
    O   O11  0.854434  0.436089  0.897773  -0.645187
    O   O12  0.955366  0.538018  0.889935  -0.668196
    C   C44  0.874620  0.484222  0.863676  0.436429
    Zn  Zn3  0.932933  0.426572  0.993885  1.284732
    Zn  Zn4  0.065731  0.564359  0.987950  1.293548
    O   O13  0.941022  0.531864  0.079733  -0.668913
    O   O14  0.039005  0.635886  0.071180  -0.697980
    O   O15  0.043340  0.452946  0.091919  -0.667108
    O   O16  0.144210  0.554637  0.083842  -0.676106
    C   C45  0.986761  0.612107  0.100851  0.710285
    C   C46  0.124033  0.507869  0.119205  0.651380
    O   O17  0.065989  0.086529  0.636682  -0.665696
    O   O18  0.946461  0.083258  0.543924  -0.670599
    C   C47  0.008341  0.112735  0.621960  0.673673
    O   O19  0.140055  0.083123  0.528952  -0.679319
    O   O20  0.023592  0.085947  0.439177  -0.681379
    C   C48  0.107453  0.112363  0.480106  0.696262
    Zn  Zn5  0.075202  0.994045  0.553473  1.275010
    Zn  Zn6  0.922351  0.993847  0.430567  1.275928
    O   O21  0.050977  0.904388  0.440204  -0.664114
    O   O22  0.931757  0.901605  0.347276  -0.679870
    O   O23  0.974004  0.902196  0.545164  -0.684056
    O   O24  0.857406  0.904563  0.454760  -0.666432
    C   C49  0.989326  0.875270  0.362221  0.683186
    C   C50  0.890117  0.875701  0.503963  0.685456
    H   H30  0.981039  0.351030  0.726057  0.135019
    C   C51  0.065697  0.264603  0.920457  -0.290853
    H   H31  0.073100  0.317883  0.972534  0.185294
    C   C52  0.084889  0.206534  0.938681  -0.082385
    H   H32  0.104836  0.214506  0.002589  0.101141
    C   C53  0.077930  0.138083  0.875461  -0.076457
    H   H33  0.091748  0.091603  0.889332  0.096580
    C   C54  0.054243  0.128842  0.794631  -0.210783
    H   H34  0.049268  0.073525  0.748051  0.143477
    C   C55  0.037084  0.188300  0.775413  0.073012
    C   C56  0.039641  0.255036  0.838509  0.223631
    C   C57  0.017747  0.312568  0.819760  -0.109046
    C   C58  0.997799  0.306108  0.740500  -0.122877
    H   H35  0.978933  0.236885  0.616114  0.148992
    C   C59  0.995563  0.240777  0.678146  -0.170460
    C   C60  0.014739  0.181321  0.694105  -0.013872
    H   H36  0.005381  0.631052  0.250460  0.144235
    C   C61  0.948009  0.738135  0.069393  -0.205542
    H   H37  0.940986  0.686348  0.016290  0.158104
    C   C62  0.936027  0.801209  0.055734  -0.103024
    H   H38  0.921714  0.798103  0.994265  0.100476
    C   C63  0.943173  0.868485  0.120454  -0.074193
    H   H39  0.935198  0.918911  0.110304  0.101798
    C   C64  0.959677  0.871480  0.198013  -0.252881
    H   H40  0.965546  0.926134  0.246475  0.163518
    C   C65  0.969065  0.806798  0.212161  0.136056
    C   C66  0.966693  0.741191  0.148086  0.132522
    C   C67  0.981293  0.678555  0.162737  -0.058022
    C   C68  0.994052  0.679593  0.238894  -0.160988
    H   H41  0.007370  0.744024  0.361865  0.146301
    C   C69  0.996192  0.744063  0.302146  -0.153372
    C   C70  0.983718  0.807841  0.289929  -0.035769
    I   I1   0.568583  0.453379  0.765597  -0.077871
