# Generated by REPEAT Assigner based on pymatgen
data_DB0-m2_o13_o28_f0_pcu.sym.72
_audit_creation_date              2022-05-24
_audit_creation_method            REPEAT_Assigner
_cell_length_a                    23.368988
_cell_length_b                    12.980639
_cell_length_c                    11.528996
_cell_angle_alpha                 99.715835
_cell_angle_beta                  94.217112
_cell_angle_gamma                 90.005409
_cell_volume                      3437.483777
_symmetry_space_group_name_H-M    P1
_symmetry_Int_Tables_number       1
loop_
    _symmetry_equiv_pos_site_id
    _symmetry_equiv_pos_as_xyz
    1  x,y,z
loop_
    _atom_site_type_symbol
    _atom_site_label
    _atom_site_fract_x
    _atom_site_fract_y
    _atom_site_fract_z
    _atom_type_partial_charge
    O   O1   0.502528  0.354860  0.576529  -0.648779
    O   O2   0.497187  0.643259  0.406045  -0.602002
    O   O3   0.500197  0.340501  0.374858  -0.596189
    O   O4   0.499302  0.657609  0.607713  -0.630390
    C   C1   0.501662  0.298693  0.470737  0.742269
    C   C2   0.497885  0.699406  0.511831  0.709523
    O   O5   0.419672  0.505783  0.590631  -0.532541
    O   O6   0.579921  0.492034  0.391982  -0.643246
    O   O7   0.413528  0.484243  0.388148  -0.643464
    O   O8   0.586083  0.514010  0.594292  -0.577066
    C   C3   0.389556  0.492473  0.488597  0.736942
    C   C4   0.610078  0.505415  0.493870  0.775669
    Cu  Cu1  0.503442  0.507504  0.608750  0.794379
    Cu  Cu2  0.496172  0.490617  0.373826  0.946021
    C   C5   0.881682  0.591582  0.479067  0.443095
    C   C6   0.116327  0.403199  0.456333  0.437642
    N   N1   0.852263  0.501163  0.473451  -0.133746
    N   N2   0.145897  0.493832  0.464933  -0.129964
    C   C7   0.879846  0.409100  0.463353  0.442485
    C   C8   0.118219  0.585669  0.471917  0.443967
    C   C9   0.938864  0.406195  0.459450  -0.124055
    C   C10  0.059006  0.588247  0.471544  -0.125154
    C   C11  0.969423  0.497941  0.466168  0.107173
    C   C12  0.028408  0.496460  0.464243  0.105836
    C   C13  0.940744  0.591243  0.475688  -0.121787
    C   C14  0.057127  0.403255  0.456027  -0.116383
    C   C15  0.967590  0.312384  0.450132  -0.062626
    C   C16  0.030238  0.681989  0.480116  -0.062289
    C   C17  0.026492  0.310916  0.448374  -0.066805
    C   C18  0.971335  0.683473  0.482078  -0.066899
    O   O9   0.853260  0.682168  0.486129  -0.490745
    O   O10  0.144625  0.312378  0.446750  -0.490570
    O   O11  0.849897  0.320165  0.460254  -0.491740
    O   O12  0.148532  0.675225  0.482951  -0.494274
    H   H1   0.944720  0.239164  0.444601  0.128747
    H   H2   0.053126  0.755226  0.485926  0.130127
    H   H3   0.047903  0.236603  0.441691  0.128361
    H   H4   0.949951  0.757836  0.489390  0.128769
    C   C19  0.236611  0.526652  0.385041  -0.222892
    C   C20  0.755821  0.453526  0.386520  -0.222000
    H   H5   0.213485  0.553957  0.311590  0.149674
    H   H6   0.773671  0.413434  0.307591  0.149321
    C   C21  0.295769  0.525159  0.391762  -0.072077
    C   C22  0.697179  0.455588  0.392895  -0.079227
    H   H7   0.317884  0.553049  0.323772  0.126445
    H   H8   0.670356  0.415292  0.318742  0.132890
    C   C23  0.326400  0.490900  0.485155  -0.155756
    C   C24  0.673113  0.506443  0.492839  -0.171236
    C   C25  0.296407  0.455381  0.571100  0.289706
    C   C26  0.709256  0.557629  0.586483  0.301192
    C   C27  0.237261  0.457104  0.563431  -0.269304
    C   C28  0.767943  0.554925  0.579166  -0.279390
    H   H9   0.214441  0.429983  0.631007  0.128796
    H   H10  0.795639  0.594278  0.652539  0.130270
    C   C29  0.207124  0.492735  0.471074  0.251597
    C   C30  0.791479  0.503027  0.479766  0.256852
    C   C31  0.497954  0.813739  0.523610  -0.061042
    C   C32  0.501495  0.184343  0.458953  -0.121181
    C   C33  0.500167  0.015329  0.337421  -0.288032
    C   C34  0.499161  0.982736  0.645138  -0.260322
    C   C35  0.501126  0.122744  0.348586  -0.037514
    C   C36  0.498261  0.875321  0.633971  -0.034428
    C   C37  0.500914  0.137144  0.557880  -0.114396
    C   C38  0.498461  0.860933  0.424677  -0.225846
    C   C39  0.499863  0.029515  0.546356  0.137985
    C   C40  0.499469  0.968556  0.436201  0.239658
    H   H11  0.498335  0.814278  0.337674  0.133829
    H   H12  0.501031  0.183796  0.644881  0.097708
    H   H13  0.497906  0.840606  0.712757  0.089646
    H   H14  0.501501  0.157442  0.269789  0.101883
    H   H15  0.499881  0.968102  0.250654  0.146236
    H   H16  0.499438  0.029947  0.731912  0.141821
    N   N3   0.509024  0.520060  0.784619  0.042206
    N   N4   0.490755  0.477984  0.197976  -0.061301
    C   C41  0.452578  0.393218  0.010203  -0.384335
    C   C42  0.543587  0.609811  0.972865  -0.288811
    C   C43  0.456740  0.403307  0.131581  0.069709
    C   C44  0.539767  0.599240  0.851458  -0.039896
    C   C45  0.518528  0.547712  0.147208  -0.113311
    C   C46  0.479854  0.452353  0.835679  -0.217374
    C   C47  0.514870  0.539972  0.026011  0.179734
    C   C48  0.482387  0.461610  0.956981  0.280047
    H   H17  0.454719  0.390034  0.781520  0.233673
    H   H18  0.544680  0.608728  0.201359  0.147229
    H   H19  0.562127  0.654492  0.810164  0.203017
    H   H20  0.433338  0.349505  0.173140  0.107249
    H   H21  0.426092  0.331736  0.957650  0.187728
    H   H22  0.569024  0.672731  0.025521  0.149266
    S   S1   0.331099  0.401130  0.690318  -0.231781
    C   C49  0.321718  0.268206  0.611253  -0.057034
    H   H23  0.354450  0.217813  0.647216  0.060534
    H   H24  0.327629  0.266195  0.516356  0.042752
    H   H25  0.278225  0.238714  0.622082  0.062013
    S   S2   0.683071  0.632862  0.716255  -0.227129
    C   C50  0.687536  0.754283  0.658792  -0.025906
    H   H26  0.732191  0.785240  0.673276  0.052316
    H   H27  0.658415  0.812071  0.705176  0.060873
    H   H28  0.673865  0.740525  0.563238  0.027374
