# Generated by REPEAT Assigner based on pymatgen
data_DB0-m29_o88_o510_f0_pts.sym.92
_audit_creation_date              2022-05-24
_audit_creation_method            REPEAT_Assigner
_cell_length_a                    15.474119
_cell_length_b                    14.467731
_cell_length_c                    13.387508
_cell_angle_alpha                 93.456229
_cell_angle_beta                  102.044845
_cell_angle_gamma                 112.041913
_cell_volume                      2684.967427
_symmetry_space_group_name_H-M    P1
_symmetry_Int_Tables_number       1
loop_
    _symmetry_equiv_pos_site_id
    _symmetry_equiv_pos_as_xyz
    1  x,y,z
loop_
    _atom_site_type_symbol
    _atom_site_label
    _atom_site_fract_x
    _atom_site_fract_y
    _atom_site_fract_z
    _atom_type_partial_charge
    C   C1   0.795381  0.009655  0.173050  0.286922
    C   C2   0.881235  0.016112  0.154328  -0.322883
    H   H1   0.941078  0.026375  0.218602  0.130953
    C   C3   0.890942  0.006780  0.055112  0.283657
    C   C4   0.814198  0.994959  0.973331  -0.210448
    H   H2   0.823631  0.994050  0.895798  0.151908
    C   C5   0.726396  0.988072  0.990115  -0.040017
    C   C6   0.716278  0.992508  0.091704  -0.144602
    C   C7   0.985199  0.014005  0.041644  -0.161049
    C   C8   0.996206  0.971418  0.956316  -0.233727
    H   H3   0.046806  0.053616  0.106131  0.159356
    H   H4   0.934647  0.932015  0.891667  0.153259
    C   C9   0.101686  0.966059  0.845745  -0.232552
    H   H5   0.042732  0.954616  0.779991  0.138403
    C   C10  0.188511  0.972537  0.829987  -0.070361
    H   H6   0.196510  0.967303  0.751803  0.158903
    C   C11  0.265953  0.989799  0.912314  -0.055681
    C   C12  0.254468  0.995271  0.012988  -0.027538
    C   C13  0.166491  0.989660  0.027757  -0.199592
    H   H7   0.156188  0.990939  0.104924  0.128466
    C   C14  0.090652  0.977442  0.944408  0.303757
    O   O1   0.546651  0.125834  0.738783  -0.657922
    C   C15  0.484155  0.164257  0.701528  0.703401
    O   O2   0.435622  0.083798  0.931678  -0.477073
    O   O3   0.395343  0.121803  0.709895  -0.562650
    O   O4   0.357042  0.944981  0.808569  -0.668158
    C   C16  0.357427  0.003606  0.887561  0.812911
    Fe  Fe1  0.484288  0.990526  0.776123  1.488807
    O   O5   0.568139  0.984910  0.909983  -0.554052
    O   O6   0.666769  0.984238  0.807299  -0.517435
    C   C17  0.650049  0.983181  0.899457  0.658763
    O   O7   0.468204  0.902224  0.646348  -0.588904
    O   O8   0.473153  0.778493  0.742487  -0.503178
    C   C18  0.466305  0.811320  0.653111  0.590204
    O   O9   0.508272  0.072149  0.355840  -0.597741
    O   O10  0.516141  0.200971  0.262921  -0.498294
    C   C19  0.517099  0.165578  0.350936  0.623579
    O   O11  0.407415  0.987794  0.092490  -0.562770
    O   O12  0.315353  0.006004  0.196912  -0.496769
    C   C20  0.329638  0.999202  0.104013  0.625162
    O   O13  0.589940  0.860961  0.297486  -0.619273
    O   O14  0.620583  0.035296  0.191944  -0.601856
    C   C21  0.623875  0.974992  0.116737  0.805303
    O   O15  0.435949  0.849083  0.263730  -0.666913
    C   C22  0.500790  0.814340  0.303211  0.749893
    O   O16  0.548266  0.891554  0.074966  -0.483504
    Fe  Fe2  0.493906  0.985082  0.225820  1.467560
    C   C23  0.483799  0.754220  0.386116  0.079135
    C   C24  0.500335  0.667261  0.389101  -0.295363
    H   H8   0.517055  0.636596  0.323527  0.148036
    C   C25  0.494118  0.618600  0.474845  0.306787
    C   C26  0.479993  0.663328  0.561785  -0.246792
    H   H9   0.483638  0.631933  0.632854  0.156730
    C   C27  0.467545  0.753188  0.559894  0.064894
    C   C28  0.465294  0.795295  0.470117  -0.156417
    C   C29  0.509650  0.524035  0.472132  -0.207372
    C   C30  0.477716  0.455073  0.532693  -0.194767
    C   C31  0.486286  0.311680  0.615659  -0.306004
    H   H10  0.470011  0.342786  0.681322  0.150666
    C   C32  0.501738  0.224120  0.618508  0.093133
    C   C33  0.519259  0.182281  0.534199  -0.136924
    C   C34  0.517413  0.224503  0.444481  0.037431
    C   C35  0.506484  0.315177  0.442906  -0.243361
    H   H11  0.503043  0.346647  0.371869  0.160105
    C   C36  0.492888  0.360328  0.529947  0.306675
    H   H12  0.457305  0.866147  0.466924  0.152164
    H   H13  0.526322  0.110948  0.537052  0.145662
    H   H14  0.547040  0.510758  0.416627  0.149528
    H   H15  0.440240  0.468303  0.588115  0.151277
    N   N1   0.787288  0.012827  0.276073  -0.316727
    C   C37  0.826668  0.107313  0.329205  0.672667
    O   O17  0.838335  0.179385  0.282937  -0.500499
    C   C38  0.855343  0.124491  0.444532  -0.548611
    H   H16  0.805626  0.961654  0.316153  0.248940
    H   H17  0.837315  0.051752  0.474917  0.130887
    H   H18  0.816498  0.166419  0.474085  0.177094
    H   H19  0.933975  0.169726  0.471603  0.154801
