# generated using pymatgen
data_Cu2H42C43(NO4)2
_symmetry_space_group_name_H-M   'P 1'
_cell_length_a   15.87535500
_cell_length_b   12.97836900
_cell_length_c   11.52291400
_cell_angle_alpha   99.71927200
_cell_angle_beta   94.20261100
_cell_angle_gamma   89.99282100
_symmetry_Int_Tables_number   1
_chemical_formula_structural   Cu2H42C43(NO4)2
_chemical_formula_sum   'Cu2 H42 C43 N2 O8'
_cell_volume   2333.58775594
_cell_formula_units_Z   1
loop_
 _symmetry_equiv_pos_site_id
 _symmetry_equiv_pos_as_xyz
  1  'x, y, z'
loop_
 _atom_site_type_symbol
 _atom_site_label
 _atom_site_symmetry_multiplicity
 _atom_site_fract_x
 _atom_site_fract_y
 _atom_site_fract_z
 _atom_site_occupancy
  Cu  Cu1  1  0.49593400  0.50516500  0.61855800  1
  Cu  Cu2  1  0.48758500  0.48534000  0.38306200  1
  H  H1  1  0.92907000  0.36477000  0.58963800  1
  H  H2  1  0.07086800  0.37090800  0.59948300  1
  H  H3  1  0.05415400  0.46919700  0.30973000  1
  H  H4  1  0.05825900  0.35416600  0.37709300  1
  H  H5  1  0.91330800  0.47493300  0.31086200  1
  H  H6  1  0.07817900  0.65780700  0.58543300  1
  H  H7  1  0.06067000  0.63933400  0.42838600  1
  H  H8  1  0.07222700  0.49973100  0.68750700  1
  H  H9  1  0.92918300  0.48279000  0.68899800  1
  H  H10  1  0.48127200  0.80938700  0.34754000  1
  H  H11  1  0.50764400  0.83670800  0.72378000  1
  H  H12  1  0.47515500  0.96268300  0.25950400  1
  H  H13  1  0.51010400  0.02607500  0.74206900  1
  H  H14  1  0.47659500  0.15206400  0.27756200  1
  H  H15  1  0.50379500  0.17947700  0.65417500  1
  H  H16  1  0.41514000  0.39782400  0.79218100  1
  H  H17  1  0.60123500  0.63246800  0.81739500  1
  H  H18  1  0.37097600  0.34241700  0.96764900  1
  H  H19  1  0.61476000  0.64811400  0.03266700  1
  H  H20  1  0.38207100  0.35863700  0.18313800  1
  H  H21  1  0.56979000  0.59221200  0.21068300  1
  H  H22  1  0.94736900  0.79798900  0.25798500  1
  H  H23  1  0.83971800  0.81692300  0.29932900  1
  H  H24  1  0.91774900  0.92012800  0.34426400  1
  H  H25  1  0.89264200  0.83571900  0.51083600  1
  H  H26  1  0.99827000  0.80713800  0.46565200  1
  H  H27  1  0.93140600  0.64186700  0.33595000  1
  H  H28  1  0.83893000  0.66758100  0.41323900  1
  H  H29  1  0.91617600  0.12105400  0.25071400  1
  H  H30  1  0.80876500  0.16478200  0.22780400  1
  H  H31  1  0.87482400  0.13888800  0.10513900  1
  H  H32  1  0.86283600  0.32853400  0.17423400  1
  H  H33  1  0.96997900  0.28509100  0.19742400  1
  H  H34  1  0.94051900  0.27227200  0.40729400  1
  H  H35  1  0.83667400  0.32032500  0.37883100  1
  H  H36  1  0.89034000  0.77177900  0.85804100  1
  H  H37  1  0.86567800  0.86273400  0.75723200  1
  H  H38  1  0.78161100  0.79697100  0.81430100  1
  H  H39  1  0.80523200  0.72021000  0.60750000  1
  H  H40  1  0.82267100  0.62887000  0.70963800  1
  H  H41  1  0.97268700  0.64568700  0.71496900  1
  H  H42  1  0.96863300  0.75868300  0.65372100  1
  C  C1  1  0.49128900  0.29403700  0.47934400  1
  C  C2  1  0.33070400  0.49450000  0.49970900  1
  C  C3  1  0.49346100  0.69501400  0.52203800  1
  C  C4  1  0.65418000  0.49469900  0.50174300  1
  C  C5  1  0.04593900  0.45122800  0.60414600  1
  C  C6  1  0.03418000  0.43500200  0.38545900  1
  C  C7  1  0.93842700  0.43714800  0.38477900  1
  C  C8  1  0.74459800  0.49653900  0.50207100  1
  C  C9  1  0.07227400  0.49782400  0.49967100  1
  C  C10  1  0.95048300  0.44718400  0.60218800  1
  C  C11  1  0.91305100  0.50122800  0.50285400  1
  C  C12  1  0.94794400  0.61682900  0.52022200  1
  C  C13  1  0.04320500  0.60977100  0.50824200  1
  C  C14  1  0.82060900  0.49889200  0.50288900  1
  C  C15  1  0.16443700  0.49601200  0.49938500  1
  C  C16  1  0.24034100  0.49508800  0.49947300  1
  C  C17  1  0.49431600  0.80929900  0.53398500  1
  C  C18  1  0.49028200  0.17960000  0.46744500  1
  C  C19  1  0.48134300  0.01024800  0.34630400  1
  C  C20  1  0.48219600  0.11767400  0.35688900  1
  C  C21  1  0.49747500  0.13266500  0.56696200  1
  C  C22  1  0.49647200  0.02510300  0.55598900  1
  C  C23  1  0.48841400  0.96385900  0.44575000  1
  C  C24  1  0.48747900  0.85625500  0.43461900  1
  C  C25  1  0.50231100  0.87111800  0.64453200  1
  C  C26  1  0.50356200  0.97856600  0.65527800  1
  C  C27  1  0.41502200  0.39810600  0.02016900  1
  C  C28  1  0.42162700  0.40715100  0.14142000  1
  C  C29  1  0.52612700  0.53712300  0.15639800  1
  C  C30  1  0.52050300  0.53029200  0.03517100  1
  C  C31  1  0.46494900  0.46013500  0.96678000  1
  C  C32  1  0.45939600  0.45258200  0.84565400  1
  C  C33  1  0.56290800  0.58333400  0.85975700  1
  C  C34  1  0.57007000  0.59259200  0.98112300  1
  C  C35  1  0.90859300  0.67555900  0.42250300  1
  C  C36  1  0.92997700  0.79230200  0.44129200  1
  C  C37  1  0.90715700  0.83428500  0.32814800  1
  C  C38  1  0.90313300  0.32450300  0.35707100  1
  C  C39  1  0.90496100  0.28190700  0.22584500  1
  C  C40  1  0.87415100  0.16926000  0.20096000  1
  C  C41  1  0.93758200  0.68122000  0.64554000  1
  C  C42  1  0.84725400  0.69951900  0.68074000  1
  C  C43  1  0.84646500  0.78864200  0.78433400  1
  N  N1  1  0.50863000  0.51354000  0.79400300  1
  N  N2  1  0.47787900  0.47447700  0.20731700  1
  O  O1  1  0.49961700  0.35005500  0.58553400  1
  O  O2  1  0.48362600  0.33599000  0.38338100  1
  O  O3  1  0.37512400  0.50521400  0.60136500  1
  O  O4  1  0.36490000  0.48378500  0.39837700  1
  O  O5  1  0.50126600  0.65303500  0.61782400  1
  O  O6  1  0.48522400  0.63899500  0.41600400  1
  O  O7  1  0.62004500  0.50530500  0.60301200  1
  O  O8  1  0.60982100  0.48399500  0.40016500  1
