data_DB0-m3_o12_o29_f0_pcu.sym.67_repeat
_audit_creation_date              2024-02-23
_audit_creation_method            'Materials Studio'
_symmetry_space_group_name_H-M    'P1'
_symmetry_Int_Tables_number       1
_symmetry_cell_setting            triclinic
loop_
_symmetry_equiv_pos_as_xyz
  x,y,z
_cell_length_a                    10.0942
_cell_length_b                    11.2410
_cell_length_c                    27.6572
_cell_angle_alpha                 89.9873
_cell_angle_beta                  80.7002
_cell_angle_gamma                 92.4699
loop_
_atom_site_label
_atom_site_type_symbol
_atom_site_fract_x
_atom_site_fract_y
_atom_site_fract_z
_atom_site_U_iso_or_equiv
_atom_site_adp_type
_atom_site_occupancy
O1     O     0.42610   0.68844   0.50584   0.00000  Uiso   1.00
O2     O     0.57224   0.30685   0.49627   0.00000  Uiso   1.00
O3     O     0.65354   0.65710   0.49169   0.00000  Uiso   1.00
O4     O     0.34475   0.33820   0.51028   0.00000  Uiso   1.00
C1     C     0.55200   0.72767   0.49807   0.00000  Uiso   1.00
C2     C     0.44632   0.26763   0.50397   0.00000  Uiso   1.00
O5     O     0.38768   0.51235   0.57995   0.00000  Uiso   1.00
O6     O     0.61055   0.48268   0.42208   0.00000  Uiso   1.00
O7     O     0.61513   0.48134   0.56590   0.00000  Uiso   1.00
O8     O     0.38328   0.51408   0.43610   0.00000  Uiso   1.00
C3     C     0.50182   0.49665   0.59555   0.00000  Uiso   1.00
C4     C     0.49655   0.49866   0.40646   0.00000  Uiso   1.00
Zn1    Zn    0.34927   0.51860   0.51030   0.00000  Uiso   1.00
Zn2    Zn    0.64906   0.47670   0.49171   0.00000  Uiso   1.00
C5     C     0.57599   0.58088   0.82029   0.00000  Uiso   1.00
C6     C     0.41170   0.42583   0.18220   0.00000  Uiso   1.00
O9     O     0.64561   0.66597   0.79144   0.00000  Uiso   1.00
O10    O     0.33001   0.34921   0.21164   0.00000  Uiso   1.00
N1     N     0.50375   0.49607   0.80036   0.00000  Uiso   1.00
N2     N     0.49587   0.50148   0.20154   0.00000  Uiso   1.00
C7     C     0.43093   0.41174   0.82892   0.00000  Uiso   1.00
C8     C     0.58067   0.57679   0.17233   0.00000  Uiso   1.00
C9     C     0.62150   0.48337   0.71652   0.00000  Uiso   1.00
C10    C     0.38076   0.52548   0.28523   0.00000  Uiso   1.00
C11    C     0.62116   0.48324   0.66667   0.00000  Uiso   1.00
C12    C     0.38069   0.52461   0.33511   0.00000  Uiso   1.00
C13    C     0.38449   0.50927   0.68094   0.00000  Uiso   1.00
C14    C     0.61153   0.47560   0.32126   0.00000  Uiso   1.00
C15    C     0.38506   0.50890   0.73075   0.00000  Uiso   1.00
C16    C     0.61125   0.47628   0.27143   0.00000  Uiso   1.00
C17    C     0.50348   0.49607   0.74876   0.00000  Uiso   1.00
C18    C     0.49595   0.50118   0.25317   0.00000  Uiso   1.00
C19    C     0.50214   0.49729   0.90021   0.00000  Uiso   1.00
C20    C     0.49753   0.50049   0.10166   0.00000  Uiso   1.00
C21    C     0.57631   0.58226   0.87032   0.00000  Uiso   1.00
C22    C     0.41153   0.42453   0.13217   0.00000  Uiso   1.00
C23    C     0.64880   0.66959   0.89063   0.00000  Uiso   1.00
C24    C     0.32506   0.34784   0.11260   0.00000  Uiso   1.00
C25    C     0.42901   0.41157   0.87907   0.00000  Uiso   1.00
C26    C     0.58249   0.57711   0.12218   0.00000  Uiso   1.00
C27    C     0.50257   0.49633   0.64856   0.00000  Uiso   1.00
C28    C     0.49612   0.49956   0.35343   0.00000  Uiso   1.00
H1     H     0.29038   0.51984   0.66788   0.00000  Uiso   1.00
H2     H     0.70306   0.45530   0.33451   0.00000  Uiso   1.00
H3     H     0.29225   0.52006   0.75564   0.00000  Uiso   1.00
H4     H     0.70169   0.45584   0.24675   0.00000  Uiso   1.00
H5     H     0.70572   0.73904   0.86831   0.00000  Uiso   1.00
H6     H     0.25437   0.28887   0.13565   0.00000  Uiso   1.00
C29    C     0.58307   0.58006   0.02135   0.00000  Uiso   1.00
C30    C     0.42193   0.41374   0.98023   0.00000  Uiso   1.00
C31    C     0.41538   0.41865   0.03119   0.00000  Uiso   1.00
C32    C     0.57896   0.58326   0.97096   0.00000  Uiso   1.00
C33    C     0.49864   0.49975   0.05124   0.00000  Uiso   1.00
C34    C     0.50103   0.49809   0.95062   0.00000  Uiso   1.00
C35    C     0.67070   0.65468   0.04281   0.00000  Uiso   1.00
C36    C     0.35214   0.32553   0.95784   0.00000  Uiso   1.00
C37    C     0.66987   0.65323   0.09247   0.00000  Uiso   1.00
C38    C     0.35560   0.32491   0.90804   0.00000  Uiso   1.00
O11    O     0.66174   0.65373   0.19225   0.00000  Uiso   1.00
O12    O     0.36190   0.32616   0.80832   0.00000  Uiso   1.00
C39    C     0.65010   0.67051   0.94016   0.00000  Uiso   1.00
C40    C     0.32639   0.34497   0.06293   0.00000  Uiso   1.00
H7     H     0.28943   0.54452   0.35939   0.00000  Uiso   1.00
H8     H     0.71486   0.47283   0.64225   0.00000  Uiso   1.00
H9     H     0.29027   0.54650   0.27138   0.00000  Uiso   1.00
H10    H     0.71466   0.47222   0.73022   0.00000  Uiso   1.00
H11    H     0.73973   0.71276   0.10733   0.00000  Uiso   1.00
H12    H     0.29952   0.25486   0.89245   0.00000  Uiso   1.00
H13    H     0.74540   0.71418   0.02239   0.00000  Uiso   1.00
H14    H     0.29566   0.25225   0.97730   0.00000  Uiso   1.00
H15    H     0.70601   0.74424   0.95290   0.00000  Uiso   1.00
H16    H     0.25231   0.28511   0.05115   0.00000  Uiso   1.00
H17    H     0.61982   0.09317   0.49374   0.00000  Uiso   1.00
H18    H     0.37851   0.90211   0.50834   0.00000  Uiso   1.00
C41    C     0.58137   0.85660   0.49628   0.00000  Uiso   1.00
C42    C     0.41694   0.13870   0.50577   0.00000  Uiso   1.00
C43    C     0.48294   0.93338   0.50209   0.00000  Uiso   1.00
C44    C     0.51538   0.06192   0.49999   0.00000  Uiso   1.00
H19    H     0.31304   0.10577   0.51202   0.00000  Uiso   1.00
H20    H     0.68529   0.88952   0.49000   0.00000  Uiso   1.00
H21    H     0.11849   0.42221   0.47355   0.00000  Uiso   1.00
H22    H     0.87796   0.56491   0.53168   0.00000  Uiso   1.00
N3     N     0.84586   0.44809   0.47915   0.00000  Uiso   1.00
N4     N     0.15249   0.54732   0.52279   0.00000  Uiso   1.00
C45    C     0.92486   0.50384   0.50469   0.00000  Uiso   1.00
C46    C     0.07261   0.48752   0.49882   0.00000  Uiso   1.00
C47    C     0.10331   0.63959   0.55644   0.00000  Uiso   1.00
C48    C     0.06556   0.74444   0.52923   0.00000  Uiso   1.00
C49    C     0.01794   0.83944   0.55364   0.00000  Uiso   1.00
H23    H     0.18504   0.66992   0.57650   0.00000  Uiso   1.00
H24    H     0.01864   0.60492   0.58415   0.00000  Uiso   1.00
H25    H     0.07791   0.74406   0.48955   0.00000  Uiso   1.00
H26    H     0.00583   0.84086   0.59330   0.00000  Uiso   1.00
H27    H     0.99114   0.91572   0.53387   0.00000  Uiso   1.00
C50    C     0.89640   0.36245   0.44264   0.00000  Uiso   1.00
C51    C     0.97601   0.42394   0.39882   0.00000  Uiso   1.00
C52    C     0.02864   0.36064   0.36041   0.00000  Uiso   1.00
H28    H     0.80980   0.31396   0.43047   0.00000  Uiso   1.00
H29    H     0.95532   0.29532   0.45819   0.00000  Uiso   1.00
H30    H     0.98953   0.52016   0.39784   0.00000  Uiso   1.00
H31    H     0.01476   0.26445   0.36100   0.00000  Uiso   1.00
H32    H     0.08519   0.40523   0.32837   0.00000  Uiso   1.00
