# Generated by REPEAT Assigner based on pymatgen
data_DB0-m3_o2_o8_f0_pcu.sym.72
_audit_creation_date              2022-05-24
_audit_creation_method            REPEAT_Assigner
_cell_length_a                    14.029148
_cell_length_b                    15.202439
_cell_length_c                    17.102043
_cell_angle_alpha                 89.639886
_cell_angle_beta                  93.590985
_cell_angle_gamma                 90.004860
_cell_volume                      3640.243478
_symmetry_space_group_name_H-M    P1
_symmetry_Int_Tables_number       1
loop_
    _symmetry_equiv_pos_site_id
    _symmetry_equiv_pos_as_xyz
    1  x,y,z
loop_
    _atom_site_type_symbol
    _atom_site_label
    _atom_site_fract_x
    _atom_site_fract_y
    _atom_site_fract_z
    _atom_type_partial_charge
    O   O1   0.581353  0.365590  0.499682  -0.697898
    O   O2   0.416851  0.628189  0.500479  -0.693961
    O   O3   0.416907  0.366099  0.499687  -0.687183
    O   O4   0.581354  0.627692  0.501302  -0.711758
    C   C1   0.498987  0.324705  0.499521  0.738392
    C   C2   0.499223  0.669082  0.501032  0.778827
    O   O5   0.589866  0.494654  0.617212  -0.672825
    O   O6   0.408237  0.498785  0.383348  -0.712364
    O   O7   0.425428  0.496137  0.616811  -0.706607
    O   O8   0.572699  0.497982  0.383773  -0.677206
    C   C3   0.510303  0.494867  0.653693  0.821702
    C   C4   0.487834  0.498893  0.346898  0.846315
    Zn  Zn1  0.607548  0.496636  0.500540  1.066792
    Zn  Zn2  0.390629  0.497149  0.500034  1.078566
    C   C5   0.516523  0.493271  0.739603  -0.171630
    C   C6   0.481750  0.500497  0.261020  -0.221297
    C   C7   0.436137  0.507681  0.780419  -0.030088
    C   C8   0.561318  0.482202  0.220317  -0.013837
    C   C9   0.441717  0.506092  0.861209  -0.247207
    C   C10  0.555703  0.482796  0.139512  -0.259214
    C   C11  0.528393  0.489109  0.902269  0.383933
    C   C12  0.470054  0.503473  0.098375  0.398892
    C   C13  0.608715  0.474208  0.861301  -0.124706
    C   C14  0.391111  0.523770  0.139280  -0.176533
    C   C15  0.602684  0.476415  0.780418  -0.061190
    C   C16  0.396593  0.520923  0.220120  0.016358
    N   N1   0.537263  0.487647  0.985202  -0.194909
    N   N2   0.461461  0.505873  0.015458  -0.188564
    H   H1   0.628673  0.465853  0.251086  0.098390
    H   H2   0.367922  0.521075  0.749799  0.103902
    H   H3   0.619976  0.466985  0.110817  0.113968
    H   H4   0.376541  0.518083  0.889966  0.109873
    H   H5   0.665917  0.462783  0.749603  0.106047
    H   H6   0.333653  0.536115  0.250792  0.083652
    C   C17  0.578755  0.091873  0.479823  -0.126556
    C   C18  0.416355  0.902037  0.480149  -0.113902
    H   H7   0.641439  0.058264  0.461742  0.101029
    H   H8   0.351001  0.935745  0.461521  0.096818
    C   C19  0.578958  0.182554  0.480270  -0.106819
    C   C20  0.416269  0.811358  0.481157  -0.109396
    H   H9   0.642108  0.217013  0.463832  0.106164
    H   H10  0.350731  0.777019  0.464540  0.101886
    C   C21  0.498787  0.228320  0.499460  -0.034915
    C   C22  0.499303  0.765470  0.500969  -0.070640
    C   C23  0.418661  0.182390  0.518917  -0.147373
    C   C24  0.582255  0.811279  0.520563  -0.080828
    H   H11  0.355511  0.216728  0.535200  0.120605
    H   H12  0.647835  0.776825  0.537267  0.107537
    C   C25  0.419053  0.091687  0.520023  -0.111135
    C   C26  0.581972  0.901985  0.521107  -0.145907
    H   H13  0.356443  0.057906  0.538373  0.091985
    H   H14  0.647269  0.935667  0.539505  0.103559
    C   C27  0.498975  0.045425  0.500132  0.068855
    C   C28  0.499107  0.948366  0.500498  0.069074
    C   C29  0.104737  0.427750  0.532612  -0.128737
    C   C30  0.891181  0.532814  0.438623  -0.124609
    H   H15  0.070581  0.371190  0.557215  0.119744
    H   H16  0.923305  0.559931  0.388010  0.112941
    C   C31  0.202978  0.429051  0.532136  -0.057560
    C   C32  0.793008  0.532409  0.439881  -0.014702
    H   H17  0.243834  0.374720  0.557792  0.152093
    H   H18  0.750411  0.560790  0.391291  0.130026
    N   N3   0.248007  0.497110  0.499799  -0.005241
    N   N4   0.750176  0.496682  0.500782  -0.017715
    C   C33  0.197781  0.565067  0.467583  -0.055343
    C   C34  0.802632  0.460969  0.561503  -0.052127
    H   H19  0.234502  0.619505  0.441871  0.160138
    H   H20  0.767731  0.432480  0.610194  0.147633
    C   C35  0.099479  0.566206  0.467505  -0.130360
    C   C36  0.901006  0.460774  0.562420  -0.117423
    H   H21  0.061344  0.622722  0.443067  0.116195
    H   H22  0.941173  0.433687  0.612886  0.108641
    C   C37  0.051615  0.496950  0.500192  0.112310
    C   C38  0.946591  0.496860  0.500432  0.080429
    C   C39  0.699786  0.452082  0.903350  0.186300
    C   C40  0.778742  0.505977  0.898412  -0.002368
    Cl  Cl1  0.770724  0.606185  0.847082  -0.088204
    C   C41  0.864559  0.482596  0.936613  -0.080594
    C   C42  0.872117  0.405813  0.979783  -0.148684
    C   C43  0.793608  0.352171  0.984974  -0.027490
    C   C44  0.707714  0.375173  0.946769  -0.256737
    H   H23  0.925999  0.524840  0.932841  0.086541
    H   H24  0.939546  0.387794  0.009651  0.103086
    H   H25  0.799464  0.291838  0.018713  0.094346
    H   H26  0.646706  0.332202  0.950233  0.139561
    C   C45  0.300981  0.548020  0.096964  0.236299
    C   C46  0.265460  0.632623  0.101519  -0.019124
    Cl  Cl2  0.329500  0.713997  0.154608  -0.089292
    C   C47  0.180326  0.654676  0.061594  -0.071257
    C   C48  0.130316  0.592642  0.017314  -0.175564
    C   C49  0.165437  0.508308  0.012727  -0.000599
    C   C50  0.250680  0.486043  0.052415  -0.300578
    H   H27  0.153034  0.720974  0.064649  0.098244
    H   H28  0.063789  0.610385  0.985974  0.121377
    H   H29  0.126157  0.459639  0.977985  0.094971
    H   H30  0.277817  0.419728  0.048917  0.146764
