data_DB0-m3_o11_o29_f0_pcu.sym.65_repeat
_audit_creation_date              2024-02-23
_audit_creation_method            'Materials Studio'
_symmetry_space_group_name_H-M    'P1'
_symmetry_Int_Tables_number       1
_symmetry_cell_setting            triclinic
loop_
_symmetry_equiv_pos_as_xyz
  x,y,z
_cell_length_a                    27.6086
_cell_length_b                    11.1344
_cell_length_c                    9.9090
_cell_angle_alpha                 89.9974
_cell_angle_beta                  89.9930
_cell_angle_gamma                 89.9936
loop_
_atom_site_label
_atom_site_type_symbol
_atom_site_fract_x
_atom_site_fract_y
_atom_site_fract_z
_atom_site_U_iso_or_equiv
_atom_site_adp_type
_atom_site_occupancy
O1     O     0.50267   0.33039   0.60343   0.00000  Uiso   1.00
O2     O     0.49830   0.33028   0.37127   0.00000  Uiso   1.00
C1     C     0.50002   0.27424   0.48766   0.00000  Uiso   1.00
O3     O     0.43231   0.51316   0.62066   0.00000  Uiso   1.00
O4     O     0.42752   0.51248   0.38840   0.00000  Uiso   1.00
C2     C     0.40725   0.51387   0.50798   0.00000  Uiso   1.00
Zn1    Zn    0.50536   0.50905   0.64071   0.00000  Uiso   1.00
Zn2    Zn    0.49822   0.50934   0.33411   0.00000  Uiso   1.00
O5     O     0.50563   0.68797   0.60407   0.00000  Uiso   1.00
O6     O     0.50092   0.68831   0.37102   0.00000  Uiso   1.00
O7     O     0.57610   0.50593   0.58675   0.00000  Uiso   1.00
O8     O     0.57128   0.50548   0.35411   0.00000  Uiso   1.00
C3     C     0.50360   0.74405   0.48778   0.00000  Uiso   1.00
C4     C     0.59633   0.50453   0.46699   0.00000  Uiso   1.00
C5     C     0.17780   0.42409   0.56996   0.00000  Uiso   1.00
O9     O     0.20256   0.32986   0.61921   0.00000  Uiso   1.00
N1     N     0.20206   0.52031   0.52288   0.00000  Uiso   1.00
C6     C     0.17784   0.61431   0.47025   0.00000  Uiso   1.00
C7     C     0.27994   0.51161   0.63957   0.00000  Uiso   1.00
C8     C     0.32998   0.51042   0.63628   0.00000  Uiso   1.00
C9     C     0.32773   0.52455   0.39586   0.00000  Uiso   1.00
C10    C     0.27791   0.52646   0.39952   0.00000  Uiso   1.00
C11    C     0.25375   0.51990   0.52107   0.00000  Uiso   1.00
C12    C     0.10230   0.51446   0.50802   0.00000  Uiso   1.00
C13    C     0.12772   0.42022   0.56340   0.00000  Uiso   1.00
C14    C     0.10308   0.32097   0.60872   0.00000  Uiso   1.00
C15    C     0.12781   0.61240   0.46200   0.00000  Uiso   1.00
C16    C     0.35415   0.51654   0.51413   0.00000  Uiso   1.00
H1     H     0.34547   0.52946   0.29883   0.00000  Uiso   1.00
H2     H     0.25782   0.53143   0.30604   0.00000  Uiso   1.00
H3     H     0.12202   0.24453   0.65027   0.00000  Uiso   1.00
C17    C     0.64944   0.50209   0.46092   0.00000  Uiso   1.00
C18    C     0.97616   0.41086   0.54338   0.00000  Uiso   1.00
C19    C     0.97703   0.59767   0.42013   0.00000  Uiso   1.00
C20    C     0.95169   0.50234   0.47659   0.00000  Uiso   1.00
C21    C     0.94895   0.32071   0.60494   0.00000  Uiso   1.00
C22    C     0.89936   0.31933   0.59608   0.00000  Uiso   1.00
C23    C     0.87537   0.40779   0.52638   0.00000  Uiso   1.00
C24    C     0.90140   0.49878   0.46673   0.00000  Uiso   1.00
C25    C     0.87647   0.58664   0.39795   0.00000  Uiso   1.00
C26    C     0.82638   0.58361   0.39162   0.00000  Uiso   1.00
N2     N     0.80158   0.49457   0.45248   0.00000  Uiso   1.00
C27    C     0.82534   0.40664   0.51843   0.00000  Uiso   1.00
C28    C     0.72362   0.49497   0.33543   0.00000  Uiso   1.00
C29    C     0.67358   0.49749   0.33865   0.00000  Uiso   1.00
C30    C     0.67590   0.50443   0.57943   0.00000  Uiso   1.00
C31    C     0.72571   0.50195   0.57591   0.00000  Uiso   1.00
C32    C     0.74986   0.49684   0.45422   0.00000  Uiso   1.00
O10    O     0.80018   0.31674   0.57568   0.00000  Uiso   1.00
C33    C     0.02690   0.41206   0.54815   0.00000  Uiso   1.00
C34    C     0.05201   0.51052   0.49793   0.00000  Uiso   1.00
C35    C     0.02733   0.60488   0.43718   0.00000  Uiso   1.00
C36    C     0.05348   0.31654   0.60115   0.00000  Uiso   1.00
H4     H     0.65377   0.49539   0.24463   0.00000  Uiso   1.00
H5     H     0.74211   0.49018   0.23940   0.00000  Uiso   1.00
H6     H     0.87991   0.24786   0.64609   0.00000  Uiso   1.00
H7     H     0.96434   0.25029   0.66532   0.00000  Uiso   1.00
H8     H     0.03756   0.23385   0.63493   0.00000  Uiso   1.00
O11    O     0.20255   0.71069   0.42638   0.00000  Uiso   1.00
C37    C     0.10325   0.70836   0.40820   0.00000  Uiso   1.00
H9     H     0.34977   0.50402   0.73008   0.00000  Uiso   1.00
H10    H     0.26137   0.50708   0.73550   0.00000  Uiso   1.00
H11    H     0.12215   0.78773   0.37411   0.00000  Uiso   1.00
C38    C     0.95121   0.68315   0.34661   0.00000  Uiso   1.00
C39    C     0.90169   0.67771   0.33635   0.00000  Uiso   1.00
O12    O     0.80217   0.67221   0.32890   0.00000  Uiso   1.00
C40    C     0.05377   0.70513   0.39622   0.00000  Uiso   1.00
H12    H     0.96795   0.75523   0.29169   0.00000  Uiso   1.00
H13    H     0.65822   0.50867   0.67658   0.00000  Uiso   1.00
H14    H     0.88330   0.74650   0.27900   0.00000  Uiso   1.00
H15    H     0.74579   0.50537   0.66950   0.00000  Uiso   1.00
H16    H     0.03756   0.78556   0.35692   0.00000  Uiso   1.00
C41    C     0.50044   0.94247   0.37998   0.00000  Uiso   1.00
C42    C     0.50464   0.87558   0.49169   0.00000  Uiso   1.00
H17    H     0.49702   0.89834   0.28300   0.00000  Uiso   1.00
H18    H     0.50926   0.91539   0.59013   0.00000  Uiso   1.00
C43    C     0.50094   0.07553   0.37985   0.00000  Uiso   1.00
C44    C     0.49920   0.14265   0.49190   0.00000  Uiso   1.00
H19    H     0.50235   0.11941   0.28247   0.00000  Uiso   1.00
H20    H     0.49705   0.10297   0.59106   0.00000  Uiso   1.00
C45    C     0.50439   0.60231   0.91519   0.00000  Uiso   1.00
N3     N     0.51207   0.50920   0.84174   0.00000  Uiso   1.00
H21    H     0.49596   0.68761   0.86819   0.00000  Uiso   1.00
H22    H     0.52508   0.43504   0.89192   0.00000  Uiso   1.00
C46    C     0.51084   0.59673   0.06290   0.00000  Uiso   1.00
N4     N     0.49253   0.51060   0.13260   0.00000  Uiso   1.00
H23    H     0.53025   0.66841   0.11332   0.00000  Uiso   1.00
O13    O     0.46084   0.44564   0.06470   0.00000  Uiso   1.00
C47    C     0.44069   0.34226   0.11478   0.00000  Uiso   1.00
C48    C     0.40593   0.29265   0.01418   0.00000  Uiso   1.00
C49    C     0.42254   0.25536   0.88967   0.00000  Uiso   1.00
C50    C     0.39065   0.20919   0.79599   0.00000  Uiso   1.00
C51    C     0.34209   0.20007   0.82658   0.00000  Uiso   1.00
C52    C     0.32542   0.23697   0.95098   0.00000  Uiso   1.00
C53    C     0.35725   0.28313   0.04484   0.00000  Uiso   1.00
H24    H     0.42136   0.36114   0.20986   0.00000  Uiso   1.00
H25    H     0.46959   0.27512   0.13234   0.00000  Uiso   1.00
H26    H     0.46061   0.26168   0.86547   0.00000  Uiso   1.00
H27    H     0.40375   0.17999   0.69856   0.00000  Uiso   1.00
H28    H     0.31710   0.16386   0.75313   0.00000  Uiso   1.00
H29    H     0.28734   0.22970   0.97502   0.00000  Uiso   1.00
H30    H     0.34368   0.31176   0.14198   0.00000  Uiso   1.00
