# Generated by REPEAT Assigner based on pymatgen
data_DB0-m3_o450_o6_f0_fsc.sym.19
_audit_creation_date              2022-05-24
_audit_creation_method            REPEAT_Assigner
_cell_length_a                    8.539446
_cell_length_b                    12.722578
_cell_length_c                    14.370087
_cell_angle_alpha                 90.891327
_cell_angle_beta                  90.062935
_cell_angle_gamma                 95.462183
_cell_volume                      1553.937935
_symmetry_space_group_name_H-M    P1
_symmetry_Int_Tables_number       1
loop_
    _symmetry_equiv_pos_site_id
    _symmetry_equiv_pos_as_xyz
    1  x,y,z
loop_
    _atom_site_type_symbol
    _atom_site_label
    _atom_site_fract_x
    _atom_site_fract_y
    _atom_site_fract_z
    _atom_type_partial_charge
    C   C1   0.170522  0.708706  0.020693  0.113680
    C   C2   0.829477  0.291294  0.979307  0.113725
    C   C3   0.182722  0.816102  0.005262  -0.432607
    C   C4   0.817278  0.183898  0.994738  -0.432607
    H   H1   0.297097  0.858838  0.996044  0.149975
    H   H2   0.702903  0.141162  0.003956  0.149977
    C   C5   0.048367  0.869431  0.003479  0.536563
    C   C6   0.951633  0.130569  0.996521  0.536442
    C   C7   0.901354  0.812709  0.007634  -0.238626
    C   C8   0.098645  0.187291  0.992366  -0.238576
    H   H3   0.793042  0.849084  0.998879  0.086686
    H   H4   0.206958  0.150916  0.001121  0.086704
    C   C9   0.890987  0.705700  0.022476  -0.064020
    C   C10  0.109013  0.294300  0.977524  -0.064019
    C   C11  0.024944  0.655629  0.034094  -0.266898
    C   C12  0.975056  0.344371  0.965906  -0.266873
    N   N1   0.063762  0.980564  0.995088  -0.249669
    N   N2   0.936237  0.019436  0.004913  -0.249438
    H   H5   0.015441  0.571847  0.045772  0.161314
    H   H6   0.984559  0.428153  0.954228  0.161292
    O   O1   0.684555  0.594611  0.090503  -0.744532
    O   O2   0.315445  0.405389  0.909497  -0.744435
    O   O3   0.682889  0.620512  0.931850  -0.717218
    O   O4   0.317110  0.379488  0.068150  -0.717087
    C   C13  0.741267  0.641097  0.015360  0.939159
    C   C14  0.258733  0.358903  0.984640  0.938965
    O   O5   0.653671  0.402147  0.910723  -0.751804
    O   O6   0.346329  0.597853  0.089277  -0.751750
    O   O7   0.643154  0.376289  0.069244  -0.718657
    O   O8   0.356846  0.623711  0.930756  -0.718680
    C   C15  0.695081  0.354229  0.985852  0.862746
    C   C16  0.304919  0.645770  0.014148  0.862752
    Zn  Zn1  0.502456  0.513345  0.897159  1.087373
    Zn  Zn2  0.497544  0.486655  0.102841  1.087249
    C   C17  0.485483  0.400610  0.459091  -0.228417
    C   C18  0.514517  0.599390  0.540909  -0.228347
    C   C19  0.497563  0.488982  0.404361  0.636661
    C   C20  0.502437  0.511018  0.595639  0.636584
    C   C21  0.512090  0.588301  0.445283  -0.218799
    C   C22  0.487910  0.411699  0.554717  -0.218730
    C   C23  0.495551  0.478619  0.304761  -0.227775
    C   C24  0.504449  0.521381  0.695239  -0.227732
    N   N3   0.505391  0.526488  0.775701  0.066352
    N   N4   0.494608  0.473511  0.224299  0.066394
    Br  Br1  0.471105  0.289570  0.630549  0.113981
    Br  Br2  0.528894  0.710430  0.369451  0.114000
    Br  Br3  0.465504  0.263351  0.402757  0.104375
    Br  Br4  0.534496  0.736649  0.597243  0.104346
