# generated using pymatgen
data_Zn3H32C48O13
_symmetry_space_group_name_H-M   'P 1'
_cell_length_a   47.84025600
_cell_length_b   35.54424100
_cell_length_c   31.99210700
_cell_angle_alpha   90.00000000
_cell_angle_beta   132.16567400
_cell_angle_gamma   90.00000000
_symmetry_Int_Tables_number   1
_chemical_formula_structural   Zn3H32C48O13
_chemical_formula_sum   'Zn12 H128 C192 O52'
_cell_volume   40322.27549565
_cell_formula_units_Z   4
loop_
 _symmetry_equiv_pos_site_id
 _symmetry_equiv_pos_as_xyz
  1  'x, y, z'
loop_
 _atom_site_type_symbol
 _atom_site_label
 _atom_site_symmetry_multiplicity
 _atom_site_fract_x
 _atom_site_fract_y
 _atom_site_fract_z
 _atom_site_occupancy
  Zn  Zn1  1  0.99983700  0.04505100  0.50003500  1
  Zn  Zn2  1  0.49983700  0.54505100  0.50003500  1
  Zn  Zn3  1  0.00005300  0.95986200  0.50026000  1
  Zn  Zn4  1  0.50005300  0.45986200  0.50026000  1
  Zn  Zn5  1  0.04277100  0.00038000  0.04340400  1
  Zn  Zn6  1  0.95735700  0.00022100  0.95713700  1
  Zn  Zn7  1  0.54277100  0.50038000  0.04340400  1
  Zn  Zn8  1  0.45735700  0.50022100  0.95713700  1
  Zn  Zn9  1  0.50000400  0.00017600  0.95280100  1
  Zn  Zn10  1  0.49983800  0.00029100  0.04725000  1
  Zn  Zn11  1  0.00000400  0.50017600  0.95280100  1
  Zn  Zn12  1  0.99983800  0.50029100  0.04725000  1
  H  H1  1  0.04838800  0.03755900  0.26196000  1
  H  H2  1  0.95197700  0.03745400  0.73872300  1
  H  H3  1  0.54838800  0.53755900  0.26196000  1
  H  H4  1  0.45197700  0.53745400  0.73872300  1
  H  H5  1  0.05126200  0.03231300  0.33516200  1
  H  H6  1  0.94901400  0.03199000  0.66546000  1
  H  H7  1  0.55126200  0.53231300  0.33516200  1
  H  H8  1  0.44901400  0.53199000  0.66546000  1
  H  H9  1  0.99847900  0.94189400  0.28264200  1
  H  H10  1  0.00121400  0.94123500  0.71770500  1
  H  H11  1  0.49847900  0.44189400  0.28264200  1
  H  H12  1  0.50121400  0.44123500  0.71770500  1
  H  H13  1  0.04479700  0.96272900  0.33315300  1
  H  H14  1  0.95502700  0.96234800  0.66727000  1
  H  H15  1  0.54479700  0.46272900  0.33315300  1
  H  H16  1  0.45502700  0.46234800  0.66727000  1
  H  H17  1  0.04935300  0.96769100  0.26752300  1
  H  H18  1  0.95053900  0.96758100  0.73294600  1
  H  H19  1  0.54935300  0.46769100  0.26752300  1
  H  H20  1  0.45053900  0.46758100  0.73294600  1
  H  H21  1  0.00598700  0.94126400  0.22007500  1
  H  H22  1  0.99372700  0.94087600  0.78029600  1
  H  H23  1  0.50598700  0.44126400  0.22007500  1
  H  H24  1  0.49372700  0.44087600  0.78029600  1
  H  H25  1  0.94638900  0.03270800  0.22871900  1
  H  H26  1  0.05388700  0.03171500  0.77180800  1
  H  H27  1  0.44638900  0.53270800  0.22871900  1
  H  H28  1  0.55388700  0.53171500  0.77180800  1
  H  H29  1  0.94121100  0.98230300  0.22784700  1
  H  H30  1  0.05873700  0.98126400  0.77253500  1
  H  H31  1  0.44121100  0.48230300  0.22784700  1
  H  H32  1  0.55873700  0.48126400  0.77253500  1
  H  H33  1  0.94358600  0.02602300  0.15575900  1
  H  H34  1  0.05670000  0.02522000  0.84480300  1
  H  H35  1  0.44358600  0.52602300  0.15575900  1
  H  H36  1  0.55670000  0.52522000  0.84480300  1
  H  H37  1  0.01001300  0.06199600  0.29671200  1
  H  H38  1  0.99045300  0.06140000  0.70394000  1
  H  H39  1  0.51001300  0.56199600  0.29671200  1
  H  H40  1  0.49045300  0.56140000  0.70394000  1
  H  H41  1  0.00375600  0.06190100  0.22015100  1
  H  H42  1  0.99677100  0.06148500  0.78055500  1
  H  H43  1  0.50375600  0.56190100  0.22015100  1
  H  H44  1  0.49677100  0.56148500  0.78055500  1
  H  H45  1  0.94476000  0.97537400  0.16133700  1
  H  H46  1  0.05518200  0.97456700  0.83907100  1
  H  H47  1  0.44476000  0.47537400  0.16133700  1
  H  H48  1  0.55518200  0.47456700  0.83907100  1
  H  H49  1  0.31085800  0.99864600  0.87658600  1
  H  H50  1  0.68896800  0.00064000  0.12337900  1
  H  H51  1  0.81085800  0.49864600  0.87658600  1
  H  H52  1  0.18896800  0.50064000  0.12337900  1
  H  H53  1  0.37961000  0.99868700  0.94660600  1
  H  H54  1  0.62021900  0.00114900  0.05339200  1
  H  H55  1  0.87961000  0.49868700  0.94660600  1
  H  H56  1  0.12021900  0.50114900  0.05339200  1
  H  H57  1  0.38040600  0.00223900  0.81345400  1
  H  H58  1  0.61944300  0.99803400  0.18657700  1
  H  H59  1  0.88040600  0.50223900  0.81345400  1
  H  H60  1  0.11944300  0.49803400  0.18657700  1
  H  H61  1  0.31166300  0.00217600  0.74443700  1
  H  H62  1  0.68818500  0.99755300  0.25556400  1
  H  H63  1  0.81166300  0.50217600  0.74443700  1
  H  H64  1  0.18818500  0.49755300  0.25556400  1
  H  H65  1  0.18758000  0.94657600  0.71151900  1
  H  H66  1  0.81224300  0.94326900  0.29330500  1
  H  H67  1  0.68758000  0.44657600  0.71151900  1
  H  H68  1  0.31224300  0.44326900  0.29330500  1
  H  H69  1  0.11882500  0.94780600  0.64284800  1
  H  H70  1  0.88097800  0.94437400  0.36206700  1
  H  H71  1  0.61882500  0.44780600  0.64284800  1
  H  H72  1  0.38097800  0.44437400  0.36206700  1
  H  H73  1  0.19014400  0.05617600  0.66098100  1
  H  H74  1  0.80969200  0.05626000  0.33417000  1
  H  H75  1  0.69014400  0.55617600  0.66098100  1
  H  H76  1  0.30969200  0.55626000  0.33417000  1
  H  H77  1  0.50145500  0.81183200  0.93569600  1
  H  H78  1  0.49774700  0.81153000  0.06492600  1
  H  H79  1  0.00145500  0.31183200  0.93569600  1
  H  H80  1  0.99774700  0.31153000  0.06492600  1
  H  H81  1  0.50154700  0.88044500  0.93551600  1
  H  H82  1  0.49781100  0.88013700  0.06565400  1
  H  H83  1  0.00154700  0.38044500  0.93551600  1
  H  H84  1  0.99781100  0.38013700  0.06565400  1
  H  H85  1  0.93943900  0.18897400  0.93745800  1
  H  H86  1  0.05938400  0.18873000  0.06218600  1
  H  H87  1  0.43943900  0.68897400  0.93745800  1
  H  H88  1  0.55938400  0.68873000  0.06218600  1
  H  H89  1  0.93887700  0.12036800  0.93676300  1
  H  H90  1  0.05966800  0.12011800  0.06237200  1
  H  H91  1  0.43887700  0.62036800  0.93676300  1
  H  H92  1  0.55966800  0.62011800  0.06237200  1
  H  H93  1  0.49854200  0.18865100  0.06454600  1
  H  H94  1  0.50219200  0.18898600  0.93525600  1
  H  H95  1  0.99854200  0.68865100  0.06454600  1
  H  H96  1  0.00219200  0.68898600  0.93525600  1
  H  H97  1  0.49836600  0.12003800  0.06461600  1
  H  H98  1  0.50204400  0.12037400  0.93442300  1
  H  H99  1  0.99836600  0.62003800  0.06461600  1
  H  H100  1  0.00204400  0.62037400  0.93442300  1
  H  H101  1  0.94070200  0.81186300  0.93820700  1
  H  H102  1  0.06064600  0.81156300  0.06297100  1
  H  H103  1  0.44070200  0.31186300  0.93820700  1
  H  H104  1  0.56064600  0.31156300  0.06297100  1
  H  H105  1  0.94044900  0.88047500  0.93811000  1
  H  H106  1  0.06123300  0.88017500  0.06375000  1
  H  H107  1  0.44044900  0.38047500  0.93811000  1
  H  H108  1  0.56123300  0.38017500  0.06375000  1
  H  H109  1  0.11030800  0.02829800  0.52515600  1
  H  H110  1  0.14503500  0.06527400  0.55343100  1
  H  H111  1  0.09478300  0.11291800  0.50206800  1
  H  H112  1  0.08620800  0.07736900  0.45399300  1
  H  H113  1  0.05963400  0.07691900  0.47560600  1
  H  H114  1  0.88585300  0.03231700  0.46925400  1
  H  H115  1  0.85439300  0.07248300  0.43988600  1
  H  H116  1  0.90888400  0.11550500  0.49153000  1
  H  H117  1  0.91332200  0.08309600  0.53942300  1
  H  H118  1  0.94063000  0.07580900  0.51975300  1
  H  H119  1  0.61030800  0.52829800  0.52515600  1
  H  H120  1  0.64503500  0.56527400  0.55343100  1
  H  H121  1  0.59478300  0.61291800  0.50206800  1
  H  H122  1  0.58620800  0.57736900  0.45399300  1
  H  H123  1  0.55963400  0.57691900  0.47560600  1
  H  H124  1  0.38585300  0.53231700  0.46925400  1
  H  H125  1  0.35439300  0.57248300  0.43988600  1
  H  H126  1  0.40888400  0.61550500  0.49153000  1
  H  H127  1  0.41332200  0.58309600  0.53942300  1
  H  H128  1  0.44063000  0.57580900  0.51975300  1
  C  C1  1  0.07375600  0.00339700  0.57193700  1
  C  C2  1  0.92611600  0.00154400  0.42832800  1
  C  C3  1  0.57375600  0.50339700  0.57193700  1
  C  C4  1  0.42611600  0.50154400  0.42832800  1
  C  C5  1  0.99819500  0.00313500  0.41658800  1
  C  C6  1  0.00171400  0.00176900  0.58372000  1
  C  C7  1  0.49819500  0.50313500  0.41658800  1
  C  C8  1  0.50171400  0.50176900  0.58372000  1
  C  C9  1  0.02146500  0.03539500  0.29529800  1
  C  C10  1  0.97883800  0.03491400  0.70530600  1
  C  C11  1  0.52146500  0.53539500  0.29529800  1
  C  C12  1  0.47883800  0.53491400  0.70530600  1
  C  C13  1  0.01626100  0.96603300  0.29081800  1
  C  C14  1  0.98359100  0.96551800  0.70960100  1
  C  C15  1  0.51626100  0.46603300  0.29081800  1
  C  C16  1  0.48359100  0.46551800  0.70960100  1
  C  C17  1  0.01922900  0.96691500  0.24654400  1
  C  C18  1  0.98065200  0.96657200  0.75389900  1
  C  C19  1  0.51922900  0.46691500  0.24654400  1
  C  C20  1  0.48065200  0.46657200  0.75389900  1
  C  C21  1  0.00001800  0.00075000  0.12707500  1
  C  C22  1  0.00011200  0.00056800  0.87346800  1
  C  C23  1  0.50001800  0.50075000  0.12707500  1
  C  C24  1  0.50011200  0.50056800  0.87346800  1
  C  C25  1  0.99864700  0.00236000  0.28847100  1
  C  C26  1  0.00142800  0.00168100  0.71201200  1
  C  C27  1  0.49864700  0.50236000  0.28847100  1
  C  C28  1  0.50142800  0.50168100  0.71201200  1
  C  C29  1  0.01943700  0.03647000  0.24594000  1
  C  C30  1  0.98091000  0.03612800  0.75470200  1
  C  C31  1  0.51943700  0.53647000  0.24594000  1
  C  C32  1  0.48091000  0.53612800  0.75470200  1
  C  C33  1  0.99934000  0.00159100  0.21000800  1
  C  C34  1  0.00078300  0.00116600  0.79052700  1
  C  C35  1  0.49934000  0.50159100  0.21000800  1
  C  C36  1  0.50078300  0.50116600  0.79052700  1
  C  C37  1  0.95894600  0.00185700  0.18498000  1
  C  C38  1  0.04116800  0.00111500  0.81551200  1
  C  C39  1  0.45894600  0.50185700  0.18498000  1
  C  C40  1  0.54116800  0.50111500  0.81551200  1
  C  C41  1  0.95864500  0.00520300  0.23191200  1
  C  C42  1  0.04146000  0.00431700  0.76855700  1
  C  C43  1  0.45864500  0.50520300  0.23191200  1
  C  C44  1  0.54146000  0.50431700  0.76855700  1
  C  C45  1  0.99972100  0.00112300  0.16452200  1
  C  C46  1  0.00041600  0.00083900  0.83602800  1
  C  C47  1  0.49972100  0.50112300  0.16452200  1
  C  C48  1  0.50041600  0.50083900  0.83602800  1
  C  C49  1  0.99826800  0.00274700  0.33394500  1
  C  C50  1  0.00176300  0.00190200  0.66649000  1
  C  C51  1  0.49826800  0.50274700  0.33394500  1
  C  C52  1  0.50176300  0.50190200  0.66649000  1
  C  C53  1  0.99809700  0.00296500  0.37151000  1
  C  C54  1  0.00188000  0.00192500  0.62886800  1
  C  C55  1  0.49809700  0.50296500  0.37151000  1
  C  C56  1  0.50188000  0.50192500  0.62886800  1
  C  C57  1  0.32634200  0.99940300  0.86304100  1
  C  C58  1  0.67348800  0.00002400  0.13693700  1
  C  C59  1  0.82634200  0.49940300  0.86304100  1
  C  C60  1  0.17348800  0.50002400  0.13693700  1
  C  C61  1  0.36515600  0.99945300  0.90238100  1
  C  C62  1  0.63467700  0.00033200  0.09761600  1
  C  C63  1  0.86515600  0.49945300  0.90238100  1
  C  C64  1  0.13467700  0.50033200  0.09761600  1
  C  C65  1  0.38495700  0.00048000  0.88503600  1
  C  C66  1  0.61488300  0.99964400  0.11498300  1
  C  C67  1  0.88495700  0.50048000  0.88503600  1
  C  C68  1  0.11488300  0.49964400  0.11498300  1
  C  C69  1  0.36560400  0.00143000  0.82809800  1
  C  C70  1  0.63424000  0.99859500  0.17191900  1
  C  C71  1  0.86560400  0.50143000  0.82809800  1
  C  C72  1  0.13424000  0.49859500  0.17191900  1
  C  C73  1  0.32679500  0.00138000  0.78894200  1
  C  C74  1  0.67304800  0.99829300  0.21105500  1
  C  C75  1  0.82679500  0.50138000  0.78894200  1
  C  C76  1  0.17304800  0.49829300  0.21105500  1
  C  C77  1  0.30725100  0.00036600  0.80645300  1
  C  C78  1  0.69258500  0.99901300  0.19352400  1
  C  C79  1  0.80725100  0.50036600  0.80645300  1
  C  C80  1  0.19258500  0.49901300  0.19352400  1
  C  C81  1  0.26695500  0.00053400  0.76567900  1
  C  C82  1  0.73288100  0.99902200  0.23429200  1
  C  C83  1  0.76695500  0.50053400  0.76567900  1
  C  C84  1  0.23288100  0.49902200  0.23429200  1
  C  C85  1  0.23307800  0.00083300  0.73133400  1
  C  C86  1  0.76675800  0.99923800  0.26864100  1
  C  C87  1  0.73307800  0.50083300  0.73133400  1
  C  C88  1  0.26675800  0.49923800  0.26864100  1
  C  C89  1  0.17281800  0.97096600  0.68489600  1
  C  C90  1  0.82701000  0.96839700  0.31783000  1
  C  C91  1  0.67281800  0.47096600  0.68489600  1
  C  C92  1  0.32701000  0.46839700  0.31783000  1
  C  C93  1  0.13402800  0.97173600  0.64587100  1
  C  C94  1  0.86580300  0.96912200  0.35691400  1
  C  C95  1  0.63402800  0.47173600  0.64587100  1
  C  C96  1  0.36580300  0.46912200  0.35691400  1
  C  C97  1  0.11502100  0.00305900  0.61219600  1
  C  C98  1  0.88483300  0.00134100  0.38795300  1
  C  C99  1  0.61502100  0.50305900  0.61219600  1
  C  C100  1  0.38483300  0.50134100  0.38795300  1
  C  C101  1  0.13532400  0.03333300  0.61685300  1
  C  C102  1  0.86451500  0.03265900  0.38050700  1
  C  C103  1  0.63532400  0.53333300  0.61685300  1
  C  C104  1  0.36451500  0.53265900  0.38050700  1
  C  C105  1  0.17416600  0.03248200  0.65656600  1
  C  C106  1  0.82567500  0.03180500  0.34074400  1
  C  C107  1  0.67416600  0.53248200  0.65656600  1
  C  C108  1  0.32567500  0.53180500  0.34074400  1
  C  C109  1  0.19278900  0.00142600  0.69042000  1
  C  C110  1  0.80704600  0.99980100  0.30957800  1
  C  C111  1  0.69278900  0.50142600  0.69042000  1
  C  C112  1  0.30704600  0.49980100  0.30957800  1
  C  C113  1  0.99917500  0.07397800  0.99940700  1
  C  C114  1  0.49917500  0.57397800  0.99940700  1
  C  C115  1  0.00037200  0.00039100  0.08243400  1
  C  C116  1  0.99974100  0.00031500  0.91809200  1
  C  C117  1  0.50037200  0.50039100  0.08243400  1
  C  C118  1  0.49974100  0.50031500  0.91809200  1
  C  C119  1  0.00095100  0.92661300  0.00112900  1
  C  C120  1  0.50095100  0.42661300  0.00112900  1
  C  C121  1  0.49973900  0.92655300  0.00078100  1
  C  C122  1  0.99973900  0.42655300  0.00078100  1
  C  C123  1  0.42616400  0.00048300  0.92668500  1
  C  C124  1  0.57367800  0.99997000  0.07334900  1
  C  C125  1  0.92616400  0.50048300  0.92668500  1
  C  C126  1  0.07367800  0.49997000  0.07334900  1
  C  C127  1  0.50010700  0.07392300  0.99927600  1
  C  C128  1  0.00010700  0.57392300  0.99927600  1
  C  C129  1  0.50065700  0.82700200  0.96416300  1
  C  C130  1  0.49858000  0.82683200  0.03658100  1
  C  C131  1  0.00065700  0.32700200  0.96416300  1
  C  C132  1  0.99858000  0.32683200  0.03658100  1
  C  C133  1  0.50070200  0.86578200  0.96423400  1
  C  C134  1  0.49862000  0.86561100  0.03681700  1
  C  C135  1  0.00070200  0.36578200  0.96423400  1
  C  C136  1  0.99862000  0.36561100  0.03681700  1
  C  C137  1  0.49968200  0.88531600  0.00060300  1
  C  C138  1  0.99968200  0.38531600  0.00060300  1
  C  C139  1  0.49959800  0.80754300  0.00029700  1
  C  C140  1  0.99959800  0.30754300  0.00029700  1
  C  C141  1  0.49954500  0.76720600  0.00013300  1
  C  C142  1  0.99954500  0.26720600  0.00013300  1
  C  C143  1  0.99949400  0.23332700  0.99999800  1
  C  C144  1  0.49949400  0.73332700  0.99999800  1
  C  C145  1  0.96577400  0.17368400  0.96481500  1
  C  C146  1  0.03298800  0.17354700  0.03470900  1
  C  C147  1  0.46577400  0.67368400  0.96481500  1
  C  C148  1  0.53298800  0.67354700  0.03470900  1
  C  C149  1  0.96561900  0.13490600  0.96459200  1
  C  C150  1  0.03298700  0.13476700  0.03464600  1
  C  C151  1  0.46561900  0.63490600  0.96459200  1
  C  C152  1  0.53298700  0.63476700  0.03464600  1
  C  C153  1  0.99926300  0.11521600  0.99954900  1
  C  C154  1  0.49926300  0.61521600  0.99954900  1
  C  C155  1  0.99941900  0.19299000  0.99983500  1
  C  C156  1  0.49941900  0.69299000  0.99983500  1
  C  C157  1  0.49930800  0.17349200  0.03603900  1
  C  C158  1  0.50135300  0.17368000  0.96359200  1
  C  C159  1  0.99930800  0.67349200  0.03603900  1
  C  C160  1  0.00135300  0.67368000  0.96359200  1
  C  C161  1  0.49921400  0.13470600  0.03590500  1
  C  C162  1  0.50126300  0.13489400  0.96329400  1
  C  C163  1  0.99921400  0.63470600  0.03590500  1
  C  C164  1  0.00126300  0.63489400  0.96329400  1
  C  C165  1  0.50019400  0.11517200  0.99949300  1
  C  C166  1  0.00019400  0.61517200  0.99949300  1
  C  C167  1  0.50037800  0.19297100  0.99992500  1
  C  C168  1  0.00037800  0.69297100  0.99992500  1
  C  C169  1  0.50047900  0.23332100  0.00015600  1
  C  C170  1  0.00047900  0.73332100  0.00015600  1
  C  C171  1  0.00056400  0.76720900  0.00034800  1
  C  C172  1  0.50056400  0.26720900  0.00034800  1
  C  C173  1  0.96710700  0.82702900  0.96571400  1
  C  C174  1  0.03431600  0.82686100  0.03562400  1
  C  C175  1  0.46710700  0.32702900  0.96571400  1
  C  C176  1  0.53431600  0.32686100  0.03562400  1
  C  C177  1  0.96712500  0.86581500  0.96582800  1
  C  C178  1  0.03448700  0.86564700  0.03589600  1
  C  C179  1  0.46712500  0.36581500  0.96582800  1
  C  C180  1  0.53448700  0.36564700  0.03589600  1
  C  C181  1  0.00085400  0.88536100  0.00095600  1
  C  C182  1  0.50085400  0.38536100  0.00095600  1
  C  C183  1  0.00066400  0.80756000  0.00056900  1
  C  C184  1  0.50066400  0.30756000  0.00056900  1
  C  C185  1  0.11713300  0.05810500  0.53889400  1
  C  C186  1  0.08745400  0.08298200  0.48931700  1
  C  C187  1  0.88172800  0.06193600  0.45523200  1
  C  C188  1  0.91324900  0.08567000  0.50480300  1
  C  C189  1  0.61713300  0.55810500  0.53889400  1
  C  C190  1  0.58745400  0.58298200  0.48931700  1
  C  C191  1  0.38172800  0.56193600  0.45523200  1
  C  C192  1  0.41324900  0.58567000  0.50480300  1
  O  O1  1  0.05616000  0.03582700  0.55384600  1
  O  O2  1  0.94379600  0.03392100  0.44454500  1
  O  O3  1  0.55616000  0.53582700  0.55384600  1
  O  O4  1  0.44379600  0.53392100  0.44454500  1
  O  O5  1  0.05613400  0.97098800  0.55610700  1
  O  O6  1  0.94368000  0.96908100  0.44604600  1
  O  O7  1  0.55613400  0.47098800  0.55610700  1
  O  O8  1  0.44368000  0.46908100  0.44604600  1
  O  O9  1  0.99920700  0.03565900  0.43694000  1
  O  O10  1  0.00231300  0.03416600  0.56464800  1
  O  O11  1  0.49920700  0.53565900  0.43694000  1
  O  O12  1  0.50231300  0.53416600  0.56464800  1
  O  O13  1  0.99789100  0.97072200  0.43594200  1
  O  O14  1  0.00035900  0.96924400  0.56303800  1
  O  O15  1  0.49789100  0.47072200  0.43594200  1
  O  O16  1  0.50035900  0.46924400  0.56303800  1
  O  O17  1  0.03165700  0.05628900  0.03313700  1
  O  O18  1  0.96663400  0.05644600  0.96555600  1
  O  O19  1  0.53165700  0.55628900  0.03313700  1
  O  O20  1  0.46663400  0.55644600  0.96555600  1
  O  O21  1  0.03306300  0.99950600  0.09606800  1
  O  O22  1  0.96705000  0.00118000  0.90445600  1
  O  O23  1  0.53306300  0.49950600  0.09606800  1
  O  O24  1  0.46705000  0.50118000  0.90445600  1
  O  O25  1  0.96798200  0.00121000  0.03007600  1
  O  O26  1  0.03213100  0.99949600  0.97045100  1
  O  O27  1  0.46798200  0.50121000  0.03007600  1
  O  O28  1  0.53213100  0.49949600  0.97045100  1
  O  O29  1  0.03348600  0.94415500  0.03498500  1
  O  O30  1  0.96848000  0.94431300  0.96740200  1
  O  O31  1  0.53348600  0.44415500  0.03498500  1
  O  O32  1  0.46848000  0.44431300  0.96740200  1
  O  O33  1  0.50073500  0.94425700  0.96579700  1
  O  O34  1  0.49878500  0.94407400  0.03589400  1
  O  O35  1  0.00073500  0.44425700  0.96579700  1
  O  O36  1  0.99878500  0.44407400  0.03589400  1
  O  O37  1  0.44394400  0.00130500  0.90860500  1
  O  O38  1  0.55589700  0.99925100  0.09143200  1
  O  O39  1  0.94394400  0.50130500  0.90860500  1
  O  O40  1  0.05589700  0.49925100  0.09143200  1
  O  O41  1  0.44355300  0.99957600  0.98027900  1
  O  O42  1  0.55629000  0.00093300  0.01975900  1
  O  O43  1  0.94355300  0.49957600  0.98027900  1
  O  O44  1  0.05629000  0.50093300  0.01975900  1
  O  O45  1  0.50104500  0.05639500  0.96414800  1
  O  O46  1  0.49912100  0.05621100  0.03426700  1
  O  O47  1  0.00104500  0.55639500  0.96414800  1
  O  O48  1  0.99912100  0.55621100  0.03426700  1
  O  O49  1  0.11749900  0.06408900  0.58244500  1
  O  O50  1  0.88231300  0.06446800  0.41222900  1
  O  O51  1  0.61749900  0.56408900  0.58244500  1
  O  O52  1  0.38231300  0.56446800  0.41222900  1
