# Generated by REPEAT Assigner based on pymatgen
data_DB0-m3_o460_o23_f0_fsc.sym.1_sqe
_audit_creation_date              2022-05-24
_audit_creation_method            REPEAT_Assigner
_cell_length_a                    8.719705
_cell_length_b                    14.154989
_cell_length_c                    8.557865
_cell_angle_alpha                 90.000000
_cell_angle_beta                  97.722691
_cell_angle_gamma                 90.000000
_cell_volume                      1046.694106
_symmetry_space_group_name_H-M    P1
_symmetry_Int_Tables_number       1
loop_
    _symmetry_equiv_pos_site_id
    _symmetry_equiv_pos_as_xyz
    1  x,y,z
loop_
    _atom_site_type_symbol
    _atom_site_label
    _atom_site_fract_x
    _atom_site_fract_y
    _atom_site_fract_z
    _atom_type_partial_charge
    C   C1   0.194567  0.021710  0.098284  -0.281238
    C   C2   0.271069  0.034568  0.969618  -0.098057
    H   H1   0.394000  0.047406  0.987275  0.121143
    C   C3   0.196532  0.021081  0.819409  -0.032315
    C   C4   0.040152  0.002347  0.795665  -0.346003
    H   H2   0.983411  0.990546  0.677097  0.140396
    C   C5   0.959097  0.996242  0.923783  0.238471
    C   C6   0.037057  0.003879  0.076023  0.234344
    H   H3   0.012597  0.009649  0.322676  0.141031
    C   C7   0.955937  0.997802  0.204086  -0.347458
    C   C8   0.799590  0.978998  0.180245  -0.031834
    H   H4   0.602211  0.952516  0.012460  0.119875
    C   C9   0.725124  0.965405  0.030134  -0.097344
    C   C10  0.801601  0.978364  0.901575  -0.281021
    O   O1   0.676389  0.070465  0.689456  -0.737574
    O   O2   0.638035  0.908942  0.686753  -0.753782
    C   C11  0.707102  0.985526  0.747405  0.979168
    O   O3   0.321006  0.929384  0.641372  -0.732076
    O   O4   0.359412  0.090562  0.649842  -0.768381
    C   C12  0.290684  0.014048  0.691466  0.910113
    O   O5   0.319807  0.929660  0.310590  -0.733239
    O   O6   0.358176  0.091104  0.313277  -0.758634
    C   C13  0.288952  0.014574  0.252650  0.981658
    O   O7   0.675265  0.070726  0.358229  -0.732784
    O   O8   0.636848  0.909484  0.349748  -0.763971
    C   C14  0.705295  0.986058  0.307931  0.906334
    Zn  Zn1  0.476878  0.896429  0.496806  1.075060
    Zn  Zn2  0.520182  0.103644  0.503167  1.096417
    C   C15  0.640435  0.562299  0.448301  -0.068312
    C   C16  0.645542  0.456455  0.423456  -0.197040
    C   C17  0.357626  0.543060  0.386178  -0.163289
    C   C18  0.363139  0.437340  0.413314  -0.101133
    H   H5   0.625475  0.440497  0.295464  0.039754
    H   H6   0.655893  0.599064  0.337048  0.042825
    H   H7   0.243471  0.570867  0.407890  0.057304
    H   H8   0.270402  0.416528  0.483327  0.022431
    H   H9   0.375586  0.558618  0.262930  0.035163
    H   H10  0.345683  0.400220  0.298167  0.048657
    N   N1   0.543744  0.226857  0.507052  0.057751
    N   N2   0.459040  0.772857  0.494380  0.068443
    C   C19  0.485503  0.588469  0.498280  0.661667
    C   C20  0.519253  0.411333  0.503337  0.677116
    C   C21  0.528719  0.448833  0.670154  -0.133167
    C   C22  0.478901  0.551430  0.663343  -0.136986
    C   C23  0.536117  0.308467  0.505918  -0.306481
    C   C24  0.468012  0.691298  0.495725  -0.312683
    H   H11  0.557434  0.592985  0.750138  0.057438
    H   H12  0.649634  0.443230  0.729167  0.027757
    H   H13  0.358733  0.557158  0.691415  0.031940
    H   H14  0.451495  0.407507  0.737314  0.056852
    H   H15  0.734577  0.583393  0.542069  0.017168
    H   H16  0.760315  0.428773  0.474790  0.068528
