# Generated by REPEAT Assigner based on pymatgen
data_DB0-m29_o80_o148_f0_pts.sym.82
_audit_creation_date              2022-05-24
_audit_creation_method            REPEAT_Assigner
_cell_length_a                    14.061547
_cell_length_b                    9.251816
_cell_length_c                    17.167588
_cell_angle_alpha                 86.696155
_cell_angle_beta                  90.671641
_cell_angle_gamma                 110.651312
_cell_volume                      2086.342674
_symmetry_space_group_name_H-M    P1
_symmetry_Int_Tables_number       1
loop_
    _symmetry_equiv_pos_site_id
    _symmetry_equiv_pos_as_xyz
    1  x,y,z
loop_
    _atom_site_type_symbol
    _atom_site_label
    _atom_site_fract_x
    _atom_site_fract_y
    _atom_site_fract_z
    _atom_type_partial_charge
    C   C1   0.702198  0.868361  0.901293  -0.155320
    C   C2   0.736467  0.762381  0.869934  -0.322386
    C   C3   0.831549  0.787436  0.900035  0.557584
    N   N1   0.856528  0.900932  0.950519  -0.552830
    C   C4   0.776769  0.949940  0.951615  0.464966
    C   C5   0.892306  0.716106  0.876657  -0.385984
    C   C6   0.000087  0.763955  0.896435  0.411618
    C   C7   0.073449  0.767447  0.843500  -0.287266
    C   C8   0.164900  0.823964  0.880979  -0.190265
    C   C9   0.143823  0.849846  0.956245  0.374670
    N   N2   0.042587  0.814182  0.965213  -0.438687
    C   C10  0.220423  0.913040  0.016076  -0.310512
    C   C11  0.213247  0.018668  0.062490  0.516521
    C   C12  0.289658  0.105765  0.109833  -0.188609
    C   C13  0.256948  0.216131  0.138163  -0.297897
    C   C14  0.160602  0.187406  0.109817  0.511182
    N   N3   0.133567  0.067866  0.062947  -0.555204
    C   C15  0.100354  0.260388  0.132124  -0.331266
    C   C16  0.990779  0.203339  0.117495  0.338631
    C   C17  0.918337  0.191967  0.173243  -0.064977
    C   C18  0.824707  0.131308  0.137450  -0.241851
    C   C19  0.844952  0.111565  0.060730  0.326841
    N   N4   0.946236  0.153774  0.049364  -0.445600
    C   C20  0.768314  0.051066  0.000421  -0.260332
    H   H1   0.698177  0.680297  0.827291  0.182963
    H   H2   0.865272  0.635538  0.830997  0.173782
    H   H3   0.061471  0.738957  0.783111  0.191501
    H   H4   0.290244  0.888735  0.015688  0.182373
    H   H5   0.296597  0.302434  0.178516  0.179468
    H   H6   0.130205  0.348328  0.173964  0.164340
    H   H7   0.698937  0.076564  0.000352  0.180527
    H   H8   0.003931  0.818997  0.015874  0.334220
    H   H9   0.983757  0.154954  0.997180  0.337974
    O   O1   0.640153  0.048286  0.134994  -0.660624
    C   C21  0.724389  0.085364  0.175353  0.815017
    O   O2   0.585026  0.753850  0.211218  -0.521287
    O   O3   0.717663  0.078663  0.251556  -0.557497
    O   O4   0.490848  0.838720  0.291005  -0.547867
    C   C22  0.534236  0.738170  0.276674  0.555372
    Fe  Fe1  0.527872  0.012072  0.210567  1.462171
    O   O5   0.398841  0.961487  0.149344  -0.653106
    O   O6   0.461592  0.222800  0.146888  -0.586389
    C   C23  0.388464  0.094978  0.129857  0.715191
    O   O7   0.578276  0.208341  0.267139  -0.536764
    O   O8   0.436512  0.076297  0.338954  -0.471982
    C   C24  0.514331  0.203584  0.322849  0.636761
    C   C25  0.448767  0.482459  0.702706  -0.187243
    C   C26  0.470936  0.617818  0.657235  0.074975
    C   C27  0.491486  0.621591  0.579212  -0.315322
    C   C28  0.452850  0.350710  0.671367  0.045517
    C   C29  0.468396  0.351997  0.590900  -0.127589
    C   C30  0.485035  0.487343  0.543970  0.308910
    C   C31  0.497198  0.485561  0.463098  -0.179472
    C   C32  0.505767  0.611852  0.410847  -0.101331
    C   C33  0.524773  0.606602  0.332258  -0.006513
    C   C34  0.464240  0.218745  0.556078  0.220860
    N   N5   0.481009  0.221972  0.479169  -0.407333
    C   C35  0.498320  0.350965  0.432981  0.407207
    C   C36  0.518124  0.347242  0.355036  -0.131031
    C   C37  0.535556  0.476148  0.305477  -0.117740
    H   H10  0.446554  0.109449  0.588687  0.109487
    H   H11  0.436204  0.483365  0.764633  0.190809
    H   H12  0.549270  0.470013  0.244185  0.199734
    H   H13  0.511765  0.732546  0.548134  0.160275
    H   H14  0.497609  0.716331  0.428672  0.153034
    O   O9   0.591093  0.010018  0.862881  -0.659592
    O   O10  0.530049  0.748734  0.865615  -0.575186
    C   C38  0.602603  0.877360  0.882442  0.708888
    O   O11  0.412642  0.760216  0.745503  -0.609615
    O   O12  0.557975  0.887058  0.676628  -0.570184
    C   C39  0.479370  0.760882  0.692826  0.725241
    O   O13  0.375688  0.188113  0.784694  -0.481587
    O   O14  0.349464  0.918720  0.877873  -0.652325
    C   C40  0.262708  0.866240  0.840836  0.769360
    O   O15  0.497392  0.130380  0.721400  -0.518837
    C   C41  0.439112  0.214537  0.725696  0.480006
    O   O16  0.262969  0.858926  0.764795  -0.536524
    Fe  Fe2  0.461695  0.957017  0.801879  1.472497
    C   C42  0.942292  0.233395  0.256233  -0.103174
    C   C43  0.960953  0.404172  0.264528  0.463869
    C   C44  0.861870  0.435158  0.259397  -0.309047
    C   C45  0.010259  0.452547  0.342564  -0.387524
    H   H15  0.011963  0.210154  0.273358  0.015038
    H   H16  0.883105  0.161027  0.297774  0.086860
    H   H17  0.012803  0.473774  0.217203  -0.091521
    H   H18  0.808508  0.365608  0.305922  0.111581
    H   H19  0.826998  0.406446  0.201470  0.023781
    H   H20  0.877218  0.559587  0.266933  0.052231
    H   H21  0.960680  0.381017  0.390629  0.080022
    H   H22  0.022209  0.576173  0.349427  0.090837
    H   H23  0.085020  0.437285  0.345310  0.068499
