# generated using pymatgen
data_Fe2H26(C17O7)3
_symmetry_space_group_name_H-M   'P 1'
_cell_length_a   17.42961400
_cell_length_b   9.45127500
_cell_length_c   15.83397600
_cell_angle_alpha   87.50931900
_cell_angle_beta   80.26123300
_cell_angle_gamma   105.90861700
_symmetry_Int_Tables_number   1
_chemical_formula_structural   Fe2H26(C17O7)3
_chemical_formula_sum   'Fe2 H26 C51 O21'
_cell_volume   2461.18827605
_cell_formula_units_Z   1
loop_
 _symmetry_equiv_pos_site_id
 _symmetry_equiv_pos_as_xyz
  1  'x, y, z'
loop_
 _atom_site_type_symbol
 _atom_site_label
 _atom_site_symmetry_multiplicity
 _atom_site_fract_x
 _atom_site_fract_y
 _atom_site_fract_z
 _atom_site_occupancy
  Fe  Fe1  1  0.50002800  0.99053000  0.18753600  1
  Fe  Fe2  1  0.50513300  0.00416900  0.81665600  1
  H  H1  1  0.12150500  0.03031500  0.25059800  1
  H  H2  1  0.23954500  0.95240200  0.83761400  1
  H  H3  1  0.00005200  0.06477900  0.22083200  1
  H  H4  1  0.11565200  0.96949900  0.80826400  1
  H  H5  1  0.03505500  0.08651400  0.78190000  1
  H  H6  1  0.75209800  0.97800000  0.17318300  1
  H  H7  1  0.76573300  0.07748600  0.80116900  1
  H  H8  1  0.51036500  0.70919900  0.41355400  1
  H  H9  1  0.44886100  0.23709500  0.46717600  1
  H  H10  1  0.47117600  0.70877900  0.54634800  1
  H  H11  1  0.50917300  0.54843100  0.78322300  1
  H  H12  1  0.26411400  0.79625100  0.29013000  1
  H  H13  1  0.21494900  0.75712100  0.19868600  1
  H  H14  1  0.16138800  0.80708200  0.29570000  1
  H  H15  1  0.64465800  0.43796300  0.55506500  1
  H  H16  1  0.62824000  0.35619000  0.45605100  1
  H  H17  1  0.65233300  0.25341100  0.54209900  1
  H  H18  1  0.34618500  0.41139400  0.25354500  1
  H  H19  1  0.35982700  0.24962300  0.20313900  1
  H  H20  1  0.36881800  0.41696800  0.13777900  1
  H  H21  1  0.85473100  0.73852600  0.16127600  1
  H  H22  1  0.77702200  0.74330200  0.25205700  1
  H  H23  1  0.87508700  0.73036900  0.26898100  1
  H  H24  1  0.86670800  0.87971500  0.74977800  1
  H  H25  1  0.95325400  0.96316100  0.66458400  1
  H  H26  1  0.85257000  0.96891500  0.65293300  1
  C  C1  1  0.23986500  0.98108400  0.13885700  1
  C  C2  1  0.11002200  0.01789300  0.18601600  1
  C  C3  1  0.30358900  0.98727600  0.07280100  1
  C  C4  1  0.29351000  0.00043000  0.98789800  1
  C  C5  1  0.16766000  0.99679100  0.12098100  1
  C  C6  1  0.15441400  0.99870800  0.03766000  1
  C  C7  1  0.21627600  0.99389100  0.97127800  1
  C  C8  1  0.19868000  0.97814200  0.88970100  1
  C  C9  1  0.03765800  0.03128200  0.16914500  1
  C  C10  1  0.01830200  0.01243900  0.08793300  1
  C  C11  1  0.07951500  0.00618000  0.02094400  1
  C  C12  1  0.06661000  0.00992000  0.93719300  1
  C  C13  1  0.12546900  0.98730100  0.87276600  1
  C  C14  1  0.87237600  0.97940600  0.13677500  1
  C  C15  1  0.94076800  0.00566100  0.07144000  1
  C  C16  1  0.93043000  0.02252100  0.98684400  1
  C  C17  1  0.99453000  0.03158200  0.91970600  1
  C  C18  1  0.98550300  0.06343200  0.83605800  1
  C  C19  1  0.79956100  0.98752000  0.11839600  1
  C  C20  1  0.78882300  0.00560300  0.03456700  1
  C  C21  1  0.85545700  0.02735900  0.96888100  1
  C  C22  1  0.84702600  0.05422900  0.88497500  1
  C  C23  1  0.71248000  0.99953300  0.01560600  1
  C  C24  1  0.70531200  0.02766000  0.93107900  1
  C  C25  1  0.91267700  0.07466500  0.81891300  1
  C  C26  1  0.77299800  0.05948200  0.86680800  1
  C  C27  1  0.63940800  0.96444900  0.08365700  1
  C  C28  1  0.48074200  0.70732700  0.25459500  1
  C  C29  1  0.38333000  0.00283100  0.09532500  1
  C  C30  1  0.46563500  0.18360700  0.30462900  1
  C  C31  1  0.50022100  0.79060800  0.69521300  1
  C  C32  1  0.62559700  0.00464600  0.90655300  1
  C  C33  1  0.51970700  0.28100800  0.74151600  1
  C  C34  1  0.36427300  0.02536300  0.91703000  1
  C  C35  1  0.47983600  0.57977400  0.31233300  1
  C  C36  1  0.49257200  0.59796600  0.39583900  1
  C  C37  1  0.48349700  0.47646500  0.45427000  1
  C  C38  1  0.46283500  0.33703000  0.42528500  1
  C  C39  1  0.46372100  0.32252300  0.33928100  1
  C  C40  1  0.46894700  0.44130800  0.28330600  1
  C  C41  1  0.51288400  0.38880200  0.59645200  1
  C  C42  1  0.51202500  0.40212500  0.68369900  1
  C  C43  1  0.50504200  0.53224800  0.71684500  1
  C  C44  1  0.49640200  0.64517000  0.66430100  1
  C  C45  1  0.48644400  0.62327700  0.58118900  1
  C  C46  1  0.49413600  0.49525200  0.54526600  1
  C  C47  1  0.22146200  0.82674900  0.25309800  1
  C  C48  1  0.61953200  0.33372800  0.52686900  1
  C  C49  1  0.38054900  0.37186700  0.19861100  1
  C  C50  1  0.84319000  0.77870200  0.22563700  1
  C  C51  1  0.89429000  0.97304500  0.69904300  1
  O  O1  1  0.58553200  0.03794400  0.08254100  1
  O  O2  1  0.46800300  0.69023700  0.17586400  1
  O  O3  1  0.62680700  0.85742400  0.14424600  1
  O  O4  1  0.49556000  0.84030100  0.28082400  1
  O  O5  1  0.39367700  0.90472300  0.15044800  1
  O  O6  1  0.44144000  0.12643500  0.07035100  1
  O  O7  1  0.52127400  0.18609000  0.23707400  1
  O  O8  1  0.41196600  0.05905200  0.33862700  1
  O  O9  1  0.47656200  0.80022400  0.77732600  1
  O  O10  1  0.53357800  0.91043300  0.64206700  1
  O  O11  1  0.61554000  0.09126600  0.84467900  1
  O  O12  1  0.56666000  0.88526700  0.93848300  1
  O  O13  1  0.36809800  0.10478400  0.84565300  1
  O  O14  1  0.50678600  0.14451400  0.71919700  1
  O  O15  1  0.42548600  0.97372700  0.92571700  1
  O  O16  1  0.53026300  0.30594200  0.82023500  1
  O  O17  1  0.25175100  0.97586900  0.22203700  1
  O  O18  1  0.53686200  0.27475700  0.56115300  1
  O  O19  1  0.46370000  0.41976100  0.19932900  1
  O  O20  1  0.87216700  0.93265400  0.21977000  1
  O  O21  1  0.90648300  0.10725700  0.73574100  1
