# generated using pymatgen
data_FeH9C26NO10F
_symmetry_space_group_name_H-M   'P 1'
_cell_length_a   16.31254400
_cell_length_b   19.29313600
_cell_length_c   13.11090300
_cell_angle_alpha   112.48894100
_cell_angle_beta   91.69741500
_cell_angle_gamma   69.94459500
_symmetry_Int_Tables_number   1
_chemical_formula_structural   FeH9C26NO10F
_chemical_formula_sum   'Fe2 H18 C52 N2 O20 F2'
_cell_volume   3556.69521173
_cell_formula_units_Z   2
loop_
 _symmetry_equiv_pos_site_id
 _symmetry_equiv_pos_as_xyz
  1  'x, y, z'
loop_
 _atom_site_type_symbol
 _atom_site_label
 _atom_site_symmetry_multiplicity
 _atom_site_fract_x
 _atom_site_fract_y
 _atom_site_fract_z
 _atom_site_occupancy
  Fe  Fe1  1  0.49617500  0.02069300  0.28670800  1
  Fe  Fe2  1  0.50470600  0.98109700  0.71396700  1
  H  H1  1  0.42925500  0.94360800  0.98227100  1
  H  H2  1  0.18885300  0.99447800  0.15893900  1
  H  H3  1  0.19798600  0.96136500  0.81765800  1
  H  H4  1  0.05789900  0.06787100  0.91005600  1
  H  H5  1  0.90126500  0.09291400  0.92631200  1
  H  H6  1  0.94447500  0.93183700  0.08986100  1
  H  H7  1  0.10053900  0.90894300  0.07695700  1
  H  H8  1  0.57298200  0.05484200  0.01814900  1
  H  H9  1  0.78197300  0.50397800  0.52580700  1
  H  H10  1  0.87973600  0.40800300  0.59157400  1
  H  H11  1  0.21670900  0.49589700  0.47310300  1
  H  H12  1  0.11895500  0.59185900  0.40732900  1
  H  H13  1  0.26663600  0.23274700  0.46094200  1
  H  H14  1  0.23840300  0.25156400  0.84296600  1
  H  H15  1  0.13974400  0.35662800  0.79211800  1
  H  H16  1  0.73223900  0.76726800  0.53877700  1
  H  H17  1  0.76060700  0.74975800  0.15745100  1
  H  H18  1  0.85870400  0.64394500  0.20735200  1
  C  C1  1  0.31421700  0.96580700  0.07805900  1
  C  C2  1  0.22601700  0.97795000  0.08100200  1
  C  C3  1  0.18451700  0.97312000  0.98638400  1
  C  C4  1  0.23096100  0.96114700  0.89029400  1
  C  C5  1  0.31963000  0.94946700  0.88774800  1
  C  C6  1  0.36139100  0.94833900  0.98061000  1
  C  C7  1  0.03367100  0.03717200  0.94882000  1
  C  C8  1  0.94479700  0.05158200  0.95844500  1
  C  C9  1  0.91153600  0.01460400  0.00991300  1
  C  C10  1  0.96842900  0.96333100  0.05228600  1
  C  C11  1  0.05708300  0.94989900  0.04421100  1
  C  C12  1  0.09033700  0.98637100  0.99196400  1
  C  C13  1  0.76984900  0.04277600  0.11273700  1
  C  C14  1  0.68157100  0.05241200  0.11443400  1
  C  C15  1  0.64065900  0.05069800  0.02023100  1
  C  C16  1  0.68832500  0.03124200  0.92223700  1
  C  C17  1  0.77666300  0.01861300  0.91901700  1
  C  C18  1  0.81729800  0.02734800  0.01506400  1
  C  C19  1  0.63265100  0.05251600  0.20702800  1
  C  C20  1  0.62912300  0.88268000  0.28372400  1
  C  C21  1  0.35430000  0.98860400  0.18071500  1
  C  C22  1  0.38031900  0.10758100  0.48010600  1
  C  C23  1  0.61955400  0.89320800  0.52055700  1
  C  C24  1  0.64791600  0.00769400  0.82000200  1
  C  C25  1  0.37065300  0.11904300  0.71753600  1
  C  C26  1  0.36794200  0.95033200  0.79575500  1
  C  C27  1  0.94639900  0.62586300  0.40388500  1
  C  C28  1  0.82786100  0.59494000  0.44561900  1
  C  C29  1  0.88319000  0.53927700  0.48284600  1
  C  C30  1  0.97140700  0.52728600  0.48047000  1
  C  C31  1  0.00341900  0.57046800  0.44027300  1
  C  C32  1  0.85090600  0.49585200  0.52298300  1
  C  C33  1  0.90671200  0.44111400  0.56065700  1
  C  C34  1  0.99526700  0.42940300  0.55864700  1
  C  C35  1  0.02727900  0.47256900  0.51841500  1
  C  C36  1  0.11548800  0.46060500  0.51607700  1
  C  C37  1  0.14778000  0.50401000  0.47590900  1
  C  C38  1  0.09197700  0.55874200  0.43823000  1
  C  C39  1  0.05227900  0.37408100  0.59516900  1
  C  C40  1  0.17080000  0.40502800  0.55344200  1
  C  C41  1  0.26195500  0.23690600  0.54529100  1
  C  C42  1  0.31730900  0.17515600  0.57139200  1
  C  C43  1  0.31040600  0.17963300  0.68016100  1
  C  C44  1  0.24589200  0.24576000  0.75818500  1
  C  C45  1  0.18959700  0.30584700  0.72984700  1
  C  C46  1  0.19767600  0.30175600  0.62321700  1
  C  C47  1  0.73695100  0.76333900  0.45454600  1
  C  C48  1  0.68198800  0.82550300  0.42896900  1
  C  C49  1  0.68896300  0.82151800  0.32050700  1
  C  C50  1  0.75305900  0.75525300  0.24207300  1
  C  C51  1  0.80904000  0.69473200  0.26986700  1
  C  C52  1  0.80099100  0.69846900  0.37631200  1
  N  N1  1  0.85991100  0.63742000  0.40725800  1
  N  N2  1  0.13875300  0.36258400  0.59188000  1
  O  O1  1  0.54881800  0.06353500  0.20159000  1
  O  O2  1  0.63617200  0.87189800  0.17882300  1
  O  O3  1  0.67437000  0.02564600  0.27913400  1
  O  O4  1  0.56827800  0.94747600  0.35425000  1
  O  O5  1  0.43863900  0.95072500  0.17911200  1
  O  O6  1  0.31380200  0.05947600  0.25968700  1
  O  O7  1  0.42272200  0.12245500  0.41204600  1
  O  O8  1  0.38231700  0.03412000  0.45390500  1
  O  O9  1  0.57566500  0.87870700  0.58757500  1
  O  O10  1  0.61960300  0.96619000  0.54824700  1
  O  O11  1  0.56511000  0.04922600  0.81953600  1
  O  O12  1  0.68457600  0.93433500  0.74502200  1
  O  O13  1  0.32572200  0.97608300  0.72298300  1
  O  O14  1  0.43287100  0.05524900  0.64762900  1
  O  O15  1  0.45176100  0.93949600  0.80079700  1
  O  O16  1  0.36263800  0.12933800  0.82214900  1
  O  O17  1  0.97668700  0.67031400  0.36837500  1
  O  O18  1  0.74179600  0.60638400  0.44664100  1
  O  O19  1  0.02199600  0.32968300  0.63079900  1
  O  O20  1  0.25684400  0.39366800  0.55254200  1
  F  F1  1  0.82400700  0.99394100  0.82015300  1
  F  F2  1  0.80947800  0.04926500  0.20658500  1
