# generated using pymatgen
data_Zn2H22C43(NO5)2
_symmetry_space_group_name_H-M   'P 1'
_cell_length_a   12.53211300
_cell_length_b   13.70766800
_cell_length_c   15.98284400
_cell_angle_alpha   89.99884600
_cell_angle_beta   102.15876000
_cell_angle_gamma   86.65242600
_symmetry_Int_Tables_number   1
_chemical_formula_structural   Zn2H22C43(NO5)2
_chemical_formula_sum   'Zn2 H22 C43 N2 O10'
_cell_volume   2679.24556460
_cell_formula_units_Z   1
loop_
 _symmetry_equiv_pos_site_id
 _symmetry_equiv_pos_as_xyz
  1  'x, y, z'
loop_
 _atom_site_type_symbol
 _atom_site_label
 _atom_site_symmetry_multiplicity
 _atom_site_fract_x
 _atom_site_fract_y
 _atom_site_fract_z
 _atom_site_occupancy
  Zn  Zn1  1  0.37949500  0.47801800  0.48274900  1
  Zn  Zn2  1  0.62175800  0.51733300  0.52388500  1
  H  H1  1  0.54713900  0.65362200  0.95281300  1
  H  H2  1  0.36696000  0.62408500  0.02856500  1
  H  H3  1  0.67999700  0.53570900  0.08377700  1
  H  H4  1  0.63397900  0.37152000  0.97800900  1
  H  H5  1  0.45380100  0.34198600  0.05375900  1
  H  H6  1  0.32094400  0.45989600  0.92279800  1
  H  H7  1  0.73559700  0.22748300  0.46807800  1
  H  H8  1  0.71866700  0.89612200  0.42122200  1
  H  H9  1  0.77380800  0.05650900  0.44055800  1
  H  H10  1  0.42998600  0.16440600  0.52080300  1
  H  H11  1  0.27108200  0.76135400  0.54400500  1
  H  H12  1  0.33220700  0.05759300  0.54582800  1
  H  H13  1  0.21880300  0.93083800  0.56446600  1
  H  H14  1  0.59514500  0.77356300  0.43051300  1
  H  H15  1  0.23994100  0.35222200  0.35917900  1
  H  H16  1  0.86900900  0.33850300  0.35213100  1
  H  H17  1  0.04705700  0.31596300  0.32599000  1
  H  H18  1  0.18832000  0.54679200  0.54841800  1
  H  H19  1  0.07915100  0.61381200  0.61259000  1
  H  H20  1  0.94746100  0.68406100  0.68413200  1
  H  H21  1  0.74225400  0.41211300  0.42725000  1
  H  H22  1  0.65866100  0.77817700  0.68482200  1
  C  C1  1  0.44988500  0.68623700  0.50203200  1
  C  C2  1  0.50182200  0.48790600  0.66681500  1
  C  C3  1  0.55089500  0.30957300  0.50316200  1
  C  C4  1  0.49894400  0.50747400  0.33973000  1
  C  C5  1  0.42747400  0.56672600  0.01586300  1
  C  C6  1  0.52594800  0.58301000  0.97697700  1
  C  C7  1  0.50147000  0.48765500  0.75654000  1
  C  C8  1  0.49938800  0.50784600  0.25002200  1
  C  C9  1  0.40233800  0.47720900  0.96054000  1
  C  C10  1  0.50080300  0.49355500  0.92327600  1
  C  C11  1  0.47499200  0.41259700  0.02959500  1
  C  C12  1  0.50013600  0.50205100  0.08329800  1
  C  C13  1  0.57346500  0.42888000  0.99071100  1
  C  C14  1  0.59860300  0.51839700  0.04603500  1
  C  C15  1  0.50117300  0.48951100  0.83186700  1
  C  C16  1  0.49973700  0.50605700  0.17470300  1
  C  C17  1  0.69838100  0.07857300  0.45978800  1
  C  C18  1  0.57881100  0.20494700  0.49593800  1
  C  C19  1  0.32316300  0.81683200  0.53057300  1
  C  C20  1  0.29372500  0.91255300  0.54310500  1
  C  C21  1  0.36034600  0.98520200  0.53176500  1
  C  C22  1  0.45729600  0.96378400  0.50406700  1
  C  C23  1  0.48518600  0.86612100  0.48839100  1
  C  C24  1  0.52748000  0.03708900  0.49229500  1
  C  C25  1  0.62398500  0.01040000  0.46681900  1
  C  C26  1  0.64620400  0.91559900  0.44559400  1
  C  C27  1  0.57622000  0.84485000  0.45358200  1
  C  C28  1  0.50471200  0.13654400  0.50458500  1
  C  C29  1  0.67702700  0.17523100  0.47578900  1
  C  C30  1  0.41970000  0.79183600  0.50527900  1
  C  C31  1  0.07567200  0.36769800  0.37552800  1
  C  C32  1  0.81526700  0.60856700  0.61357700  1
  C  C33  1  0.92222800  0.63198300  0.63411500  1
  C  C34  1  0.99743000  0.59071400  0.59234100  1
  C  C35  1  0.96570400  0.52366700  0.52842400  1
  C  C36  1  0.85566200  0.50088800  0.50863500  1
  C  C37  1  0.04091700  0.47884600  0.48377600  1
  C  C38  1  0.00450100  0.41277000  0.42039700  1
  C  C39  1  0.89705400  0.39062600  0.40147000  1
  C  C40  1  0.82405200  0.43368500  0.44497400  1
  C  C41  1  0.15202600  0.49718900  0.50021200  1
  C  C42  1  0.18388500  0.38801100  0.39399000  1
  C  C43  1  0.74262900  0.65729500  0.66321200  1
  N  N1  1  0.22010700  0.45185700  0.45564200  1
  N  N2  1  0.78090400  0.54349700  0.55088200  1
  O  O1  1  0.37044200  0.62595500  0.48707100  1
  O  O2  1  0.55349800  0.65538800  0.51983200  1
  O  O3  1  0.40963100  0.47587200  0.61237400  1
  O  O4  1  0.59335300  0.50446500  0.64345800  1
  O  O5  1  0.44713500  0.33964600  0.48813800  1
  O  O6  1  0.63069900  0.36937800  0.51897100  1
  O  O7  1  0.40766500  0.48954100  0.36299800  1
  O  O8  1  0.59077300  0.52123600  0.39419000  1
  O  O9  1  0.73809800  0.62403200  0.73304700  1
  O  O10  1  0.69899000  0.75152900  0.64034300  1
