# generated using pymatgen
data_CuH5C14N3O4F
_symmetry_space_group_name_H-M   'P 1'
_cell_length_a   12.59017800
_cell_length_b   14.00515700
_cell_length_c   19.27308100
_cell_angle_alpha   90.02244400
_cell_angle_beta   93.61864200
_cell_angle_gamma   98.21745000
_symmetry_Int_Tables_number   1
_chemical_formula_structural   CuH5C14N3O4F
_chemical_formula_sum   'Cu2 H10 C28 N6 O8 F2'
_cell_volume   3356.62231191
_cell_formula_units_Z   2
loop_
 _symmetry_equiv_pos_site_id
 _symmetry_equiv_pos_as_xyz
  1  'x, y, z'
loop_
 _atom_site_type_symbol
 _atom_site_label
 _atom_site_symmetry_multiplicity
 _atom_site_fract_x
 _atom_site_fract_y
 _atom_site_fract_z
 _atom_site_occupancy
  Cu  Cu1  1  0.39278300  0.49372400  0.49593300  1
  Cu  Cu2  1  0.60721700  0.50627600  0.50406700  1
  H  H1  1  0.32591000  0.48336400  0.27476400  1
  H  H2  1  0.67409000  0.51663600  0.72523600  1
  H  H3  1  0.66857800  0.51585000  0.16238900  1
  H  H4  1  0.33142200  0.48415000  0.83761100  1
  H  H5  1  0.66959500  0.51591000  0.28738300  1
  H  H6  1  0.33040500  0.48408900  0.71261800  1
  H  H7  1  0.37725600  0.97858300  0.49619700  1
  H  H8  1  0.62274400  0.02141700  0.50380300  1
  H  H9  1  0.02300400  0.58237600  0.55330700  1
  H  H10  1  0.97699600  0.41762400  0.44669300  1
  C  C1  1  0.48339900  0.31519900  0.49944700  1
  C  C2  1  0.51660100  0.68480100  0.50055300  1
  C  C3  1  0.49854200  0.49973500  0.36650700  1
  C  C4  1  0.50145800  0.50026500  0.63349300  1
  C  C5  1  0.40170100  0.49054300  0.25054700  1
  C  C6  1  0.59829900  0.50945700  0.74945400  1
  C  C7  1  0.40046600  0.49044900  0.17893100  1
  C  C8  1  0.59953400  0.50955000  0.82106900  1
  C  C9  1  0.49624200  0.49953800  0.14590400  1
  C  C10  1  0.50375900  0.50046200  0.85409600  1
  C  C11  1  0.59237100  0.50862200  0.18607300  1
  C  C12  1  0.40762900  0.49137800  0.81392700  1
  C  C13  1  0.59316700  0.50867500  0.25763200  1
  C  C14  1  0.40683400  0.49132500  0.74236800  1
  C  C15  1  0.49783300  0.49964200  0.29034200  1
  C  C16  1  0.50216700  0.50035800  0.70965800  1
  C  C17  1  0.50224000  0.50026700  0.93050800  1
  C  C18  1  0.49776000  0.49973200  0.06949200  1
  C  C19  1  0.52580200  0.78811800  0.50082600  1
  C  C20  1  0.47419900  0.21188200  0.49917500  1
  C  C21  1  0.54380100  0.97846700  0.50136100  1
  C  C22  1  0.45619900  0.02153300  0.49864000  1
  C  C23  1  0.46610900  0.12510400  0.49893400  1
  C  C24  1  0.53389100  0.87489600  0.50106600  1
  C  C25  1  0.02430900  0.47088300  0.48115700  1
  C  C26  1  0.97569200  0.52911700  0.51884300  1
  C  C27  1  0.86033600  0.52150300  0.51392000  1
  C  C28  1  0.13966400  0.47849700  0.48608000  1
  N  N1  1  0.59214500  0.50868300  0.03933900  1
  N  N2  1  0.40785500  0.49131700  0.96066200  1
  N  N3  1  0.59434100  0.50894400  0.97085200  1
  N  N4  1  0.40565900  0.49105500  0.02914800  1
  N  N5  1  0.23246400  0.48446800  0.48994200  1
  N  N6  1  0.76753600  0.51553200  0.51005800  1
  O  O1  1  0.39513700  0.35464500  0.49361000  1
  O  O2  1  0.60486400  0.64535400  0.50639000  1
  O  O3  1  0.57956100  0.36549200  0.50550600  1
  O  O4  1  0.42043900  0.63450800  0.49449400  1
  O  O5  1  0.40642300  0.49099700  0.39560500  1
  O  O6  1  0.59357800  0.50900300  0.60439500  1
  O  O7  1  0.59120100  0.50853700  0.40264400  1
  O  O8  1  0.40880000  0.49146300  0.59735600  1
  F  F1  1  0.30393400  0.48132200  0.14239600  1
  F  F2  1  0.69606600  0.51867700  0.85760400  1
