data_DB0-m3_o11_o23_f0_pcu.sym.72_repeat
_audit_creation_date              2024-02-23
_audit_creation_method            'Materials Studio'
_symmetry_space_group_name_H-M    'P1'
_symmetry_Int_Tables_number       1
_symmetry_cell_setting            triclinic
loop_
_symmetry_equiv_pos_as_xyz
  x,y,z
_cell_length_a                    15.9465
_cell_length_b                    11.1380
_cell_length_c                    9.9209
_cell_angle_alpha                 89.9974
_cell_angle_beta                  89.9751
_cell_angle_gamma                 89.9982
loop_
_atom_site_label
_atom_site_type_symbol
_atom_site_fract_x
_atom_site_fract_y
_atom_site_fract_z
_atom_site_U_iso_or_equiv
_atom_site_adp_type
_atom_site_occupancy
O1     O     0.50774   0.31947   0.60708   0.00000  Uiso   1.00
O2     O     0.50274   0.31941   0.37426   0.00000  Uiso   1.00
C1     C     0.50524   0.26352   0.49091   0.00000  Uiso   1.00
O3     O     0.38233   0.49775   0.61617   0.00000  Uiso   1.00
O4     O     0.37812   0.49900   0.38321   0.00000  Uiso   1.00
C2     C     0.34133   0.49796   0.50140   0.00000  Uiso   1.00
Zn1    Zn    0.50816   0.49813   0.64478   0.00000  Uiso   1.00
Zn2    Zn    0.50194   0.49849   0.33768   0.00000  Uiso   1.00
O5     O     0.50687   0.67689   0.60770   0.00000  Uiso   1.00
O6     O     0.50251   0.67740   0.37513   0.00000  Uiso   1.00
O7     O     0.63198   0.49867   0.59923   0.00000  Uiso   1.00
O8     O     0.62778   0.49926   0.36638   0.00000  Uiso   1.00
C3     C     0.50450   0.73312   0.49174   0.00000  Uiso   1.00
C4     C     0.66879   0.49869   0.48109   0.00000  Uiso   1.00
C5     C     0.04914   0.42947   0.61592   0.00000  Uiso   1.00
C6     C     0.05565   0.43921   0.36692   0.00000  Uiso   1.00
C7     C     0.96088   0.43057   0.36591   0.00000  Uiso   1.00
H1     H     0.92694   0.34713   0.62188   0.00000  Uiso   1.00
H2     H     0.06807   0.33387   0.60872   0.00000  Uiso   1.00
H3     H     0.07689   0.49349   0.27962   0.00000  Uiso   1.00
H4     H     0.08294   0.34789   0.35916   0.00000  Uiso   1.00
H5     H     0.94179   0.33498   0.37219   0.00000  Uiso   1.00
H6     H     0.93632   0.46959   0.27095   0.00000  Uiso   1.00
C8     C     0.75876   0.49883   0.47840   0.00000  Uiso   1.00
C9     C     0.08412   0.49836   0.49679   0.00000  Uiso   1.00
C10    C     0.95438   0.43843   0.61499   0.00000  Uiso   1.00
C11    C     0.92600   0.49866   0.48569   0.00000  Uiso   1.00
C12    C     0.95801   0.62681   0.48277   0.00000  Uiso   1.00
C13    C     0.05230   0.62658   0.50095   0.00000  Uiso   1.00
C14    C     0.83432   0.49881   0.48013   0.00000  Uiso   1.00
C15    C     0.17580   0.49819   0.50235   0.00000  Uiso   1.00
C16    C     0.25135   0.49806   0.50408   0.00000  Uiso   1.00
H7     H     0.06840   0.66774   0.59938   0.00000  Uiso   1.00
H8     H     0.08181   0.67963   0.41907   0.00000  Uiso   1.00
H9     H     0.92858   0.67932   0.56515   0.00000  Uiso   1.00
H10    H     0.07375   0.46767   0.71125   0.00000  Uiso   1.00
H11    H     0.93322   0.49209   0.70281   0.00000  Uiso   1.00
H12    H     0.94197   0.66877   0.38473   0.00000  Uiso   1.00
C17    C     0.50274   0.93162   0.38375   0.00000  Uiso   1.00
C18    C     0.50423   0.86463   0.49590   0.00000  Uiso   1.00
H13    H     0.50145   0.88745   0.28647   0.00000  Uiso   1.00
H14    H     0.50522   0.90405   0.59516   0.00000  Uiso   1.00
C19    C     0.50252   0.06475   0.38341   0.00000  Uiso   1.00
C20    C     0.50558   0.13203   0.49519   0.00000  Uiso   1.00
H15    H     0.49989   0.10864   0.28603   0.00000  Uiso   1.00
H16    H     0.50857   0.09280   0.59444   0.00000  Uiso   1.00
C21    C     0.55374   0.57227   0.92447   0.00000  Uiso   1.00
N1     N     0.51441   0.49851   0.84645   0.00000  Uiso   1.00
H17    H     0.49440   0.42091   0.89237   0.00000  Uiso   1.00
C22    C     0.55874   0.54746   0.07129   0.00000  Uiso   1.00
N2     N     0.49724   0.50049   0.13615   0.00000  Uiso   1.00
H18    H     0.61365   0.57404   0.12755   0.00000  Uiso   1.00
H19    H     0.44218   0.48962   0.08366   0.00000  Uiso   1.00
C23    C     0.59443   0.68286   0.86653   0.00000  Uiso   1.00
C24    C     0.64936   0.75068   0.96612   0.00000  Uiso   1.00
C25    C     0.68605   0.86077   0.89823   0.00000  Uiso   1.00
H20    H     0.72462   0.83335   0.81043   0.00000  Uiso   1.00
H21    H     0.63485   0.92095   0.86418   0.00000  Uiso   1.00
H22    H     0.72619   0.90961   0.97117   0.00000  Uiso   1.00
H23    H     0.61157   0.78085   0.05371   0.00000  Uiso   1.00
H24    H     0.70193   0.69273   0.99963   0.00000  Uiso   1.00
H25    H     0.63398   0.65710   0.77971   0.00000  Uiso   1.00
H26    H     0.54432   0.74497   0.83338   0.00000  Uiso   1.00
