# Generated by REPEAT Assigner based on pymatgen
data_DB0-m2_o1_o24_f0_nbo.sym.6_sqe
_audit_creation_date              2022-05-24
_audit_creation_method            REPEAT_Assigner
_cell_length_a                    18.432633
_cell_length_b                    18.559027
_cell_length_c                    18.741985
_cell_angle_alpha                 109.303490
_cell_angle_beta                  109.648426
_cell_angle_gamma                 108.921354
_cell_volume                      4968.051041
_symmetry_space_group_name_H-M    P1
_symmetry_Int_Tables_number       1
loop_
    _symmetry_equiv_pos_site_id
    _symmetry_equiv_pos_as_xyz
    1  x,y,z
loop_
    _atom_site_type_symbol
    _atom_site_label
    _atom_site_fract_x
    _atom_site_fract_y
    _atom_site_fract_z
    _atom_type_partial_charge
    O   O1   0.568784  0.544060  0.438925  -0.592209
    O   O2   0.605079  0.643900  0.576790  -0.598426
    C   C1   0.615781  0.623356  0.507747  0.685336
    O   O3   0.391835  0.436374  0.370656  -0.633587
    O   O4   0.426484  0.573341  0.472602  -0.608293
    C   C2   0.379343  0.504929  0.393198  0.698683
    Cu  Cu1  0.500637  0.445224  0.447721  0.962616
    Cu  Cu2  0.499144  0.563879  0.568866  0.956886
    O   O5   0.432312  0.365111  0.475692  -0.591671
    O   O6   0.393534  0.465046  0.541802  -0.613424
    O   O7   0.609258  0.472846  0.543926  -0.613200
    O   O8   0.571920  0.535668  0.645998  -0.603861
    C   C3   0.384570  0.385631  0.509339  0.711005
    C   C4   0.620269  0.503987  0.623493  0.725276
    C   C5   0.314626  0.588741  0.322502  -0.058279
    C   C6   0.216202  0.548685  0.292358  -0.083498
    H   H1   0.182877  0.582785  0.316352  0.042206
    H   H2   0.365928  0.656811  0.374278  0.054056
    C   C7   0.196354  0.506847  0.199248  0.191814
    C   C8   0.293532  0.547189  0.228104  -0.121479
    C   C9   0.291677  0.465440  0.230499  0.044421
    C   C10  0.193223  0.424975  0.200406  -0.170288
    C   C11  0.214913  0.467494  0.294465  0.122093
    C   C12  0.311813  0.507020  0.324000  0.017514
    H   H3   0.325545  0.581401  0.199650  0.069927
    H   H4   0.324443  0.430904  0.206003  0.034613
    H   H5   0.142158  0.357416  0.147245  0.076659
    C   C13  0.756038  0.761761  0.584700  -0.103330
    H   H6   0.763146  0.768002  0.646410  0.119381
    C   C14  0.821675  0.823476  0.583816  -0.096698
    H   H7   0.878327  0.877757  0.644936  0.115500
    C   C15  0.813842  0.816871  0.505653  -0.023933
    C   C16  0.740404  0.747483  0.428396  -0.095337
    H   H8   0.733369  0.740956  0.366626  0.116033
    C   C17  0.676415  0.684100  0.429233  -0.114096
    H   H9   0.619968  0.629667  0.368062  0.118666
    C   C18  0.683627  0.691274  0.507363  -0.005899
    C   C19  0.677345  0.492364  0.755771  -0.093577
    H   H10  0.617202  0.483700  0.757516  0.112429
    C   C20  0.741294  0.490080  0.818207  -0.106755
    H   H11  0.730872  0.480954  0.868696  0.117117
    C   C21  0.819124  0.502462  0.817858  0.002162
    C   C22  0.831677  0.514913  0.753341  -0.118504
    H   H12  0.892086  0.524086  0.752001  0.116949
    C   C23  0.765900  0.513098  0.688492  -0.089131
    H   H13  0.776112  0.522128  0.637876  0.116499
    C   C24  0.689024  0.502954  0.690211  -0.038948
    C   C25  0.251496  0.327943  0.521941  -0.040691
    H   H14  0.249415  0.387876  0.532945  0.117232
    C   C26  0.186076  0.261874  0.518464  -0.139104
    H   H15  0.134215  0.271445  0.527180  0.121997
    C   C27  0.188554  0.185524  0.506871  -0.010147
    C   C28  0.256403  0.175269  0.497777  -0.119546
    H   H16  0.259018  0.115683  0.488441  0.119006
    C   C29  0.319732  0.239854  0.497355  -0.080789
    H   H17  0.371452  0.229982  0.488617  0.113496
    C   C30  0.317618  0.316667  0.509651  -0.062243
    O   O9   0.955354  0.540059  0.098666  -0.587600
    O   O10  0.053775  0.646314  0.089487  -0.611194
    C   C31  0.003861  0.622111  0.122393  0.691759
    O   O11  0.044634  0.451960  0.099439  -0.616880
    O   O12  0.152163  0.557009  0.097270  -0.606726
    C   C32  0.127475  0.505074  0.127856  0.626616
    Cu  Cu3  0.945697  0.442069  0.006935  0.982003
    Cu  Cu4  0.069711  0.565278  0.006418  0.972698
    O   O13  0.958029  0.360755  0.920307  -0.598697
    O   O14  0.063767  0.467286  0.918212  -0.544144
    O   O15  0.863525  0.454027  0.919587  -0.606428
    O   O16  0.970723  0.551796  0.910728  -0.593688
    C   C33  0.012477  0.384965  0.891750  0.659074
    C   C34  0.887822  0.502621  0.885834  0.677891
    O   O17  0.031826  0.890575  0.464041  -0.589033
    O   O18  0.967632  0.931704  0.365610  -0.601653
    C   C35  0.999670  0.882401  0.385449  0.704113
    O   O19  0.963613  0.928411  0.572522  -0.598063
    O   O20  0.860903  0.894790  0.436137  -0.594586
    C   C36  0.882744  0.883136  0.504693  0.702429
    Cu  Cu5  0.061896  0.996999  0.562770  0.943590
    Cu  Cu6  0.940654  0.001570  0.445761  0.953568
    O   O21  0.072751  0.104190  0.642832  -0.579214
    O   O22  0.932997  0.070801  0.544516  -0.607577
    O   O23  0.140970  0.066454  0.534534  -0.602159
    O   O24  0.039648  0.107712  0.474156  -0.593782
    C   C37  0.003588  0.116793  0.623100  0.706676
    C   C38  0.119760  0.116403  0.504876  0.714227
    C   C39  0.013959  0.766683  0.189673  -0.104040
    H   H18  0.023248  0.778176  0.139701  0.122951
    C   C40  0.010474  0.828675  0.252115  -0.105023
    H   H19  0.018491  0.888574  0.251052  0.117886
    C   C41  0.999974  0.815479  0.317153  -0.014124
    C   C42  0.990920  0.739107  0.318174  -0.116702
    H   H20  0.982172  0.727684  0.368381  0.115614
    C   C43  0.990283  0.675474  0.253509  -0.078077
    H   H21  0.982215  0.615628  0.254724  0.112648
    C   C44  0.002851  0.689432  0.189639  -0.029626
    C   C45  0.089149  0.324597  0.822571  0.057603
    C   C46  0.085664  0.258647  0.757503  -0.171576
    H   H22  0.146310  0.265343  0.757949  0.090873
    C   C47  0.005903  0.185738  0.691841  0.013230
    C   C48  0.929064  0.178266  0.692038  -0.151696
    H   H23  0.866067  0.121230  0.641265  0.129322
    C   C49  0.932482  0.242500  0.758795  -0.086187
    H   H24  0.871793  0.235531  0.758402  0.121876
    C   C50  0.012147  0.316454  0.823963  -0.081868
    C   C51  0.175853  0.399280  0.890911  0.306536
    C   C52  0.218756  0.402106  0.968714  -0.244413
    C   C53  0.303589  0.469060  0.030326  -0.026962
    C   C54  0.344925  0.534128  0.015038  -0.176161
    C   C55  0.302003  0.531404  0.937344  -0.056030
    C   C56  0.217932  0.463391  0.874862  -0.233598
    H   H25  0.186686  0.350821  0.980592  0.100465
    H   H26  0.338048  0.470237  0.090405  0.088432
    H   H27  0.411305  0.586795  0.063622  0.115021
    H   H28  0.334695  0.581946  0.924962  0.102851
    H   H29  0.184893  0.460345  0.813273  0.108856
    C   C57  0.170615  0.428552  0.336221  0.078187
    C   C58  0.189152  0.482171  0.418755  -0.106408
    C   C59  0.143254  0.449351  0.455568  -0.109738
    C   C60  0.079635  0.362404  0.410593  -0.110483
    C   C61  0.062166  0.308260  0.328908  -0.040940
    C   C62  0.107140  0.341271  0.291450  -0.222471
    H   H30  0.238455  0.550617  0.454129  0.095699
    H   H31  0.157332  0.491775  0.519835  0.100373
    H   H32  0.043891  0.336569  0.439611  0.098150
    H   H33  0.012457  0.239993  0.293767  0.087175
    H   H34  0.091563  0.298296  0.226812  0.126528
