# generated using pymatgen
data_ZnH5C12NO5
_symmetry_space_group_name_H-M   'P 1'
_cell_length_a   8.52142400
_cell_length_b   12.30437900
_cell_length_c   13.09302000
_cell_angle_alpha   94.61848700
_cell_angle_beta   86.49780100
_cell_angle_gamma   90.87006100
_symmetry_Int_Tables_number   1
_chemical_formula_structural   ZnH5C12NO5
_chemical_formula_sum   'Zn2 H10 C24 N2 O10'
_cell_volume   1365.72824131
_cell_formula_units_Z   2
loop_
 _symmetry_equiv_pos_site_id
 _symmetry_equiv_pos_as_xyz
  1  'x, y, z'
loop_
 _atom_site_type_symbol
 _atom_site_label
 _atom_site_symmetry_multiplicity
 _atom_site_fract_x
 _atom_site_fract_y
 _atom_site_fract_z
 _atom_site_occupancy
  Zn  Zn1  1  0.49953200  0.12109600  0.51765100  1
  Zn  Zn2  1  0.50045100  0.87826100  0.48230100  1
  H  H1  1  0.13116300  0.91491300  0.99061700  1
  H  H2  1  0.86882200  0.08442400  0.00935000  1
  H  H3  1  0.28009400  0.97520100  0.15216600  1
  H  H4  1  0.71988500  0.02414600  0.84778800  1
  H  H5  1  0.00996100  0.05162000  0.43121400  1
  H  H6  1  0.99002600  0.94774700  0.56873700  1
  H  H7  1  0.49568300  0.52373500  0.61658000  1
  H  H8  1  0.50429900  0.47562000  0.38337500  1
  H  H9  1  0.74532900  0.91705400  0.06793900  1
  H  H10  1  0.25464700  0.08228500  0.93201800  1
  C  C1  1  0.15940700  0.01341000  0.29810000  1
  C  C2  1  0.84057600  0.98594700  0.70185200  1
  C  C3  1  0.16724900  0.98837300  0.19331200  1
  C  C4  1  0.83273200  0.01097600  0.80664200  1
  C  C5  1  0.03086900  0.98398300  0.14049800  1
  C  C6  1  0.96911200  0.01536200  0.85945600  1
  C  C7  1  0.88523100  0.99098400  0.19435900  1
  C  C8  1  0.11475100  0.00836300  0.80559500  1
  C  C9  1  0.87925600  0.01731600  0.29931200  1
  C  C10  1  0.12072500  0.98204000  0.70064000  1
  C  C11  1  0.01603600  0.03358600  0.34909900  1
  C  C12  1  0.98394600  0.96577600  0.65085200  1
  C  C13  1  0.04371100  0.97012700  0.02796700  1
  C  C14  1  0.95626800  0.02921400  0.97198600  1
  C  C15  1  0.29635100  0.00879700  0.35964500  1
  C  C16  1  0.70363100  0.99056000  0.64030800  1
  C  C17  1  0.26607500  0.98785600  0.63668600  1
  C  C18  1  0.73390900  0.01150200  0.36326700  1
  C  C19  1  0.50158900  0.52405100  0.45637000  1
  C  C20  1  0.49839300  0.47530700  0.54358200  1
  C  C21  1  0.49854400  0.35825600  0.54076300  1
  C  C22  1  0.50143800  0.64110100  0.45918900  1
  C  C23  1  0.74012700  0.96309600  0.14212900  1
  C  C24  1  0.25985400  0.03624700  0.85782600  1
  N  N1  1  0.50124900  0.73537000  0.46321500  1
  N  N2  1  0.49873400  0.26398800  0.53673800  1
  O  O1  1  0.34270500  0.91233300  0.38110100  1
  O  O2  1  0.65727800  0.08702500  0.61885200  1
  O  O3  1  0.34726800  0.10018900  0.40562200  1
  O  O4  1  0.65271500  0.89916900  0.59433100  1
  O  O5  1  0.31931800  0.08481500  0.61637200  1
  O  O6  1  0.68066500  0.91454300  0.38358100  1
  O  O7  1  0.32443900  0.89690000  0.59200200  1
  O  O8  1  0.67554400  0.10245800  0.40795100  1
  O  O9  1  0.61200400  0.98926300  0.18233600  1
  O  O10  1  0.38797600  0.01007800  0.81761900  1
