# generated using pymatgen
data_ZnH11C26NO5
_symmetry_space_group_name_H-M   'P 1'
_cell_length_a   17.46447800
_cell_length_b   8.55073100
_cell_length_c   15.06145600
_cell_angle_alpha   90.00000000
_cell_angle_beta   90.98018500
_cell_angle_gamma   90.00000000
_symmetry_Int_Tables_number   1
_chemical_formula_structural   ZnH11C26NO5
_chemical_formula_sum   'Zn2 H22 C52 N2 O10'
_cell_volume   2248.85915373
_cell_formula_units_Z   2
loop_
 _symmetry_equiv_pos_site_id
 _symmetry_equiv_pos_as_xyz
  1  'x, y, z'
loop_
 _atom_site_type_symbol
 _atom_site_label
 _atom_site_symmetry_multiplicity
 _atom_site_fract_x
 _atom_site_fract_y
 _atom_site_fract_z
 _atom_site_occupancy
  Zn  Zn1  1  0.91488700  0.49999500  0.50556800  1
  Zn  Zn2  1  0.08511300  0.50000500  0.49443100  1
  H  H1  1  0.03048400  0.99999500  0.56194400  1
  H  H2  1  0.96951600  0.00000500  0.43805600  1
  H  H3  1  0.99476500  0.24990900  0.80094300  1
  H  H4  1  0.00523500  0.75009100  0.19905700  1
  H  H5  1  0.00526500  0.24989700  0.19905500  1
  H  H6  1  0.99473500  0.75010400  0.80094500  1
  H  H7  1  0.88071900  0.99978200  0.08365800  1
  H  H8  1  0.11928100  0.00021800  0.91634100  1
  H  H9  1  0.80850800  0.49998900  0.36998800  1
  H  H10  1  0.19149200  0.50001200  0.63001200  1
  H  H11  1  0.69098800  0.49999200  0.28567400  1
  H  H12  1  0.30901200  0.50000900  0.71432600  1
  H  H13  1  0.68752400  0.49999200  0.72649500  1
  H  H14  1  0.31247600  0.50000800  0.27350500  1
  H  H15  1  0.57261500  0.49999700  0.20203400  1
  H  H16  1  0.42738500  0.50000400  0.79796600  1
  H  H17  1  0.43240500  0.50000300  0.19753000  1
  H  H18  1  0.56759500  0.49999700  0.80247000  1
  H  H19  1  0.80754300  0.49998900  0.64898600  1
  H  H20  1  0.19245700  0.50001100  0.35101400  1
  H  H21  1  0.80314800  0.99966900  0.94956000  1
  H  H22  1  0.19685200  0.00033100  0.05043900  1
  C  C1  1  0.00968500  0.13966200  0.67502400  1
  C  C2  1  0.99031500  0.86033900  0.32497500  1
  C  C3  1  0.99032500  0.13966100  0.32497400  1
  C  C4  1  0.00967500  0.86033900  0.67502600  1
  C  C5  1  0.99962200  0.14040200  0.76562000  1
  C  C6  1  0.00037800  0.85959800  0.23437900  1
  C  C7  1  0.00039700  0.14039300  0.23437900  1
  C  C8  1  0.99960300  0.85960800  0.76562100  1
  C  C9  1  0.99823500  0.00000600  0.81133800  1
  C  C10  1  0.00176500  0.99999400  0.18866200  1
  C  C11  1  0.01938100  0.99999800  0.63178400  1
  C  C12  1  0.98061900  0.00000200  0.36821500  1
  C  C13  1  0.92990300  0.99988500  0.95489500  1
  C  C14  1  0.07009700  0.00011500  0.04510500  1
  C  C15  1  0.93313100  0.99987300  0.04650900  1
  C  C16  1  0.06686900  0.00012700  0.95349100  1
  C  C17  1  0.00250000  0.99999000  0.09180800  1
  C  C18  1  0.99750000  0.00001000  0.90819200  1
  C  C19  1  0.00629900  0.71824000  0.62129900  1
  C  C20  1  0.99370100  0.28176100  0.37870100  1
  C  C21  1  0.99369400  0.71824200  0.37870300  1
  C  C22  1  0.00630600  0.28175800  0.62129600  1
  C  C23  1  0.77674000  0.49998800  0.43093000  1
  C  C24  1  0.22326000  0.50001200  0.56906900  1
  C  C25  1  0.77621300  0.49998800  0.58646300  1
  C  C26  1  0.22378700  0.50001200  0.41353600  1
  C  C27  1  0.65933200  0.49999300  0.34672600  1
  C  C28  1  0.34066800  0.50000800  0.65327300  1
  C  C29  1  0.69788900  0.49999100  0.42748700  1
  C  C30  1  0.30211100  0.50001000  0.57251300  1
  C  C31  1  0.65775800  0.49999200  0.50513300  1
  C  C32  1  0.34224200  0.50000800  0.49486600  1
  C  C33  1  0.69700300  0.49999100  0.58522600  1
  C  C34  1  0.30299700  0.50000900  0.41477400  1
  C  C35  1  0.65697300  0.49999300  0.66346400  1
  C  C36  1  0.34302700  0.50000700  0.33653500  1
  C  C37  1  0.54143100  0.49999800  0.26341800  1
  C  C38  1  0.45856900  0.50000200  0.73658200  1
  C  C39  1  0.58031300  0.49999600  0.34397600  1
  C  C40  1  0.41968700  0.50000400  0.65602400  1
  C  C41  1  0.54010200  0.49999800  0.42196800  1
  C  C42  1  0.45989800  0.50000200  0.57803200  1
  C  C43  1  0.46245900  0.50000200  0.26087500  1
  C  C44  1  0.53754100  0.49999900  0.73912500  1
  C  C45  1  0.42216200  0.50000400  0.33889500  1
  C  C46  1  0.57783800  0.49999700  0.66110400  1
  C  C47  1  0.57887900  0.49999600  0.50257400  1
  C  C48  1  0.42112100  0.50000400  0.49742500  1
  C  C49  1  0.53886400  0.49999800  0.58060500  1
  C  C50  1  0.46113600  0.50000200  0.41939400  1
  C  C51  1  0.85448400  0.99978300  0.91011100  1
  C  C52  1  0.14551600  0.00021700  0.08988800  1
  N  N1  1  0.81461400  0.49998700  0.50962100  1
  N  N2  1  0.18538600  0.50001300  0.49037900  1
  O  O1  1  0.06990000  0.66918100  0.58559400  1
  O  O2  1  0.93010000  0.33082000  0.41440600  1
  O  O3  1  0.93009400  0.66917500  0.41440700  1
  O  O4  1  0.06990600  0.33082500  0.58559300  1
  O  O5  1  0.93848300  0.66329900  0.59868600  1
  O  O6  1  0.06151700  0.33670100  0.40131400  1
  O  O7  1  0.06151100  0.66330900  0.40131600  1
  O  O8  1  0.93848900  0.33669100  0.59868400  1
  O  O9  1  0.84846600  0.99984000  0.82936800  1
  O  O10  1  0.15153400  0.00016000  0.17063200  1
