# generated using pymatgen
data_ZnH16C25NO4
_symmetry_space_group_name_H-M   'P 1'
_cell_length_a   8.53258500
_cell_length_b   12.98860600
_cell_length_c   14.20620300
_cell_angle_alpha   90.62912200
_cell_angle_beta   93.35660400
_cell_angle_gamma   86.44661000
_symmetry_Int_Tables_number   1
_chemical_formula_structural   ZnH16C25NO4
_chemical_formula_sum   'Zn2 H32 C50 N2 O8'
_cell_volume   1568.65677114
_cell_formula_units_Z   2
loop_
 _symmetry_equiv_pos_site_id
 _symmetry_equiv_pos_as_xyz
  1  'x, y, z'
loop_
 _atom_site_type_symbol
 _atom_site_label
 _atom_site_symmetry_multiplicity
 _atom_site_fract_x
 _atom_site_fract_y
 _atom_site_fract_z
 _atom_site_occupancy
  Zn  Zn1  1  0.55232800  0.48480200  0.89670800  1
  Zn  Zn2  1  0.56680700  0.51153800  0.10567600  1
  H  H1  1  0.63599600  0.80966100  0.00258600  1
  H  H2  1  0.60556600  0.99520300  0.01426700  1
  H  H3  1  0.05644100  0.42870700  0.04175400  1
  H  H4  1  0.34780400  0.16010100  0.99291700  1
  H  H5  1  0.24337600  0.00187000  0.98795000  1
  H  H6  1  0.71037000  0.15887600  0.01720800  1
  H  H7  1  0.27723000  0.84587600  0.00678800  1
  H  H8  1  0.05757500  0.56843300  0.95794800  1
  H  H9  1  0.76220100  0.40561200  0.43789200  1
  H  H10  1  0.72715200  0.37011700  0.58588400  1
  H  H11  1  0.63124400  0.64948300  0.59871800  1
  H  H12  1  0.77770200  0.54688700  0.58975700  1
  H  H13  1  0.77322900  0.58447700  0.43599100  1
  H  H14  1  0.59625600  0.66620200  0.44219700  1
  H  H15  1  0.30532000  0.47759500  0.39759900  1
  H  H16  1  0.53571300  0.32612700  0.56150800  1
  H  H17  1  0.35323000  0.60421300  0.41819700  1
  H  H18  1  0.29305500  0.33061900  0.45494600  1
  H  H19  1  0.12107800  0.20636900  0.50786500  1
  H  H20  1  0.00533800  0.22658900  0.66169200  1
  H  H21  1  0.06573600  0.37525400  0.76275600  1
  H  H22  1  0.23532300  0.50330600  0.71152600  1
  H  H23  1  0.09727900  0.59091000  0.48065900  1
  H  H24  1  0.94472000  0.74745800  0.52419500  1
  H  H25  1  0.04693500  0.86135700  0.64952100  1
  H  H26  1  0.30064600  0.81496100  0.73342600  1
  H  H27  1  0.45146500  0.66115500  0.69456800  1
  H  H28  1  0.75867600  0.21500900  0.47607800  1
  H  H29  1  0.70339300  0.05261700  0.39567800  1
  H  H30  1  0.50166000  0.05003600  0.26498800  1
  H  H31  1  0.35487700  0.21085100  0.21567400  1
  H  H32  1  0.40375600  0.37094300  0.29400800  1
  C  C1  1  0.02009300  0.86171200  0.99667100  1
  C  C2  1  0.88766800  0.80443300  0.99526400  1
  C  C3  1  0.74007900  0.85296000  0.00300200  1
  C  C4  1  0.72202100  0.95850300  0.00924000  1
  C  C5  1  0.85056100  0.01714000  0.00726700  1
  C  C6  1  0.00012900  0.96967900  0.00121600  1
  C  C7  1  0.82760000  0.12369200  0.01154400  1
  C  C8  1  0.95426700  0.18458900  0.01209500  1
  C  C9  1  0.10298800  0.13758000  0.00449700  1
  C  C10  1  0.12535300  0.03206500  0.99721500  1
  C  C11  1  0.93672700  0.29135400  0.02212200  1
  C  C12  1  0.06894400  0.34665400  0.03059400  1
  C  C13  1  0.21483800  0.30015600  0.01734100  1
  C  C14  1  0.23209900  0.19589300  0.00282900  1
  C  C15  1  0.16848300  0.80884500  0.99565600  1
  C  C16  1  0.18099500  0.70349400  0.98075400  1
  C  C17  1  0.04750200  0.65040500  0.96997000  1
  C  C18  1  0.90314500  0.69847200  0.98407500  1
  C  C19  1  0.34749500  0.36383300  0.01178000  1
  C  C20  1  0.33205300  0.64278300  0.98662800  1
  C  C21  1  0.77114700  0.63336400  0.99036500  1
  C  C22  1  0.78560700  0.35225000  0.01599000  1
  C  C23  1  0.61100100  0.39035200  0.54943800  1
  C  C24  1  0.65637500  0.57378400  0.56539300  1
  C  C25  1  0.65155500  0.58880500  0.45991500  1
  C  C26  1  0.54421200  0.49182000  0.58977800  1
  C  C27  1  0.63401300  0.40194400  0.44517700  1
  C  C28  1  0.55825000  0.50582300  0.41182800  1
  C  C29  1  0.38819500  0.52384200  0.43927600  1
  C  C30  1  0.37596600  0.51572200  0.54656600  1
  C  C31  1  0.56880900  0.51718700  0.30997600  1
  C  C32  1  0.54403400  0.47966900  0.69213000  1
  C  C33  1  0.27290300  0.43188300  0.57598300  1
  C  C34  1  0.24063700  0.34576500  0.52083500  1
  C  C35  1  0.14459600  0.27297900  0.55151900  1
  C  C36  1  0.08023400  0.28393700  0.63778000  1
  C  C37  1  0.11411400  0.36717900  0.69422900  1
  C  C38  1  0.21018700  0.44016800  0.66405200  1
  C  C39  1  0.29312800  0.61606400  0.57767600  1
  C  C40  1  0.14558700  0.64091900  0.53480700  1
  C  C41  1  0.05843000  0.72887500  0.55956000  1
  C  C42  1  0.11537300  0.79253400  0.62967900  1
  C  C43  1  0.25794300  0.76666400  0.67624700  1
  C  C44  1  0.34572500  0.67863600  0.65176400  1
  C  C45  1  0.58762400  0.30623500  0.39229800  1
  C  C46  1  0.66905600  0.21485800  0.41906900  1
  C  C47  1  0.63854200  0.12328000  0.37377300  1
  C  C48  1  0.52591100  0.12180400  0.30057000  1
  C  C49  1  0.44400400  0.21205100  0.27291300  1
  C  C50  1  0.47427600  0.30401600  0.31792500  1
  N  N1  1  0.57440400  0.52305800  0.22903500  1
  N  N2  1  0.54480500  0.47332900  0.77334700  1
  O  O1  1  0.40070800  0.40819600  0.08935300  1
  O  O2  1  0.39572600  0.38238000  0.92803600  1
  O  O3  1  0.37842900  0.59548800  0.90990100  1
  O  O4  1  0.39555000  0.62078500  0.07108500  1
  O  O5  1  0.71804200  0.58844100  0.91308400  1
  O  O6  1  0.72351400  0.61397600  0.07421300  1
  O  O7  1  0.74012400  0.40044700  0.09246100  1
  O  O8  1  0.72346400  0.37543700  0.93138000  1
