# Generated by REPEAT Assigner based on pymatgen
data_DB0-m18_o11_o85_f0_fsc
_audit_creation_date              2022-05-24
_audit_creation_method            REPEAT_Assigner
_cell_length_a                    6.751184
_cell_length_b                    9.203147
_cell_length_c                    13.354666
_cell_angle_alpha                 100.068890
_cell_angle_beta                  89.495993
_cell_angle_gamma                 90.090182
_cell_volume                      816.942619
_symmetry_space_group_name_H-M    P1
_symmetry_Int_Tables_number       1
loop_
    _symmetry_equiv_pos_site_id
    _symmetry_equiv_pos_as_xyz
    1  x,y,z
loop_
    _atom_site_type_symbol
    _atom_site_label
    _atom_site_fract_x
    _atom_site_fract_y
    _atom_site_fract_z
    _atom_type_partial_charge
    O   O1   0.193653  0.129007  0.893202  -0.673174
    O   O2   0.178008  0.879869  0.883767  -0.667339
    C   C1   0.254289  0.995760  0.853434  0.924873
    Fe  Fe1  0.954090  0.876536  0.993146  1.109089
    O   O3   0.168232  0.909192  0.102814  -0.558196
    O   O4   0.202801  0.158037  0.113041  -0.609376
    C   C2   0.254883  0.033749  0.141387  0.633118
    Fe  Fe2  0.987937  0.195285  0.009043  1.108676
    O   O5   0.774206  0.163553  0.899684  -0.539196
    O   O6   0.738419  0.914893  0.889317  -0.598136
    C   C3   0.686653  0.039674  0.861247  0.605773
    O   O7   0.749294  0.941676  0.108987  -0.597948
    O   O8   0.763547  0.190986  0.118603  -0.563761
    C   C4   0.687987  0.074443  0.148838  0.761316
    C   C5   0.885206  0.473739  0.068676  0.182028
    N   N1   0.011119  0.390487  0.013647  -0.351293
    H   H1   0.780754  0.426134  0.115916  0.050754
    C   C6   0.880469  0.632909  0.068016  0.066850
    N   N2   0.935837  0.683701  0.988820  -0.304595
    H   H2   0.830367  0.708042  0.135155  0.115455
    C   C7   0.281069  0.997388  0.316904  -0.303048
    C   C8   0.371510  0.039031  0.233460  0.004078
    C   C9   0.564450  0.089241  0.240134  -0.107179
    C   C10  0.657213  0.112651  0.333484  -0.164899
    C   C11  0.561976  0.077857  0.418116  0.150798
    C   C12  0.377735  0.013365  0.408476  0.254842
    C   C13  0.653940  0.101218  0.511295  -0.284687
    C   C14  0.561041  0.060068  0.594523  0.062742
    C   C15  0.378220  0.991726  0.584429  0.196332
    C   C16  0.286581  0.967625  0.490372  -0.340957
    C   C17  0.654587  0.082882  0.687324  -0.145708
    C   C18  0.568347  0.036022  0.769872  -0.006234
    C   C19  0.379310  0.979397  0.762561  -0.126644
    C   C20  0.288466  0.950836  0.668831  -0.172468
    H   H3   0.131253  0.955446  0.310978  0.211354
    H   H4   0.809511  0.149405  0.339006  0.104751
    H   H5   0.799245  0.151218  0.519122  0.122323
    H   H6   0.796884  0.137336  0.696156  0.127344
    H   H7   0.142738  0.902696  0.663649  0.081640
    N   N3   0.940176  0.906880  0.534227  -0.042501
    C   C21  0.797059  0.817081  0.489427  -0.261405
    C   C22  0.866116  0.739025  0.398153  -0.107666
    C   C23  0.058793  0.784183  0.387128  -0.308052
    C   C24  0.099952  0.886610  0.472753  0.267474
    H   H8   0.924178  0.983929  0.600528  0.245327
    H   H9   0.649421  0.810890  0.520393  0.172902
    H   H10  0.784373  0.659382  0.345050  0.116343
    H   H11  0.158046  0.745708  0.324117  0.158281
