# Generated by REPEAT Assigner based on pymatgen
data_DB0-m3_o9_o23_f0_nbo.sym.13_sqe
_audit_creation_date              2022-05-24
_audit_creation_method            REPEAT_Assigner
_cell_length_a                    21.873254
_cell_length_b                    21.874672
_cell_length_c                    22.211980
_cell_angle_alpha                 119.489904
_cell_angle_beta                  119.493173
_cell_angle_gamma                 90.010496
_cell_volume                      7628.359771
_symmetry_space_group_name_H-M    P1
_symmetry_Int_Tables_number       1
loop_
    _symmetry_equiv_pos_site_id
    _symmetry_equiv_pos_as_xyz
    1  x,y,z
loop_
    _atom_site_type_symbol
    _atom_site_label
    _atom_site_fract_x
    _atom_site_fract_y
    _atom_site_fract_z
    _atom_type_partial_charge
    O   O1    0.449719  0.092224  0.506180  -0.669123
    O   O2    0.553352  0.090559  0.502318  -0.653060
    C   C1    0.502296  0.120653  0.505782  0.559405
    O   O3    0.514373  0.056833  0.627475  -0.691273
    O   O4    0.617164  0.057849  0.622058  -0.679749
    C   C2    0.586373  0.075393  0.663644  0.795243
    Zn  Zn1   0.430901  0.000277  0.504130  1.297722
    Zn  Zn2   0.565256  0.996135  0.495954  1.293628
    O   O5    0.441972  0.905116  0.496230  -0.626907
    O   O6    0.547061  0.904934  0.495317  -0.666111
    O   O7    0.378995  0.939486  0.377996  -0.667786
    O   O8    0.481826  0.938596  0.372574  -0.690306
    C   C3    0.493789  0.875681  0.494191  0.524463
    C   C4    0.409901  0.920773  0.336365  0.785492
    C   C5    0.672385  0.227718  0.953113  -0.087052
    C   C6    0.780262  0.264028  0.951327  0.644689
    C   C7    0.830232  0.311009  0.046558  -0.551463
    H   H1    0.719282  0.338632  0.063356  0.028645
    H   H2    0.637886  0.254571  0.924023  0.026420
    H   H3    0.814734  0.240766  0.927713  -0.045923
    H   H4    0.834578  0.370327  0.073642  0.111155
    H   H5    0.886664  0.306782  0.066678  0.096408
    C   C8    0.882056  0.368532  0.246302  -0.057242
    C   C9    0.720426  0.200061  0.920710  0.374107
    C   C10   0.721313  0.282343  0.047246  -0.183104
    C   C11   0.800264  0.281449  0.079097  0.845397
    C   C12   0.801670  0.202539  0.048450  -0.267495
    C   C13   0.757900  0.154867  0.953372  -0.044550
    C   C14   0.845719  0.328726  0.170804  -0.445628
    C   C15   0.673519  0.153976  0.828993  -0.418715
    C   C16   0.633973  0.117538  0.753479  -0.050278
    H   H6    0.715658  0.105375  0.927995  0.050909
    H   H7    0.795864  0.136465  0.933605  -0.002333
    H   H8    0.776601  0.179813  0.069088  0.046499
    H   H9    0.634938  0.180155  0.937142  0.039797
    H   H10   0.701090  0.266936  0.076490  0.031145
    H   H11   0.859733  0.202056  0.075016  0.060255
    H   H12   0.494445  0.284076  0.812888  0.098115
    C   C17   0.438417  0.283649  0.702195  -0.087121
    H   H13   0.392820  0.297008  0.707129  0.105105
    C   C18   0.440083  0.274611  0.637144  -0.224027
    H   H14   0.395610  0.280943  0.591190  0.111300
    C   C19   0.497876  0.256872  0.630150  0.345526
    C   C20   0.554965  0.249959  0.689733  -0.158216
    H   H15   0.601523  0.238219  0.686187  0.113402
    C   C21   0.553648  0.260024  0.755342  -0.111138
    H   H16   0.598767  0.255765  0.802545  0.153895
    C   C22   0.495272  0.276357  0.761371  -0.152088
    C   C23   0.501637  0.311842  0.559096  -0.131121
    H   H17   0.501755  0.362071  0.606210  0.092853
    C   C24   0.500305  0.308887  0.494931  0.323938
    C   C25   0.497041  0.242751  0.432747  -0.153684
    C   C26   0.499962  0.183234  0.439541  -0.303888
    H   H18   0.498629  0.132238  0.392078  0.151562
    C   C27   0.501963  0.186747  0.504188  0.287521
    C   C28   0.500355  0.250905  0.562941  -0.287453
    C   C29   0.426539  0.178523  0.279785  -0.208334
    H   H19   0.384240  0.146084  0.273986  0.133084
    C   C30   0.417719  0.166982  0.208719  -0.130751
    H   H20   0.368830  0.125430  0.147584  0.117297
    C   C31   0.471135  0.208433  0.215575  -0.142441
    H   H21   0.464205  0.199396  0.159852  0.108739
    C   C32   0.533601  0.261115  0.293537  -0.049205
    H   H22   0.575807  0.293368  0.299041  0.068279
    C   C33   0.542448  0.272579  0.364573  -0.162404
    H   H23   0.591784  0.313220  0.425072  0.071351
    C   C34   0.488480  0.232067  0.358107  0.271216
    C   C35   0.213396  0.738264  0.045790  0.007755
    C   C36   0.325915  0.759648  0.048434  -0.236570
    C   C37   0.278573  0.710509  0.953589  0.361217
    H   H24   0.153800  0.634817  0.923730  0.078275
    H   H25   0.232825  0.700025  0.064789  -0.000587
    H   H26   0.373172  0.802368  0.070607  0.021928
    H   H27   0.347615  0.725616  0.073242  0.058363
    H   H28   0.304884  0.727088  0.929807  -0.072172
    C   C38   0.121435  0.634861  0.753573  -0.031262
    C   C39   0.279495  0.796940  0.079124  0.680676
    C   C40   0.164419  0.694979  0.951034  -0.235113
    C   C41   0.202084  0.719158  0.920819  0.668739
    C   C42   0.209768  0.799902  0.953150  -0.166644
    C   C43   0.252722  0.845968  0.048024  -0.189400
    C   C44   0.157517  0.673476  0.829100  -0.481687
    C   C45   0.324706  0.841814  0.170876  -0.450085
    C   C46   0.362943  0.878128  0.246437  -0.051149
    H   H29   0.216283  0.870929  0.067579  0.036026
    H   H30   0.300873  0.890883  0.075148  0.046105
    H   H31   0.154102  0.806585  0.926647  0.051908
    H   H32   0.181287  0.764894  0.071619  -0.002744
    H   H33   0.110659  0.706008  0.931108  0.046140
    H   H34   0.239776  0.818934  0.934103  0.024716
    H   H35   0.164714  0.736459  0.228306  0.111455
    C   C47   0.230182  0.732860  0.335557  -0.054665
    H   H36   0.184574  0.724360  0.340456  0.093579
    C   C48   0.299386  0.736561  0.391941  -0.256603
    H   H37   0.307692  0.731106  0.441019  0.136653
    C   C49   0.358028  0.748181  0.386500  0.312924
    C   C50   0.346467  0.754095  0.322811  -0.153944
    H   H38   0.391424  0.761056  0.316441  0.096747
    C   C51   0.277090  0.749926  0.266175  -0.065076
    H   H39   0.268037  0.754278  0.216255  0.094701
    C   C52   0.219049  0.739674  0.272749  -0.174156
    C   C53   0.435401  0.688536  0.448998  -0.182131
    H   H40   0.385743  0.642111  0.409963  0.126250
    C   C54   0.502366  0.685798  0.501848  0.141104
    C   C55   0.566139  0.745148  0.551468  -0.130867
    C   C56   0.561709  0.805705  0.546692  -0.257345
    H   H41   0.611622  0.851637  0.585055  0.144422
    C   C57   0.494667  0.808702  0.494239  0.276862
    C   C58   0.430709  0.749614  0.445196  -0.225104
    C   C59   0.680327  0.799448  0.691656  -0.193105
    H   H42   0.657435  0.840744  0.717472  0.111240
    C   C60   0.750266  0.801129  0.744011  -0.106927
    H   H43   0.781981  0.843646  0.810576  0.106797
    C   C61   0.779988  0.748980  0.711424  -0.135654
    H   H44   0.835028  0.750569  0.752366  0.105589
    C   C62   0.739839  0.695304  0.626446  -0.123867
    H   H45   0.763895  0.655444  0.600903  0.105716
    C   C63   0.669455  0.692913  0.574101  -0.128394
    H   H46   0.638567  0.651139  0.507371  0.096029
    C   C64   0.639266  0.744729  0.606745  0.261747
    O   O9    0.905983  0.548824  0.490033  -0.649613
    O   O10   0.910630  0.448932  0.500776  -0.646917
    C   C65   0.878906  0.498063  0.493659  0.537857
    O   O11   0.943044  0.488317  0.372044  -0.665278
    O   O12   0.942027  0.385814  0.377991  -0.704694
    C   C66   0.924364  0.416387  0.336137  0.802123
    Zn  Zn3   0.999950  0.569445  0.496204  1.289110
    Zn  Zn4   0.003279  0.434677  0.503597  1.296730
    O   O13   0.093393  0.556057  0.500469  -0.633047
    O   O14   0.096501  0.454529  0.508258  -0.665909
    O   O15   0.060314  0.618310  0.621832  -0.679135
    O   O16   0.061217  0.515768  0.627793  -0.678153
    C   C67   0.124327  0.506019  0.506107  0.532603
    C   C68   0.079023  0.587619  0.663706  0.778215
    O   O17   0.629974  0.536250  0.574585  -0.606657
    O   O18   0.557494  0.462479  0.429942  -0.679737
    C   C69   0.622416  0.498522  0.502371  0.576829
    O   O19   0.535887  0.440443  0.566818  -0.676536
    O   O20   0.461561  0.368482  0.422240  -0.561466
    C   C70   0.499435  0.375652  0.494240  0.504929
    Zn  Zn5   0.547983  0.544400  0.593618  1.265019
    Zn  Zn6   0.453767  0.450945  0.403974  1.268121
    O   O21   0.444419  0.534027  0.567775  -0.689289
    O   O22   0.371815  0.458202  0.423159  -0.656163
    O   O23   0.541111  0.626834  0.575236  -0.646354
    O   O24   0.464718  0.554789  0.430630  -0.684718
    C   C71   0.379626  0.495822  0.495641  0.653535
    C   C72   0.503324  0.619399  0.502967  0.638274
    H   H47   0.725250  0.527646  0.201463  0.106342
    C   C73   0.720438  0.575645  0.308517  -0.103596
    H   H48   0.707136  0.622475  0.306512  0.107570
    C   C74   0.726926  0.568839  0.369702  -0.195079
    H   H49   0.718840  0.610670  0.415665  0.104352
    C   C75   0.744623  0.509489  0.373055  0.311866
    C   C76   0.754028  0.455964  0.313519  -0.152500
    H   H50   0.765879  0.408228  0.314130  0.102897
    C   C77   0.747054  0.462693  0.252089  -0.101644
    H   H51   0.754097  0.420786  0.205421  0.100934
    C   C78   0.730620  0.522581  0.249728  -0.140272
    C   C79   0.687501  0.499812  0.439866  -0.134416
    H   H52   0.638007  0.501998  0.394285  0.097722
    C   C80   0.689074  0.497490  0.501562  0.235180
    C   C81   0.754100  0.497772  0.562056  -0.032437
    C   C82   0.814028  0.495838  0.556048  -0.331835
    H   H53   0.864089  0.494699  0.602111  0.174478
    C   C83   0.812184  0.497894  0.494142  0.269676
    C   C84   0.748972  0.502236  0.437010  -0.256394
    C   C85   0.818264  0.559473  0.714151  -0.084270
    H   H54   0.853575  0.602681  0.723956  0.131406
    C   C86   0.827988  0.563425  0.782341  -0.394523
    H   H55   0.871003  0.609347  0.845160  0.159778
    C   C87   0.782820  0.508967  0.770478  0.536392
    C   C88   0.728181  0.450329  0.690379  -0.282884
    H   H56   0.692913  0.407345  0.680916  0.100872
    C   C89   0.718551  0.446336  0.622229  -0.069112
    H   H57   0.676240  0.399989  0.559969  0.101012
    C   C90   0.762888  0.501360  0.633734  0.050018
    H   H58   0.267098  0.833219  0.778278  0.113161
    C   C91   0.269343  0.769336  0.669859  -0.055734
    H   H59   0.278264  0.815778  0.666377  0.095009
    C   C92   0.264738  0.700458  0.611903  -0.253640
    H   H60   0.269961  0.693250  0.563058  0.141339
    C   C93   0.252590  0.640775  0.615554  0.319309
    C   C94   0.247025  0.650929  0.678994  -0.146523
    H   H61   0.239748  0.605137  0.684010  0.089935
    C   C95   0.252303  0.720021  0.737347  -0.088976
    H   H62   0.248560  0.728058  0.787311  0.108916
    C   C96   0.263040  0.779113  0.732530  -0.172478
    C   C97   0.311379  0.563786  0.551165  -0.181440
    H   H63   0.358099  0.613293  0.590658  0.121719
    C   C98   0.313477  0.496923  0.497274  0.138071
    C   C99   0.253808  0.433311  0.447263  -0.125033
    C   C100  0.193471  0.437826  0.452451  -0.268058
    H   H64   0.147210  0.388118  0.413785  0.144466
    C   C101  0.191118  0.504771  0.505821  0.285900
    C   C102  0.250559  0.568493  0.555481  -0.233746
    C   C103  0.198770  0.319741  0.306442  -0.184796
    H   H65   0.157679  0.343083  0.281215  0.114438
    C   C104  0.196584  0.249800  0.253441  -0.129825
    H   H66   0.153881  0.218532  0.186954  0.111288
    C   C105  0.248447  0.219494  0.285286  -0.096892
    H   H67   0.246430  0.164438  0.243832  0.098838
    C   C106  0.302364  0.259072  0.370167  -0.157779
    H   H68   0.342011  0.234582  0.395160  0.112099
    C   C107  0.305266  0.329459  0.423149  -0.130678
    H   H69   0.347220  0.359889  0.489797  0.093346
    C   C108  0.253722  0.360223  0.391256  0.266292
    O   O25   0.272981  0.636836  0.926207  -0.646446
    H   H70   0.299447  0.623092  0.898295  0.378465
    O   O26   0.749079  0.306351  0.920388  -0.662196
    H   H71   0.732578  0.339185  0.955401  0.330470
    O   O27   0.792373  0.512979  0.838048  -0.551195
    H   H72   0.759705  0.540897  0.849905  0.328153
