# Generated by REPEAT Assigner based on pymatgen
data_DB0-m3_o520_o25_f0_fsc.sym.8_sqe
_audit_creation_date              2022-05-24
_audit_creation_method            REPEAT_Assigner
_cell_length_a                    14.271807
_cell_length_b                    8.548828
_cell_length_c                    14.962074
_cell_angle_alpha                 90.000000
_cell_angle_beta                  90.995903
_cell_angle_gamma                 90.000000
_cell_volume                      1825.205255
_symmetry_space_group_name_H-M    P1
_symmetry_Int_Tables_number       1
loop_
    _symmetry_equiv_pos_site_id
    _symmetry_equiv_pos_as_xyz
    1  x,y,z
loop_
    _atom_site_type_symbol
    _atom_site_label
    _atom_site_fract_x
    _atom_site_fract_y
    _atom_site_fract_z
    _atom_type_partial_charge
    H   H1   0.044197  0.000000  0.560801  0.098025
    H   H2   0.955803  0.000000  0.439199  0.098019
    C   C1   0.020547  0.139512  0.675400  -0.135869
    C   C2   0.979454  0.860488  0.324600  -0.135845
    C   C3   0.979454  0.139512  0.324600  -0.135825
    C   C4   0.020547  0.860488  0.675400  -0.135859
    C   C5   0.006967  0.140331  0.766410  0.052845
    C   C6   0.993034  0.859669  0.233590  0.052835
    C   C7   0.993034  0.140331  0.233590  0.052845
    C   C8   0.006967  0.859669  0.766410  0.052824
    H   H3   0.999498  0.250838  0.800614  0.027220
    H   H4   0.000502  0.749161  0.199385  0.027227
    H   H5   0.000502  0.250838  0.199385  0.027213
    H   H6   0.999498  0.749161  0.800614  0.027234
    C   C9   0.004737  0.000000  0.812879  -0.399403
    C   C10  0.995263  0.000000  0.187121  -0.399412
    C   C11  0.466211  0.371928  0.539234  -0.249304
    C   C12  0.533789  0.628072  0.460766  -0.249119
    C   C13  0.533789  0.371928  0.460766  -0.249119
    C   C14  0.466211  0.628072  0.539234  -0.249304
    C   C15  0.032497  0.000000  0.631652  -0.026284
    C   C16  0.967503  0.000000  0.368347  -0.026320
    N   N1   0.000358  0.863953  0.955829  -0.330787
    N   N2   0.999642  0.136047  0.044170  -0.330781
    N   N3   0.999642  0.863953  0.044170  -0.330783
    N   N4   0.000358  0.136047  0.955829  -0.330789
    C   C17  0.999640  0.000000  0.089359  0.860048
    C   C18  0.000361  0.000000  0.910641  0.860061
    C   C19  0.523994  0.500000  0.582517  0.260379
    C   C20  0.476006  0.500000  0.417483  0.259965
    C   C21  0.590609  0.500000  0.506546  0.643704
    C   C22  0.409391  0.500000  0.493454  0.644186
    H   H7   0.562601  0.268617  0.425826  0.114413
    H   H8   0.437399  0.731383  0.574174  0.114410
    H   H9   0.437399  0.268617  0.574174  0.114409
    H   H10  0.562601  0.731383  0.425826  0.114415
    C   C23  0.692844  0.500000  0.515881  -0.227208
    C   C24  0.307156  0.500000  0.484119  -0.227452
    N   N5   0.773857  0.500000  0.520530  0.035033
    N   N6   0.226143  0.500000  0.479469  0.035145
    O   O1   0.089998  0.669288  0.582172  -0.780085
    O   O2   0.910002  0.330712  0.417828  -0.780077
    O   O3   0.910002  0.669288  0.417828  -0.780076
    O   O4   0.089998  0.330712  0.582172  -0.780088
    O   O5   0.930142  0.663275  0.602720  -0.707839
    O   O6   0.069858  0.336725  0.397280  -0.707845
    O   O7   0.069858  0.663275  0.397280  -0.707847
    O   O8   0.930142  0.336725  0.602720  -0.707841
    C   C25  0.014050  0.718460  0.621503  0.919719
    C   C26  0.985951  0.281539  0.378497  0.919714
    C   C27  0.985951  0.718460  0.378497  0.919723
    C   C28  0.014050  0.281540  0.621503  0.919732
    Zn  Zn1  0.896321  0.500000  0.510415  1.106442
    Zn  Zn2  0.103679  0.500000  0.489585  1.106436
    O   O9   0.446927  0.500000  0.328055  -0.531487
    H   H11  0.505873  0.500000  0.294138  0.360004
    O   O10  0.553073  0.500000  0.671945  -0.531576
    H   H12  0.494127  0.500000  0.705862  0.359996
