# generated using pymatgen
data_Zn3H21C36NO13
_symmetry_space_group_name_H-M   'P 1'
_cell_length_a   30.91348000
_cell_length_b   31.91277400
_cell_length_c   21.88858500
_cell_angle_alpha   90.00000000
_cell_angle_beta   134.90868500
_cell_angle_gamma   90.00000000
_symmetry_Int_Tables_number   1
_chemical_formula_structural   Zn3H21C36NO13
_chemical_formula_sum   'Zn12 H84 C144 N4 O52'
_cell_volume   15293.47569215
_cell_formula_units_Z   4
loop_
 _symmetry_equiv_pos_site_id
 _symmetry_equiv_pos_as_xyz
  1  'x, y, z'
loop_
 _atom_site_type_symbol
 _atom_site_label
 _atom_site_symmetry_multiplicity
 _atom_site_fract_x
 _atom_site_fract_y
 _atom_site_fract_z
 _atom_site_occupancy
  Zn  Zn1  1  0.42670200  0.99320900  0.42128100  1
  Zn  Zn2  1  0.92746100  0.49843100  0.42415300  1
  Zn  Zn3  1  0.56492100  0.99693800  0.56004500  1
  Zn  Zn4  1  0.06528600  0.49060600  0.55965800  1
  Zn  Zn5  1  0.49614700  0.49044800  0.42428600  1
  Zn  Zn6  1  0.99700800  0.99932300  0.42756500  1
  Zn  Zn7  1  0.49535400  0.49950500  0.56124600  1
  Zn  Zn8  1  0.99481200  0.98961500  0.56298200  1
  Zn  Zn9  1  0.49399700  0.94481000  0.99411900  1
  Zn  Zn10  1  0.49790300  0.03937100  0.98795100  1
  Zn  Zn11  1  0.99867200  0.44781600  0.98988300  1
  Zn  Zn12  1  0.99284200  0.54231500  0.99289800  1
  H  H1  1  0.55502300  0.77212900  0.44399700  1
  H  H2  1  0.52648400  0.22106100  0.44102100  1
  H  H3  1  0.03375600  0.26954300  0.45888100  1
  H  H4  1  0.05740000  0.71876700  0.44295600  1
  H  H5  1  0.45073600  0.71977700  0.33964000  1
  H  H6  1  0.42335000  0.27293400  0.35565300  1
  H  H7  1  0.93124000  0.21591700  0.35902500  1
  H  H8  1  0.95148500  0.76940500  0.34313400  1
  H  H9  1  0.60788600  0.71871900  0.58520300  1
  H  H10  1  0.59101900  0.27160500  0.58951300  1
  H  H11  1  0.08754700  0.21994000  0.60489900  1
  H  H12  1  0.11286300  0.77229600  0.58496500  1
  H  H13  1  0.55659600  0.77000400  0.62608800  1
  H  H14  1  0.55259800  0.21721000  0.64557600  1
  H  H15  1  0.03391700  0.27319300  0.63949500  1
  H  H16  1  0.06788900  0.71952900  0.63371800  1
  H  H17  1  0.45239000  0.71777200  0.52177300  1
  H  H18  1  0.44940200  0.26919900  0.56021000  1
  H  H19  1  0.93131500  0.21943400  0.53962100  1
  H  H20  1  0.96213600  0.77006400  0.53398300  1
  H  H21  1  0.39952300  0.77107300  0.38065100  1
  H  H22  1  0.38487200  0.21849700  0.41165700  1
  H  H23  1  0.87751000  0.26918900  0.39347200  1
  H  H24  1  0.90672200  0.71668900  0.39214500  1
  H  H25  1  0.56765700  0.04623800  0.36798400  1
  H  H26  1  0.06262100  0.44037500  0.36384700  1
  H  H27  1  0.56656200  0.04637100  0.25426900  1
  H  H28  1  0.06187600  0.44027600  0.25060700  1
  H  H29  1  0.42781700  0.91276400  0.11968500  1
  H  H30  1  0.36763000  0.95502700  0.05664900  1
  H  H31  1  0.86680600  0.53568900  0.05621500  1
  H  H32  1  0.92898800  0.57655800  0.12153600  1
  H  H33  1  0.42595900  0.91501400  0.22879400  1
  H  H34  1  0.36532200  0.95699300  0.16551500  1
  H  H35  1  0.86401300  0.53371800  0.16460800  1
  H  H36  1  0.92669700  0.57424900  0.23018400  1
  H  H37  1  0.59164300  0.97563500  0.78067700  1
  H  H38  1  0.07923400  0.46161900  0.76934400  1
  H  H39  1  0.59159900  0.97318000  0.89250100  1
  H  H40  1  0.07704500  0.46045200  0.87909000  1
  H  H41  1  0.37144400  0.03084900  0.68129100  1
  H  H42  1  0.35295100  0.97366700  0.65635100  1
  H  H43  1  0.91350800  0.58211300  0.71552000  1
  H  H44  1  0.86582400  0.53325800  0.66992500  1
  H  H45  1  0.30177800  0.54642200  0.36697700  1
  H  H46  1  0.80162100  0.94298600  0.36714200  1
  H  H47  1  0.68934800  0.94170000  0.25254300  1
  H  H48  1  0.18937900  0.54709900  0.25369200  1
  H  H49  1  0.69168200  0.07765300  0.12041400  1
  H  H50  1  0.69061400  0.03608600  0.05805300  1
  H  H51  1  0.18927000  0.45196000  0.05859800  1
  H  H52  1  0.19171100  0.41066800  0.12267600  1
  H  H53  1  0.30040700  0.45327700  0.16717700  1
  H  H54  1  0.30270100  0.41231300  0.23159000  1
  H  H55  1  0.80271400  0.07666300  0.23089400  1
  H  H56  1  0.80178200  0.03541500  0.16820700  1
  H  H57  1  0.69063100  0.53310400  0.76610000  1
  H  H58  1  0.18912500  0.94303100  0.74997000  1
  H  H59  1  0.30108200  0.94046400  0.85762900  1
  H  H60  1  0.80258400  0.53416900  0.87524900  1
  H  H61  1  0.30093600  0.05521100  0.68627900  1
  H  H62  1  0.30209100  0.08983600  0.75720600  1
  H  H63  1  0.80014600  0.40870700  0.71647500  1
  H  H64  1  0.80124500  0.45573200  0.66529600  1
  H  H65  1  0.68892200  0.40987700  0.60539400  1
  H  H66  1  0.69026300  0.45659000  0.55391000  1
  H  H67  1  0.19011300  0.05578100  0.57657700  1
  H  H68  1  0.19097600  0.09026200  0.64746400  1
  H  H69  1  0.38527400  0.07144500  0.60954100  1
  H  H70  1  0.36319900  0.12522800  0.52452500  1
  H  H71  1  0.30620100  0.11344300  0.41067900  1
  H  H72  1  0.38623800  0.11038700  0.47134000  1
  H  H73  1  0.29011900  0.98525900  0.47386500  1
  H  H74  1  0.27180900  0.91001200  0.40741100  1
  H  H75  1  0.25144200  0.91380600  0.46717200  1
  H  H76  1  0.30252000  0.87285500  0.49244700  1
  H  H77  1  0.88690900  0.59374700  0.52690300  1
  H  H78  1  0.94047100  0.65007100  0.54858200  1
  H  H79  1  0.02104500  0.64172400  0.64217500  1
  H  H80  1  0.97859100  0.67721400  0.64807200  1
  H  H81  1  0.85627800  0.49420000  0.53812500  1
  H  H82  1  0.74560300  0.48533500  0.46774500  1
  H  H83  1  0.73874300  0.50245700  0.38226200  1
  H  H84  1  0.69914100  0.53047400  0.40282100  1
  C  C1  1  0.49538100  0.99951000  0.37093300  1
  C  C2  1  0.99314700  0.48885100  0.36950300  1
  C  C3  1  0.49894400  0.91330400  0.48730800  1
  C  C4  1  0.49271500  0.07682300  0.49385800  1
  C  C5  1  0.98836600  0.41294500  0.49236200  1
  C  C6  1  0.00437300  0.57607100  0.49139100  1
  C  C7  1  0.49608300  0.99092500  0.61041200  1
  C  C8  1  0.99964500  0.50015300  0.61439500  1
  C  C9  1  0.47473200  0.73181000  0.40458200  1
  C  C10  1  0.45265300  0.25962800  0.42135100  1
  C  C11  1  0.95448600  0.22954000  0.42259000  1
  C  C12  1  0.97794500  0.75749000  0.40906300  1
  C  C13  1  0.53173800  0.75914000  0.46158700  1
  C  C14  1  0.50902800  0.23262600  0.46808100  1
  C  C15  1  0.01057500  0.25756700  0.47728600  1
  C  C16  1  0.03574900  0.73104400  0.46352100  1
  C  C17  1  0.50160300  0.86847000  0.48652900  1
  C  C18  1  0.49016600  0.12163600  0.49487600  1
  C  C19  1  0.98346200  0.36817500  0.49193000  1
  C  C20  1  0.00926200  0.62082800  0.49229500  1
  C  C21  1  0.50200200  0.62132800  0.48351100  1
  C  C22  1  0.48950700  0.36864200  0.50191100  1
  C  C23  1  0.98825800  0.12084600  0.50411700  1
  C  C24  1  0.00366300  0.86812200  0.48638500  1
  C  C25  1  0.44675600  0.75854700  0.42696100  1
  C  C26  1  0.43158800  0.23122600  0.45202100  1
  C  C27  1  0.92515400  0.25741000  0.44150300  1
  C  C28  1  0.95343500  0.72995900  0.43576900  1
  C  C29  1  0.50371800  0.78501400  0.48393200  1
  C  C30  1  0.48800400  0.20501900  0.49878500  1
  C  C31  1  0.98131800  0.28467200  0.49627200  1
  C  C32  1  0.01116100  0.70435000  0.49017200  1
  C  C33  1  0.47567400  0.73075700  0.50417800  1
  C  C34  1  0.46685500  0.25763300  0.53314700  1
  C  C35  1  0.95449000  0.23141400  0.52120900  1
  C  C36  1  0.98379400  0.75783400  0.51339900  1
  C  C37  1  0.50365700  0.70480800  0.48186800  1
  C  C38  1  0.48791500  0.28517100  0.50239400  1
  C  C39  1  0.98380200  0.20439900  0.50218900  1
  C  C40  1  0.00834300  0.78461900  0.48677400  1
  C  C41  1  0.53262300  0.75797200  0.56115500  1
  C  C42  1  0.52327400  0.23052000  0.57987800  1
  C  C43  1  0.01063900  0.25956900  0.57591800  1
  C  C44  1  0.04153300  0.73148900  0.56784900  1
  C  C45  1  0.56065200  0.73124500  0.53886300  1
  C  C46  1  0.54428400  0.25891300  0.54913400  1
  C  C47  1  0.03990100  0.23171500  0.55690100  1
  C  C48  1  0.06612900  0.75905400  0.54125200  1
  C  C49  1  0.50299800  0.83078500  0.48541300  1
  C  C50  1  0.48878400  0.15929400  0.49648400  1
  C  C51  1  0.98147400  0.33049300  0.49328800  1
  C  C52  1  0.01117700  0.65852600  0.49174300  1
  C  C53  1  0.50302400  0.65901400  0.48191600  1
  C  C54  1  0.48849700  0.33095200  0.50310500  1
  C  C55  1  0.98600300  0.15855300  0.50430000  1
  C  C56  1  0.00599800  0.83044200  0.48572000  1
  C  C57  1  0.45666300  0.97662500  0.23218300  1
  C  C58  1  0.95439700  0.51197100  0.23059400  1
  C  C59  1  0.49572900  0.00096200  0.30465500  1
  C  C60  1  0.99240900  0.48690600  0.30213100  1
  C  C61  1  0.53598200  0.02619600  0.31229900  1
  C  C62  1  0.03169700  0.46093900  0.30886900  1
  C  C63  1  0.53509800  0.02648900  0.24755400  1
  C  C64  1  0.03107100  0.46072000  0.24440400  1
  C  C65  1  0.49617500  0.99992500  0.17697900  1
  C  C66  1  0.99350700  0.48810000  0.17503300  1
  C  C67  1  0.45811700  0.97524900  0.17320100  1
  C  C68  1  0.95617800  0.51339300  0.17189400  1
  C  C69  1  0.40996700  0.94276600  0.12017600  1
  C  C70  1  0.90964000  0.54695900  0.12040300  1
  C  C71  1  0.40857000  0.94416300  0.19005200  1
  C  C72  1  0.90793500  0.54553800  0.18997300  1
  C  C73  1  0.44315900  0.99455300  0.65849700  1
  C  C74  1  0.95840900  0.52332100  0.67362800  1
  C  C75  1  0.49555500  0.98872600  0.67669200  1
  C  C76  1  0.00087000  0.50156500  0.68236700  1
  C  C77  1  0.54910500  0.98042900  0.76229700  1
  C  C78  1  0.04495000  0.47971200  0.75895300  1
  C  C79  1  0.54924400  0.97846400  0.82608700  1
  C  C80  1  0.04360900  0.47887400  0.82127200  1
  C  C81  1  0.49567100  0.98427500  0.80505900  1
  C  C82  1  0.00026300  0.50168200  0.81012700  1
  C  C83  1  0.44410700  0.99170000  0.72025900  1
  C  C84  1  0.95927900  0.52428800  0.73541000  1
  C  C85  1  0.37845300  0.00095700  0.66358800  1
  C  C86  1  0.90374600  0.55084800  0.68604200  1
  C  C87  1  0.37665200  0.00543400  0.59085100  1
  C  C88  1  0.90266900  0.54953500  0.61350600  1
  C  C89  1  0.37643400  0.49812200  0.37173700  1
  C  C90  1  0.87662600  0.99129900  0.37281900  1
  C  C91  1  0.50028600  0.57658900  0.48758900  1
  C  C92  1  0.49122300  0.41337200  0.49795200  1
  C  C93  1  0.99111300  0.07608400  0.50090300  1
  C  C94  1  0.00073800  0.91286200  0.48967900  1
  C  C95  1  0.61510500  0.49190300  0.61387000  1
  C  C96  1  0.11518100  0.99746700  0.61772100  1
  C  C97  1  0.61538100  0.99061900  0.10955900  1
  C  C98  1  0.11519000  0.49729500  0.11162300  1
  C  C99  1  0.49676200  0.99692400  0.11108000  1
  C  C100  1  0.99471300  0.49093400  0.10969100  1
  C  C101  1  0.37646600  0.99357300  0.87284300  1
  C  C102  1  0.87637900  0.49289200  0.87131400  1
  C  C103  1  0.49532000  0.98724000  0.87115800  1
  C  C104  1  0.99694300  0.49914100  0.87325900  1
  C  C105  1  0.27613900  0.47455700  0.23358300  1
  C  C106  1  0.77654500  0.01439000  0.23350900  1
  C  C107  1  0.30983600  0.49962600  0.30512400  1
  C  C108  1  0.81004700  0.98961800  0.30547900  1
  C  C109  1  0.27755600  0.52578400  0.31206800  1
  C  C110  1  0.77758000  0.96341300  0.31197500  1
  C  C111  1  0.71385600  0.96249100  0.24666800  1
  C  C112  1  0.21377600  0.52634800  0.24755900  1
  C  C113  1  0.68197000  0.98931700  0.17646400  1
  C  C114  1  0.18175100  0.49917000  0.17787300  1
  C  C115  1  0.71602400  0.01508500  0.17376600  1
  C  C116  1  0.21566300  0.47350400  0.17474600  1
  C  C117  1  0.71096700  0.04808200  0.12132000  1
  C  C118  1  0.21036400  0.44027400  0.12242600  1
  C  C119  1  0.28163800  0.44127100  0.19214100  1
  C  C120  1  0.78226600  0.04750100  0.19205100  1
  C  C121  1  0.71522800  0.46877200  0.67274100  1
  C  C122  1  0.21575100  0.02547400  0.68663900  1
  C  C123  1  0.68177900  0.49133100  0.68095900  1
  C  C124  1  0.18176500  0.99692700  0.68477500  1
  C  C125  1  0.71440000  0.51437600  0.75622300  1
  C  C126  1  0.21366300  0.96653600  0.74870700  1
  C  C127  1  0.27725900  0.96492000  0.80939800  1
  C  C128  1  0.77801300  0.51517100  0.81807100  1
  C  C129  1  0.30983300  0.99486900  0.80931000  1
  C  C130  1  0.80987900  0.49129100  0.80755900  1
  C  C131  1  0.27635400  0.02524600  0.74689300  1
  C  C132  1  0.77584800  0.46788300  0.73371900  1
  C  C133  1  0.28171700  0.06274200  0.71258500  1
  C  C134  1  0.78088700  0.43974500  0.68512100  1
  C  C135  1  0.70956600  0.44046500  0.61367100  1
  C  C136  1  0.21042700  0.06308200  0.64200200  1
  C  C137  1  0.35253300  0.05979900  0.49182500  1
  C  C138  1  0.35216000  0.10499400  0.47386400  1
  C  C139  1  0.34181700  0.93391100  0.53536900  1
  C  C140  1  0.28847600  0.90590000  0.47150000  1
  C  C141  1  0.96291500  0.61228100  0.64949800  1
  C  C142  1  0.97633000  0.64740900  0.61987800  1
  C  C143  1  0.79527100  0.54078700  0.49498200  1
  C  C144  1  0.74127300  0.51297500  0.43300800  1
  N  N1  1  0.36516600  0.04873600  0.56288900  1
  N  N2  1  0.33503400  0.97583300  0.52077000  1
  N  N3  1  0.91126200  0.58922800  0.59083500  1
  N  N4  1  0.85175400  0.52609900  0.53876900  1
  O  O1  1  0.44257100  0.99542100  0.34595100  1
  O  O2  1  0.94120100  0.49463200  0.34643900  1
  O  O3  1  0.54782000  0.00131200  0.45222400  1
  O  O4  1  0.04600600  0.48588200  0.45015900  1
  O  O5  1  0.44504000  0.93113800  0.43374000  1
  O  O6  1  0.44125300  0.05588700  0.43885400  1
  O  O7  1  0.93818800  0.43541300  0.43952200  1
  O  O8  1  0.94946900  0.55981000  0.43809300  1
  O  O9  1  0.55038800  0.93428500  0.54156800  1
  O  O10  1  0.54657900  0.05896700  0.54829800  1
  O  O11  1  0.04327000  0.42923000  0.54580200  1
  O  O12  1  0.05455600  0.55361500  0.54412500  1
  O  O13  1  0.44386700  0.98942300  0.52919600  1
  O  O14  1  0.94676200  0.50306800  0.53370600  1
  O  O15  1  0.54895400  0.99405700  0.63519600  1
  O  O16  1  0.05152400  0.49451400  0.63726300  1
  O  O17  1  0.40482300  0.49244100  0.34788200  1
  O  O18  1  0.90551600  0.99719100  0.34981400  1
  O  O19  1  0.40474900  0.50211300  0.45248500  1
  O  O20  1  0.90443900  0.98707400  0.45330600  1
  O  O21  1  0.49809700  0.55365300  0.43566100  1
  O  O22  1  0.49123800  0.42912500  0.44273300  1
  O  O23  1  0.99165300  0.06054500  0.44607000  1
  O  O24  1  0.99896800  0.93606900  0.43838500  1
  O  O25  1  0.50041100  0.56083100  0.54296200  1
  O  O26  1  0.49335600  0.43629800  0.54983600  1
  O  O27  1  0.99296000  0.05287600  0.55227000  1
  O  O28  1  0.00017000  0.92838300  0.54451400  1
  O  O29  1  0.58679800  0.48792000  0.53307600  1
  O  O30  1  0.08740200  0.00184400  0.53725700  1
  O  O31  1  0.58663600  0.49744100  0.63759800  1
  O  O32  1  0.08629100  0.99164400  0.64072500  1
  O  O33  1  0.58532300  0.95529800  0.08598400  1
  O  O34  1  0.58871700  0.02716400  0.07667500  1
  O  O35  1  0.08935400  0.46046000  0.08018000  1
  O  O36  1  0.08430800  0.53239200  0.08595500  1
  O  O37  1  0.49275800  0.95949200  0.08286100  1
  O  O38  1  0.50031500  0.03148600  0.08222500  1
  O  O39  1  0.99925200  0.45624400  0.08224800  1
  O  O40  1  0.99069200  0.52823500  0.08094200  1
  O  O41  1  0.40322300  0.95696900  0.90441700  1
  O  O42  1  0.40657000  0.02895700  0.89724200  1
  O  O43  1  0.90721300  0.45774200  0.89687700  1
  O  O44  1  0.90224600  0.52967800  0.90272500  1
  O  O45  1  0.49282500  0.95264700  0.90105000  1
  O  O46  1  0.49796400  0.02473300  0.89800600  1
  O  O47  1  0.00088500  0.46188100  0.90194000  1
  O  O48  1  0.99233100  0.53388300  0.90057000  1
  O  O49  1  0.33896100  0.03372600  0.43997000  1
  O  O50  1  0.39079500  0.91834800  0.59782600  1
  O  O51  1  0.99795800  0.60603300  0.72674600  1
  O  O52  1  0.78802500  0.57667400  0.50547900  1
