# generated using pymatgen
data_Fe2H17C48N2O20F
_symmetry_space_group_name_H-M   'P 1'
_cell_length_a   13.25452600
_cell_length_b   19.90446000
_cell_length_c   12.92300100
_cell_angle_alpha   125.16462300
_cell_angle_beta   111.96410100
_cell_angle_gamma   73.90743900
_symmetry_Int_Tables_number   1
_chemical_formula_structural   Fe2H17C48N2O20F
_chemical_formula_sum   'Fe2 H17 C48 N2 O20 F1'
_cell_volume   2576.29272929
_cell_formula_units_Z   1
loop_
 _symmetry_equiv_pos_site_id
 _symmetry_equiv_pos_as_xyz
  1  'x, y, z'
loop_
 _atom_site_type_symbol
 _atom_site_label
 _atom_site_symmetry_multiplicity
 _atom_site_fract_x
 _atom_site_fract_y
 _atom_site_fract_z
 _atom_site_occupancy
  Fe  Fe1  1  0.49340700  0.01772500  0.29043500  1
  Fe  Fe2  1  0.50792900  0.98457400  0.71301400  1
  H  H1  1  0.98241800  0.99538000  0.78515100  1
  H  H2  1  0.09073200  0.03986800  0.12911400  1
  H  H3  1  0.91066300  0.96195700  0.87411500  1
  H  H4  1  0.01897400  0.00633500  0.21797800  1
  H  H5  1  0.37980000  0.95059900  0.93011100  1
  H  H6  1  0.09252300  0.96876000  0.65064900  1
  H  H7  1  0.62162600  0.05149500  0.07328600  1
  H  H8  1  0.90885900  0.03303900  0.35253700  1
  H  H9  1  0.82590300  0.41852100  0.54751100  1
  H  H10  1  0.27784000  0.48659600  0.52182700  1
  H  H11  1  0.17308200  0.58185000  0.45376000  1
  H  H12  1  0.27418500  0.23638900  0.46305700  1
  H  H13  1  0.25105400  0.25114300  0.84607600  1
  H  H14  1  0.15440500  0.35738500  0.79865000  1
  H  H15  1  0.72619200  0.76529300  0.53936300  1
  H  H16  1  0.74924500  0.75057600  0.15634900  1
  H  H17  1  0.84504800  0.64388300  0.20301800  1
  C  C1  1  0.29198000  0.95619000  0.89459000  1
  C  C2  1  0.23109000  0.97575800  0.97590100  1
  C  C3  1  0.11823300  0.98823200  0.93709100  1
  C  C4  1  0.06929200  0.98250000  0.81677700  1
  C  C5  1  0.13184700  0.96769200  0.73963000  1
  C  C6  1  0.24383200  0.95524500  0.77910000  1
  C  C7  1  0.05285100  0.00947300  0.02464900  1
  C  C8  1  0.94856000  0.99235400  0.97857700  1
  C  C9  1  0.77033900  0.02620900  0.02741500  1
  C  C10  1  0.70944500  0.04582200  0.10875400  1
  C  C11  1  0.75757800  0.04671500  0.22420700  1
  C  C12  1  0.86955200  0.03415000  0.26359100  1
  C  C13  1  0.93211300  0.01929600  0.18641800  1
  C  C14  1  0.88318200  0.01362800  0.06615500  1
  C  C15  1  0.68736700  0.04794800  0.29020600  1
  C  C16  1  0.62371800  0.88284700  0.28844000  1
  C  C17  1  0.29218900  0.99527000  0.10922600  1
  C  C18  1  0.38011800  0.10951900  0.47668200  1
  C  C19  1  0.62109100  0.89255300  0.52649700  1
  C  C20  1  0.70925000  0.00677700  0.89412600  1
  C  C21  1  0.37733500  0.11925600  0.71466600  1
  C  C22  1  0.31402900  0.95408600  0.71315800  1
  C  C23  1  0.95943000  0.62167700  0.41892500  1
  C  C24  1  0.79963400  0.59815300  0.42743800  1
  C  C25  1  0.85793800  0.54285800  0.46593100  1
  C  C26  1  0.96895400  0.52748100  0.48081300  1
  C  C27  1  0.01987800  0.56672000  0.45656300  1
  C  C28  1  0.80713200  0.50290400  0.49018000  1
  C  C29  1  0.86743600  0.44878200  0.52919000  1
  C  C30  1  0.97866500  0.43394600  0.54456100  1
  C  C31  1  0.02903300  0.47328100  0.52010700  1
  C  C32  1  0.13982700  0.45796000  0.53488800  1
  C  C33  1  0.19097800  0.49747800  0.51086000  1
  C  C34  1  0.13122500  0.55170000  0.47193500  1
  C  C35  1  0.03963900  0.37914000  0.58250000  1
  C  C36  1  0.19869600  0.40301500  0.57331000  1
  C  C37  1  0.27172300  0.24080900  0.54946200  1
  C  C38  1  0.32435900  0.17860300  0.57274100  1
  C  C39  1  0.31829500  0.18154900  0.68063500  1
  C  C40  1  0.25695000  0.24669100  0.76114100  1
  C  C41  1  0.20179200  0.30715400  0.73447200  1
  C  C42  1  0.20893400  0.30439600  0.62834600  1
  C  C43  1  0.72865900  0.76092500  0.45300000  1
  C  C44  1  0.67650600  0.82336000  0.43014600  1
  C  C45  1  0.68249900  0.82039900  0.32220800  1
  C  C46  1  0.74338900  0.75503200  0.24130600  1
  C  C47  1  0.79805000  0.69430500  0.26752500  1
  C  C48  1  0.79085300  0.69703500  0.37360200  1
  N  N1  1  0.85100100  0.63666400  0.40528200  1
  N  N2  1  0.14812900  0.36441000  0.59610300  1
  O  O1  1  0.58123400  0.05744200  0.24416100  1
  O  O2  1  0.63504100  0.87827600  0.18785800  1
  O  O3  1  0.72788500  0.02505500  0.37585200  1
  O  O4  1  0.55724000  0.94169500  0.35494900  1
  O  O5  1  0.38241100  0.94928500  0.12359100  1
  O  O6  1  0.28115800  0.07109200  0.20746400  1
  O  O7  1  0.44503100  0.12408200  0.43724100  1
  O  O8  1  0.35268100  0.03422300  0.41511200  1
  O  O9  1  0.55614800  0.87811300  0.56605500  1
  O  O10  1  0.64881400  0.96777400  0.58811500  1
  O  O11  1  0.61916700  0.05289800  0.87984500  1
  O  O12  1  0.72009000  0.93094100  0.79583700  1
  O  O13  1  0.27343700  0.97676600  0.62724700  1
  O  O14  1  0.44420600  0.06063800  0.64855700  1
  O  O15  1  0.42016900  0.94486600  0.75947700  1
  O  O16  1  0.36573300  0.12368500  0.81499500  1
  O  O17  1  0.00950000  0.66275700  0.40065000  1
  O  O18  1  0.69110700  0.61291500  0.40971700  1
  O  O19  1  0.99000200  0.33800300  0.60112600  1
  O  O20  1  0.30716700  0.38893600  0.59021600  1
  F  F1  1  0.69827300  0.51588900  0.47687400  1
