# Generated by REPEAT Assigner based on pymatgen
data_DB0-m2_o11_o113_f0_fsc
_audit_creation_date              2022-05-24
_audit_creation_method            REPEAT_Assigner
_cell_length_a                    6.642574
_cell_length_b                    9.201666
_cell_length_c                    12.285993
_cell_angle_alpha                 90.000000
_cell_angle_beta                  80.189844
_cell_angle_gamma                 90.000000
_cell_volume                      739.972973
_symmetry_space_group_name_H-M    P1
_symmetry_Int_Tables_number       1
loop_
    _symmetry_equiv_pos_site_id
    _symmetry_equiv_pos_as_xyz
    1  x,y,z
loop_
    _atom_site_type_symbol
    _atom_site_label
    _atom_site_fract_x
    _atom_site_fract_y
    _atom_site_fract_z
    _atom_type_partial_charge
    O   O1   0.834660  0.135672  0.881611  -0.600977
    O   O2   0.808073  0.888973  0.881062  -0.597355
    C   C1   0.760812  0.016787  0.844869  0.643842
    O   O3   0.245201  0.119925  0.883743  -0.659117
    O   O4   0.221909  0.873098  0.876445  -0.643902
    C   C2   0.315534  0.994530  0.842464  0.853605
    Cu  Cu1  0.002517  0.145334  0.997177  1.105688
    Cu  Cu2  0.981595  0.858436  0.993049  1.040616
    O   O5   0.172267  0.116015  0.110877  -0.622012
    O   O6   0.148779  0.868302  0.109909  -0.596214
    O   O7   0.759695  0.130152  0.111785  -0.535312
    O   O8   0.738287  0.882871  0.105459  -0.537366
    C   C3   0.217997  0.988382  0.148130  0.701375
    C   C4   0.665432  0.008474  0.144860  0.614801
    C   C5   0.904390  0.421698  0.080220  0.173356
    C   C6   0.900509  0.581147  0.079902  0.135096
    N   N1   0.009615  0.352182  0.999660  -0.296261
    N   N2   0.976166  0.651499  0.992513  -0.255283
    H   H1   0.816857  0.362509  0.148652  0.056708
    H   H2   0.833039  0.639513  0.153805  0.072864
    C   C7   0.672375  0.024547  0.744240  0.140532
    C   C8   0.802307  0.054624  0.647268  -0.230392
    C   C9   0.734672  0.048595  0.547664  -0.070409
    C   C10  0.469197  0.994649  0.741997  -0.286237
    C   C11  0.402214  0.984737  0.641693  0.427149
    C   C12  0.534823  0.009877  0.543868  -0.140674
    C   C13  0.463106  0.999839  0.444423  0.133909
    C   C14  0.590373  0.018599  0.344037  -0.228737
    C   C15  0.515745  0.008527  0.246359  0.022385
    N   N3   0.205083  0.952345  0.640280  -0.345729
    C   C16  0.133079  0.942981  0.544588  -0.010611
    C   C17  0.260530  0.967263  0.445552  0.113598
    C   C18  0.184191  0.959918  0.348026  -0.221471
    C   C19  0.310321  0.982272  0.247982  -0.051669
    H   H3   0.959902  0.081647  0.649391  0.181315
    H   H4   0.023456  0.938921  0.350144  0.129428
    H   H5   0.842077  0.074610  0.474454  0.083835
    H   H6   0.751947  0.035771  0.338436  0.168156
    H   H7   0.974951  0.914922  0.545254  0.131472
