# Generated by REPEAT Assigner based on pymatgen
data_DB0-m2_o8_umw
_audit_creation_date              2022-05-24
_audit_creation_method            REPEAT_Assigner
_cell_length_a                    24.822683
_cell_length_b                    42.930776
_cell_length_c                    47.855721
_cell_angle_alpha                 90.611384
_cell_angle_beta                  90.791344
_cell_angle_gamma                 102.139899
_cell_volume                      49847.761876
_symmetry_space_group_name_H-M    P1
_symmetry_Int_Tables_number       1
loop_
    _symmetry_equiv_pos_site_id
    _symmetry_equiv_pos_as_xyz
    1  x,y,z
loop_
    _atom_site_type_symbol
    _atom_site_label
    _atom_site_fract_x
    _atom_site_fract_y
    _atom_site_fract_z
    _atom_type_partial_charge
    C   C1    0.996012  0.432898  0.463895  0.955873
    C   C2    0.203819  0.174637  0.497331  0.819533
    C   C3    0.510390  0.222611  0.415872  0.065040
    C   C4    0.556898  0.277257  0.422498  0.331217
    C   C5    0.557427  0.215736  0.404405  -0.279656
    C   C6    0.605217  0.238949  0.404479  0.065229
    C   C7    0.605125  0.269306  0.414008  -0.350983
    C   C8    0.941611  0.105294  0.502425  -0.173755
    C   C9    0.910191  0.128235  0.503122  -0.027601
    C   C10   0.860141  0.123008  0.489135  -0.345475
    C   C11   0.840277  0.094271  0.475478  0.504096
    C   C12   0.868921  0.070145  0.477434  -0.312514
    C   C13   0.134322  0.103093  0.538980  0.789675
    C   C14   0.920221  0.075939  0.490217  0.043524
    C   C15   0.706232  0.092847  0.424986  -0.218691
    C   C16   0.663191  0.094696  0.406935  -0.049055
    C   C17   0.756648  0.113635  0.422150  0.576047
    C   C18   0.670362  0.116681  0.385665  -0.213041
    C   C19   0.721495  0.136158  0.382017  0.076500
    C   C20   0.764095  0.134803  0.400383  -0.380498
    C   C21   0.251794  0.195996  0.485981  -0.194699
    C   C22   0.241970  0.219066  0.467866  0.080372
    C   C23   0.277431  0.228930  0.446225  -0.343623
    C   C24   0.000987  0.115099  0.506884  0.741473
    C   C25   0.324753  0.217067  0.443717  0.316534
    C   C26   0.338212  0.197484  0.464170  -0.216442
    C   C27   0.300933  0.186013  0.484628  -0.025246
    C   C28   0.327555  0.185666  0.356399  -0.254870
    C   C29   0.361651  0.172604  0.339448  -0.009981
    C   C30   0.349063  0.212006  0.372858  0.342316
    C   C31   0.416620  0.186950  0.337665  -0.157754
    C   C32   0.435562  0.216363  0.350367  -0.038173
    C   C33   0.402316  0.228427  0.368633  -0.189827
    C   C34   0.150918  0.081155  0.559362  -0.184488
    C   C35   0.737309  0.748795  0.715872  0.749038
    C   C36   0.153678  0.050188  0.552117  -0.086053
    C   C37   0.168214  0.029841  0.571910  -0.117422
    C   C38   0.180866  0.040564  0.599197  0.451302
    C   C39   0.178586  0.071505  0.606118  -0.320842
    C   C40   0.163391  0.091534  0.586583  0.048103
    C   C41   0.235645  0.989162  0.659675  -0.150869
    C   C42   0.251368  0.970958  0.680680  -0.052699
    C   C43   0.208483  0.974632  0.635865  0.482860
    C   C44   0.240096  0.938038  0.678642  -0.205228
    C   C45   0.213078  0.923506  0.654942  0.058262
    C   C46   0.848747  0.704244  0.697268  0.772796
    C   C47   0.197750  0.941730  0.633693  -0.333303
    C   C48   0.790169  0.775503  0.999580  -0.224279
    C   C49   0.817090  0.760443  0.980180  0.045385
    C   C50   0.820699  0.769994  0.952832  -0.430155
    C   C51   0.798573  0.795300  0.944366  0.582221
    C   C52   0.775087  0.812022  0.964018  -0.337785
    C   C53   0.770325  0.801955  0.991545  0.104800
    C   C54   0.816677  0.798012  0.858266  -0.338632
    C   C55   0.820356  0.793702  0.829558  0.155541
    C   C56   0.776227  0.777943  0.873123  0.570005
    C   C57   0.900265  0.720026  0.771330  0.764098
    C   C58   0.783367  0.769615  0.815678  -0.324333
    C   C59   0.740797  0.751502  0.830446  0.107583
    C   C60   0.737836  0.755417  0.858858  -0.400458
    C   C61   0.690041  0.760848  0.705232  -0.199488
    C   C62   0.697304  0.792478  0.697749  -0.061968
    C   C63   0.652549  0.805936  0.692437  -0.185291
    C   C64   0.599715  0.787594  0.694219  0.506650
    C   C65   0.592678  0.755509  0.699765  -0.371188
    C   C66   0.637504  0.742171  0.705514  0.084549
    C   C67   0.464953  0.826206  0.688777  -0.202696
    C   C68   0.793324  0.758592  0.787352  0.835242
    C   C69   0.418901  0.838341  0.693943  -0.053926
    C   C70   0.516794  0.844200  0.695337  0.515331
    C   C71   0.423774  0.868305  0.705881  -0.200366
    C   C72   0.475566  0.887053  0.710679  0.087761
    C   C73   0.521816  0.875049  0.705184  -0.378297
    C   C74   0.940210  0.721878  0.794124  -0.168702
    C   C75   0.930567  0.739265  0.817282  -0.042871
    C   C76   0.973226  0.760839  0.829890  -0.233517
    C   C77   0.026301  0.763367  0.820494  0.341423
    C   C78   0.036864  0.741461  0.801151  -0.240673
    C   C79   0.645915  0.716303  0.042497  0.770699
    C   C80   0.993803  0.721449  0.787331  0.003562
    C   C81   0.069769  0.866091  0.801626  -0.245144
    C   C82   0.111108  0.886998  0.788437  0.000957
    C   C83   0.082720  0.844329  0.820203  0.359516
    C   C84   0.165451  0.887782  0.795280  -0.190062
    C   C85   0.177660  0.869856  0.817361  -0.024239
    C   C86   0.136697  0.847411  0.829271  -0.232787
    C   C87   0.515172  0.894704  0.019311  -0.192804
    C   C88   0.492447  0.877308  0.995989  0.001158
    C   C89   0.516656  0.853752  0.985193  -0.297860
    C   C90   0.776507  0.759810  0.026542  0.797671
    C   C91   0.565908  0.849225  0.996474  0.391710
    C   C92   0.593185  0.870500  0.016357  -0.289644
    C   C93   0.567039  0.892427  0.028470  0.023690
    C   C94   0.605709  0.762463  0.986741  -0.302109
    C   C95   0.629742  0.739230  0.998185  0.001198
    C   C96   0.556706  0.767614  0.997214  0.393529
    C   C97   0.607135  0.722826  0.021366  -0.193558
    C   C98   0.555556  0.725728  0.029776  0.028830
    C   C99   0.529534  0.747260  0.016987  -0.292465
    C   C100  0.231222  0.867341  0.097766  -0.214803
    C   C101  0.836096  0.740621  0.092599  0.766939
    C   C102  0.190545  0.883984  0.092082  0.096470
    C   C103  0.136329  0.870471  0.097665  -0.364961
    C   C104  0.122354  0.840165  0.108387  0.532790
    C   C105  0.163466  0.824271  0.115519  -0.219555
    C   C106  0.217552  0.837958  0.110362  -0.057494
    C   C107  0.987911  0.749159  0.101827  -0.366559
    C   C108  0.933148  0.735187  0.097155  0.088770
    C   C109  0.003007  0.780504  0.110759  0.531926
    C   C110  0.893094  0.752432  0.102056  -0.198554
    C   C111  0.908067  0.782969  0.113125  -0.058800
    C   C112  0.072801  0.510845  0.484926  0.760551
    C   C113  0.699483  0.690077  0.111350  0.791578
    C   C114  0.962683  0.797106  0.117286  -0.225564
    C   C115  0.442794  0.950899  0.132142  -0.207467
    C   C116  0.445814  0.939476  0.158948  -0.067557
    C   C117  0.459360  0.960387  0.181513  -0.127184
    C   C118  0.470979  0.993075  0.177281  0.451664
    C   C119  0.469495  0.004184  0.150433  -0.320553
    C   C120  0.454988  0.983433  0.128111  0.056270
    C   C121  0.514676  0.059093  0.239295  -0.163710
    C   C122  0.525191  0.081494  0.260723  -0.029614
    C   C123  0.488261  0.027924  0.244686  0.491035
    C   C124  0.519777  0.097860  0.310212  0.795246
    C   C125  0.509230  0.073461  0.287741  -0.235517
    C   C126  0.483223  0.042390  0.293138  0.082959
    C   C127  0.473197  0.019830  0.271778  -0.342623
    C   C128  0.330362  0.840865  0.995506  -0.201279
    C   C129  0.303084  0.855468  0.975826  0.036823
    C   C130  0.298356  0.844978  0.948508  -0.432294
    C   C131  0.319543  0.819173  0.940359  0.554976
    C   C132  0.343372  0.802916  0.960259  -0.315389
    C   C133  0.349344  0.813940  0.987772  0.082479
    C   C134  0.381805  0.856309  0.855865  -0.403928
    C   C135  0.622520  0.122709  0.370082  0.775197
    C   C136  0.376657  0.861201  0.827737  0.103461
    C   C137  0.342350  0.834881  0.869617  0.573910
    C   C138  0.331146  0.845067  0.812797  -0.343009
    C   C139  0.293413  0.821597  0.825932  0.169444
    C   C140  0.299012  0.816423  0.854362  -0.348229
    C   C141  0.554341  0.187309  0.386725  0.815820
    C   C142  0.456280  0.166617  0.334029  0.754148
    C   C143  0.374439  0.877629  0.716720  0.757208
    C   C144  0.318865  0.858367  0.785844  0.867048
    C   C145  0.205892  0.893744  0.773184  0.793873
    C   C146  0.257358  0.919343  0.701555  0.782351
    C   C147  0.476473  0.901610  0.039887  0.774353
    C   C148  0.948979  0.525728  0.523627  0.774165
    C   C149  0.423758  0.929394  0.108159  0.788085
    C   C150  0.287506  0.878512  0.088055  0.777933
    C   C151  0.345116  0.857395  0.022517  0.786032
    C   C152  0.661498  0.429187  0.343533  -0.167816
    C   C153  0.637683  0.401227  0.356655  -0.055973
    C   C154  0.667860  0.387868  0.375853  -0.154943
    C   C155  0.722786  0.401470  0.380698  0.323388
    C   C156  0.748356  0.426097  0.364103  -0.244785
    C   C157  0.717529  0.440597  0.346232  -0.002915
    C   C158  0.735648  0.414746  0.472172  -0.188564
    C   C159  0.874925  0.444605  0.497387  0.812121
    C   C160  0.775636  0.428134  0.491585  -0.046372
    C   C161  0.747498  0.394584  0.451598  0.277706
    C   C162  0.826233  0.419694  0.491706  -0.175621
    C   C163  0.833893  0.395113  0.474398  0.037596
    C   C164  0.795569  0.383335  0.453686  -0.301271
    C   C165  0.422087  0.519011  0.375647  -0.201263
    C   C166  0.425887  0.531449  0.402554  -0.053104
    C   C167  0.379847  0.537400  0.415601  -0.204879
    C   C168  0.329588  0.531503  0.401486  0.513926
    C   C169  0.326682  0.521028  0.374043  -0.365888
    C   C170  0.579762  0.524619  0.309505  0.796521
    C   C171  0.372453  0.514366  0.361239  0.085818
    C   C172  0.190535  0.542701  0.439163  -0.246930
    C   C173  0.138927  0.537411  0.450620  -0.034968
    C   C174  0.233824  0.534426  0.453775  0.534588
    C   C175  0.129651  0.523408  0.476485  -0.215386
    C   C176  0.173628  0.517298  0.491901  0.093040
    C   C177  0.225639  0.523156  0.480629  -0.369333
    C   C178  0.058771  0.208573  0.453378  -0.351857
    C   C179  0.014061  0.221099  0.460771  -0.037273
    C   C180  0.008210  0.250413  0.451195  -0.282099
    C   C181  0.626492  0.451788  0.337689  0.764805
    C   C182  0.048756  0.268309  0.434926  0.695075
    C   C183  0.092072  0.255024  0.426336  -0.482599
    C   C184  0.096488  0.224972  0.434998  0.219149
    C   C185  0.052877  0.361219  0.448823  -0.349299
    C   C186  0.049701  0.391779  0.456698  0.048736
    C   C187  0.009465  0.342026  0.434281  0.733250
    C   C188  0.004553  0.404132  0.449294  -0.417913
    C   C189  0.963299  0.385993  0.432797  0.292331
    C   C190  0.965211  0.354823  0.425925  -0.541223
    C   C191  0.934744  0.551054  0.541289  -0.237299
    C   C192  0.521525  0.438259  0.385128  0.804213
    C   C193  0.960495  0.558543  0.567046  0.035054
    C   C194  0.945931  0.581370  0.584328  -0.351719
    C   C195  0.903763  0.596217  0.576446  0.695832
    C   C196  0.877698  0.588469  0.550834  -0.459483
    C   C197  0.893875  0.566608  0.533069  0.123347
    C   C198  0.848652  0.642322  0.641430  -0.350251
    C   C199  0.831861  0.659679  0.662919  0.040506
    C   C200  0.900784  0.651859  0.630462  0.707987
    C   C201  0.865829  0.687359  0.673076  -0.248108
    C   C202  0.917083  0.697493  0.661449  0.144067
    C   C203  0.468993  0.507973  0.363846  0.770018
    C   C204  0.934807  0.679444  0.640716  -0.482302
    C   C205  0.595753  0.548397  0.287453  -0.235032
    C   C206  0.581241  0.540519  0.259855  -0.038206
    C   C207  0.595545  0.562549  0.238936  -0.158008
    C   C208  0.624453  0.593199  0.245396  0.487468
    C   C209  0.638450  0.601106  0.273008  -0.338014
    C   C210  0.624589  0.578901  0.293879  0.079969
    C   C211  0.660937  0.660156  0.183687  -0.139943
    C   C212  0.676262  0.680768  0.161655  -0.063455
    C   C213  0.647717  0.627437  0.178854  0.468489
    C   C214  0.072821  0.183520  0.470849  0.959483
    C   C215  0.679502  0.668997  0.134811  -0.210110
    C   C216  0.665888  0.636442  0.130189  0.062008
    C   C217  0.649593  0.616010  0.151943  -0.333734
    C   C218  0.513394  0.409710  0.402448  -0.250246
    C   C219  0.465447  0.386851  0.399081  0.054224
    C   C220  0.462631  0.356384  0.408601  -0.318490
    C   C221  0.508185  0.348020  0.420677  0.270643
    C   C222  0.554901  0.371564  0.426201  0.089113
    C   C223  0.557067  0.402397  0.417384  -0.042820
    C   C224  0.509703  0.253422  0.424514  -0.026584
    Cu  Cu1   0.956181  0.492174  0.470824  1.042929
    Cu  Cu2   0.751843  0.701330  0.057291  1.051622
    Cu  Cu3   0.570987  0.160802  0.332679  1.061552
    Cu  Cu4   0.505817  0.123089  0.365756  1.032117
    Cu  Cu5   0.318163  0.914458  0.753299  1.069294
    Cu  Cu6   0.259802  0.861414  0.732700  1.052511
    Cu  Cu7   0.370693  0.916775  0.053425  1.051428
    Cu  Cu8   0.397225  0.868341  0.078262  1.022246
    Cu  Cu9   0.989707  0.467260  0.515595  1.052137
    Cu  Cu10  0.582205  0.500018  0.365928  1.033939
    Cu  Cu11  0.516387  0.464447  0.330120  1.059924
    Cu  Cu12  0.097848  0.161656  0.525229  1.065304
    Cu  Cu13  0.110091  0.124422  0.483374  1.033901
    Cu  Cu14  0.851606  0.759175  0.734375  1.046990
    Cu  Cu15  0.787744  0.705621  0.748729  1.059206
    Cu  Cu16  0.725969  0.750409  0.081844  1.020560
    H   H1    0.769906  0.448340  0.503992  0.097619
    H   H2    0.195213  0.552583  0.418432  0.112635
    H   H3    0.584216  0.904796  0.047400  0.091011
    H   H4    0.538493  0.714160  0.048589  0.089654
    H   H5    0.494395  0.837515  0.969506  0.167560
    H   H6    0.491974  0.751771  0.025757  0.150106
    H   H7    0.450960  0.877980  0.989300  0.122764
    H   H8    0.922365  0.711312  0.088465  0.102870
    H   H9    0.019360  0.736128  0.096728  0.134182
    H   H10   0.154788  0.800923  0.124773  0.100953
    H   H11   0.248609  0.824550  0.115327  0.140638
    H   H12   0.877575  0.796926  0.117411  0.139057
    H   H13   0.287499  0.516375  0.362976  0.135853
    H   H14   0.104273  0.882935  0.092059  0.132216
    H   H15   0.972397  0.821349  0.125213  0.105429
    H   H16   0.200319  0.906946  0.082182  0.100217
    H   H17   0.545681  0.105564  0.255894  0.128095
    H   H18   0.528129  0.066885  0.218652  0.076529
    H   H19   0.478648  0.029567  0.146918  0.126724
    H   H20   0.453219  0.993108  0.107449  0.113316
    H   H21   0.470595  0.035383  0.314070  0.112554
    H   H22   0.460626  0.950487  0.202122  0.074671
    H   H23   0.452675  0.995655  0.276273  0.130964
    H   H24   0.368553  0.504702  0.340191  0.106900
    H   H25   0.436132  0.914127  0.162612  0.144799
    H   H26   0.406853  0.879607  0.818082  0.106559
    H   H27   0.415204  0.871100  0.867683  0.150981
    H   H28   0.360853  0.782935  0.954011  0.139153
    H   H29   0.371581  0.802436  0.002668  0.051059
    H   H30   0.256760  0.809307  0.814805  0.041509
    H   H31   0.278725  0.857727  0.933414  0.211376
    H   H32   0.266511  0.800103  0.864726  0.144581
    H   H33   0.287256  0.876336  0.981101  0.101450
    H   H34   0.167353  0.506203  0.512091  0.098334
    H   H35   0.384460  0.546265  0.436916  0.094864
    H   H36   0.259313  0.516631  0.492111  0.139118
    H   H37   0.464278  0.535234  0.414271  0.140684
    H   H38   0.081833  0.405513  0.469986  0.113031
    H   H39   0.087444  0.352007  0.456603  0.149727
    H   H40   0.124599  0.269007  0.414163  0.157961
    H   H41   0.698820  0.424289  0.470188  0.129050
    H   H42   0.132659  0.215985  0.429757  0.054417
    H   H43   0.926923  0.394931  0.427501  0.028338
    H   H44   0.974500  0.260054  0.459164  0.125115
    H   H45   0.930519  0.339874  0.415133  0.167725
    H   H46   0.985100  0.208828  0.475718  0.128752
    H   H47   0.791725  0.651245  0.671810  0.112545
    H   H48   0.821312  0.620476  0.634538  0.147608
    H   H49   0.844262  0.599593  0.544621  0.161925
    H   H50   0.872620  0.560785  0.513229  0.101544
    H   H51   0.944672  0.718734  0.669403  0.094846
    H   H52   0.791021  0.437216  0.368237  0.140795
    H   H53   0.966289  0.586079  0.604513  0.151846
    H   H54   0.975796  0.686928  0.632530  0.170118
    H   H55   0.992433  0.546586  0.573917  0.114956
    H   H56   0.686961  0.706136  0.165776  0.143456
    H   H57   0.659401  0.670310  0.204349  0.079172
    H   H58   0.660881  0.624878  0.278343  0.130634
    H   H59   0.636206  0.585802  0.315262  0.113775
    H   H60   0.667642  0.626499  0.109469  0.112831
    H   H61   0.582755  0.554959  0.217826  0.075771
    H   H62   0.639101  0.590613  0.147929  0.129667
    H   H63   0.736368  0.462988  0.336890  0.097430
    H   H64   0.558544  0.516916  0.254201  0.130940
    H   H65   0.472381  0.204852  0.415526  0.029756
    H   H66   0.471121  0.258421  0.431504  -0.067577
    H   H67   0.591334  0.366332  0.436110  -0.098955
    H   H68   0.595288  0.419783  0.419831  0.087018
    H   H69   0.642300  0.234067  0.395443  0.093516
    H   H70   0.426248  0.338175  0.404039  0.141201
    H   H71   0.641890  0.287766  0.412144  0.154715
    H   H72   0.430913  0.392012  0.387354  0.102928
    H   H73   0.623336  0.079429  0.410282  0.147940
    H   H74   0.874070  0.389234  0.473580  0.092828
    H   H75   0.698319  0.076099  0.441903  0.091140
    H   H76   0.853934  0.047835  0.466407  0.144772
    H   H77   0.945075  0.058115  0.488950  0.096816
    H   H78   0.727881  0.153943  0.365909  0.118058
    H   H79   0.838036  0.142154  0.488021  0.174895
    H   H80   0.803368  0.151092  0.398163  0.131453
    H   H81   0.927231  0.151687  0.511696  0.143556
    H   H82   0.346743  0.149107  0.330472  0.098129
    H   H83   0.286347  0.172304  0.360160  0.151236
    H   H84   0.374456  0.187523  0.461847  0.120419
    H   H85   0.646993  0.368251  0.388306  0.079128
    H   H86   0.307978  0.166928  0.497815  0.102766
    H   H87   0.478916  0.227352  0.350060  0.137728
    H   H88   0.265882  0.244393  0.430561  0.172973
    H   H89   0.419887  0.249242  0.381213  0.104319
    H   H90   0.202651  0.226054  0.468155  0.074272
    H   H91   0.272511  0.983057  0.698883  0.134713
    H   H92   0.245960  0.014738  0.662608  0.073955
    H   H93   0.188524  0.080130  0.627259  0.128320
    H   H94   0.161885  0.115543  0.592969  0.119714
    H   H95   0.203975  0.897850  0.652716  0.120312
    H   H96   0.805923  0.367407  0.437940  0.166327
    H   H97   0.169857  0.005884  0.565377  0.069626
    H   H98   0.176721  0.930073  0.615271  0.138505
    H   H99   0.143933  0.041473  0.530990  0.146069
    H   H100  0.854729  0.807665  0.818563  0.041207
    H   H101  0.848381  0.815280  0.869014  0.145462
    H   H102  0.756918  0.831611  0.957533  0.134969
    H   H103  0.748316  0.813802  0.006188  0.047528
    H   H104  0.711145  0.732563  0.820336  0.102205
    H   H105  0.840336  0.756906  0.938053  0.201287
    H   H106  0.706719  0.739401  0.870348  0.150340
    H   H107  0.593542  0.392598  0.355531  0.151143
    H   H108  0.833566  0.739928  0.985709  0.103152
    H   H109  0.378916  0.823245  0.689728  0.142820
    H   H110  0.458678  0.802268  0.680257  0.090859
    H   H111  0.551525  0.741098  0.701213  0.139531
    H   H112  0.630762  0.717422  0.711341  0.103863
    H   H113  0.480443  0.910467  0.720134  0.105191
    H   H114  0.660461  0.830995  0.687542  0.083224
    H   H115  0.562183  0.889197  0.710353  0.141315
    H   H116  0.737966  0.807613  0.697237  0.147530
    H   H117  0.101043  0.899696  0.770371  0.099850
    H   H118  0.105416  0.542733  0.438195  0.133865
    H   H119  0.027848  0.863195  0.793925  0.123394
    H   H120  0.078057  0.743929  0.793183  0.122754
    H   H121  0.001998  0.709190  0.768523  0.094496
    H   H122  0.220151  0.869362  0.822082  0.120457
    H   H123  0.963591  0.777490  0.845192  0.140867
    H   H124  0.148272  0.830885  0.843947  0.132877
    H   H125  0.888767  0.740723  0.822113  0.125326
    H   H126  0.671045  0.738107  0.992100  0.124463
    H   H127  0.627912  0.777981  0.971180  0.172272
    H   H128  0.630949  0.866505  0.025765  0.151028
    N   N1    0.749817  0.396070  0.405771  -0.258518
    N   N2    0.632119  0.605011  0.200405  -0.228403
    N   N3    0.508359  0.315165  0.422980  -0.136618
    N   N4    0.555778  0.310034  0.424812  -0.143192
    N   N5    0.795387  0.091024  0.456536  -0.252662
    N   N6    0.800290  0.115057  0.441701  -0.274837
    N   N7    0.353382  0.218931  0.418311  0.040331
    N   N8    0.321517  0.216485  0.397683  -0.310221
    N   N9    0.196940  0.021325  0.620415  -0.223844
    N   N10   0.191529  0.992654  0.613871  -0.283291
    N   N11   0.795108  0.801423  0.915458  -0.323044
    N   N12   0.718072  0.392879  0.425975  -0.020130
    N   N13   0.778171  0.775784  0.902589  -0.230584
    N   N14   0.552674  0.801270  0.692701  -0.245100
    N   N15   0.564263  0.830883  0.694551  -0.245919
    N   N16   0.065793  0.792096  0.823920  -0.184064
    N   N17   0.043690  0.815600  0.823624  -0.189817
    N   N18   0.581714  0.819653  0.993654  -0.189990
    N   N19   0.540937  0.797057  0.993626  -0.189598
    N   N20   0.066149  0.825162  0.109917  -0.258998
    N   N21   0.059294  0.795636  0.110978  -0.255194
    N   N22   0.484039  0.015791  0.199426  -0.224601
    N   N23   0.280239  0.533891  0.414904  -0.244989
    N   N24   0.475629  0.004330  0.223157  -0.279927
    N   N25   0.322003  0.812278  0.911489  -0.322580
    N   N26   0.342077  0.837318  0.899115  -0.220781
    N   N27   0.284667  0.534388  0.440853  -0.262771
    N   N28   0.051707  0.301394  0.431458  -0.343665
    N   N29   0.005700  0.308655  0.432198  -0.326285
    N   N30   0.884202  0.617269  0.594931  -0.330355
    N   N31   0.921195  0.632691  0.610538  -0.337659
    N   N32   0.640195  0.616499  0.224484  -0.281767
    O   O1    0.970917  0.453522  0.451831  -0.724842
    O   O2    0.547699  0.496974  0.303084  -0.660370
    O   O3    0.637987  0.478507  0.352174  -0.578890
    O   O4    0.576853  0.441585  0.326847  -0.684434
    O   O5    0.561739  0.462978  0.390634  -0.642061
    O   O6    0.494420  0.436206  0.361250  -0.612012
    O   O7    0.516694  0.514794  0.377109  -0.652186
    O   O8    0.461720  0.488546  0.342048  -0.653385
    O   O9    0.071241  0.187721  0.497901  -0.636676
    O   O10   0.090336  0.158935  0.460398  -0.731411
    O   O11   0.172606  0.184821  0.515875  -0.688765
    O   O12   0.009599  0.435977  0.490474  -0.647485
    O   O13   0.185269  0.148322  0.483011  -0.597044
    O   O14   0.124115  0.130205  0.548047  -0.674812
    O   O15   0.129503  0.095856  0.512151  -0.673981
    O   O16   0.021414  0.137537  0.525358  -0.660009
    O   O17   0.032415  0.106367  0.487827  -0.589923
    O   O18   0.785653  0.768262  0.717006  -0.641720
    O   O19   0.730228  0.720468  0.727217  -0.636241
    O   O20   0.868406  0.734912  0.701487  -0.679831
    O   O21   0.814725  0.687974  0.715188  -0.651278
    O   O22   0.908399  0.744790  0.755055  -0.554744
    O   O23   0.033021  0.512799  0.467175  -0.624174
    O   O24   0.851589  0.700625  0.772113  -0.672072
    O   O25   0.830636  0.775199  0.770922  -0.660796
    O   O26   0.768930  0.729421  0.780311  -0.629754
    O   O27   0.655022  0.736574  0.063526  -0.564891
    O   O28   0.682685  0.699471  0.036057  -0.678414
    O   O29   0.751042  0.772347  0.046398  -0.650087
    O   O30   0.783908  0.730653  0.028846  -0.609098
    O   O31   0.801265  0.759428  0.095561  -0.624230
    O   O32   0.821866  0.713719  0.078288  -0.659042
    O   O33   0.702977  0.721061  0.113095  -0.679911
    O   O34   0.062412  0.493677  0.507591  -0.634317
    O   O35   0.715325  0.677444  0.088628  -0.653058
    O   O36   0.549247  0.126310  0.305014  -0.661035
    O   O37   0.499467  0.091427  0.335225  -0.672181
    O   O38   0.629559  0.142057  0.348705  -0.657968
    O   O39   0.573259  0.112450  0.380259  -0.656412
    O   O40   0.583665  0.190541  0.363990  -0.605395
    O   O41   0.517497  0.160909  0.390893  -0.640502
    O   O42   0.506078  0.179005  0.325272  -0.684036
    O   O43   0.447517  0.140611  0.348877  -0.573618
    O   O44   0.377968  0.904770  0.730401  -0.647716
    O   O45   0.941640  0.525698  0.496341  -0.677326
    O   O46   0.328002  0.856419  0.715871  -0.643040
    O   O47   0.341092  0.888391  0.781809  -0.637236
    O   O48   0.281739  0.842765  0.767924  -0.675469
    O   O49   0.253481  0.913787  0.777003  -0.683782
    O   O50   0.199966  0.871693  0.753635  -0.572711
    O   O51   0.287257  0.934512  0.722274  -0.657542
    O   O52   0.243137  0.888010  0.701558  -0.691606
    O   O53   0.439472  0.918183  0.032977  -0.680240
    O   O54   0.467779  0.881848  0.060779  -0.566173
    O   O55   0.407559  0.941479  0.085253  -0.651618
    O   O56   0.968126  0.502729  0.535472  -0.659595
    O   O57   0.420599  0.898480  0.109779  -0.680063
    O   O58   0.301207  0.904940  0.073744  -0.657473
    O   O59   0.322393  0.859773  0.091325  -0.627005
    O   O60   0.337875  0.886637  0.024703  -0.605715
    O   O61   0.371146  0.845411  0.042614  -0.648978
    O   O62   0.884578  0.467028  0.478735  -0.572243
    O   O63   0.914432  0.440225  0.514624  -0.689730
    O   O64   0.596890  0.530991  0.335477  -0.673102
