# Generated by REPEAT Assigner based on pymatgen
data_DB0-m3_o17_o23_f0_nbo.sym.103
_audit_creation_date              2022-05-24
_audit_creation_method            REPEAT_Assigner
_cell_length_a                    43.736280
_cell_length_b                    30.082593
_cell_length_c                    29.887872
_cell_angle_alpha                 90.000000
_cell_angle_beta                  132.721359
_cell_angle_gamma                 90.000000
_cell_volume                      28889.467637
_symmetry_space_group_name_H-M    P1
_symmetry_Int_Tables_number       1
loop_
    _symmetry_equiv_pos_site_id
    _symmetry_equiv_pos_as_xyz
    1  x,y,z
loop_
    _atom_site_type_symbol
    _atom_site_label
    _atom_site_fract_x
    _atom_site_fract_y
    _atom_site_fract_z
    _atom_type_partial_charge
    O   O1    0.500915  0.536719  0.934319  -0.751159
    O   O2    0.501296  0.539152  0.067914  -0.733474
    O   O3    0.000915  0.036719  0.934319  -0.751135
    O   O4    0.001296  0.039152  0.067914  -0.733470
    O   O5    0.500046  0.459837  0.933354  -0.699706
    O   O6    0.498245  0.462344  0.064851  -0.716023
    O   O7    0.000046  0.959837  0.933354  -0.699690
    O   O8    0.998245  0.962344  0.064851  -0.716006
    C   C1    0.500638  0.498305  0.913498  0.679166
    C   C2    0.499566  0.500772  0.086683  0.679684
    C   C3    0.000638  0.998305  0.913498  0.679104
    C   C4    0.999566  0.000772  0.086683  0.679665
    O   O9    0.438197  0.536970  0.939690  -0.720601
    O   O10   0.562363  0.538787  0.062626  -0.703590
    O   O11   0.938197  0.036970  0.939690  -0.720581
    O   O12   0.062363  0.038787  0.062626  -0.703586
    O   O13   0.437877  0.460226  0.936530  -0.693611
    O   O14   0.562077  0.462010  0.061622  -0.707096
    O   O15   0.937877  0.960226  0.936530  -0.693604
    O   O16   0.062077  0.962010  0.061622  -0.707072
    C   C5    0.418490  0.498667  0.918681  0.778755
    C   C6    0.581771  0.500318  0.081585  0.779511
    C   C7    0.918490  0.998667  0.918681  0.778720
    C   C8    0.081771  0.000318  0.081585  0.779489
    Zn  Zn1   0.500133  0.549905  0.999941  1.376482
    Zn  Zn2   0.000133  0.049905  0.999941  1.376471
    Zn  Zn3   0.500105  0.449097  0.000291  1.341182
    Zn  Zn4   0.000105  0.949097  0.000291  1.341169
    C   C9    0.273616  0.541218  0.754332  -0.164620
    C   C10   0.726773  0.541896  0.246434  -0.168242
    C   C11   0.773616  0.041218  0.754332  -0.164738
    C   C12   0.226773  0.041896  0.246434  -0.168232
    C   C13   0.273938  0.459354  0.748157  -0.178823
    C   C14   0.726187  0.459997  0.251802  -0.185164
    C   C15   0.773938  0.959354  0.748157  -0.178924
    C   C16   0.226187  0.959997  0.251802  -0.185152
    C   C17   0.226764  0.461025  0.698633  -0.114233
    C   C18   0.773356  0.461601  0.301515  -0.104692
    C   C19   0.726764  0.961025  0.698633  -0.114152
    C   C20   0.273356  0.961601  0.301515  -0.104696
    H   H1    0.213374  0.548615  0.663543  0.023212
    H   H2    0.787108  0.549156  0.337135  0.020475
    H   H3    0.713374  0.048615  0.663543  0.023157
    H   H4    0.287108  0.049156  0.337135  0.020495
    H   H5    0.283362  0.543055  0.728465  0.013115
    H   H6    0.717128  0.543465  0.272447  0.012300
    H   H7    0.783362  0.043055  0.728465  0.013132
    H   H8    0.217128  0.043465  0.272447  0.012298
    H   H9    0.283672  0.427897  0.774087  0.027385
    H   H10   0.716477  0.428683  0.225603  0.027808
    H   H11   0.783672  0.927897  0.774087  0.027406
    H   H12   0.216477  0.928683  0.225603  0.027805
    H   H13   0.287147  0.460595  0.727020  0.031162
    H   H14   0.712865  0.460979  0.272786  0.032224
    H   H15   0.787147  0.960595  0.727020  0.031188
    H   H16   0.212865  0.960979  0.272786  0.032224
    H   H17   0.217174  0.467079  0.653997  0.012239
    H   H18   0.782833  0.467610  0.346082  0.010107
    H   H19   0.717174  0.967079  0.653997  0.012215
    H   H20   0.282833  0.967610  0.346082  0.010100
    H   H21   0.213729  0.428776  0.696934  0.028439
    H   H22   0.786392  0.429346  0.303235  0.026070
    H   H23   0.713729  0.928776  0.696934  0.028430
    H   H24   0.286392  0.929346  0.303235  0.026066
    C   C21   0.126805  0.497900  0.628400  -0.017491
    C   C22   0.873451  0.498243  0.372027  -0.018240
    C   C23   0.626805  0.997900  0.628400  -0.017483
    C   C24   0.373451  0.998243  0.372027  -0.018239
    C   C25   0.289809  0.498493  0.790984  0.837388
    C   C26   0.710449  0.499368  0.209359  0.839945
    C   C27   0.789809  0.998493  0.790984  0.837387
    C   C28   0.210449  0.999368  0.209359  0.839901
    C   C29   0.226432  0.542276  0.710249  -0.120379
    C   C30   0.773949  0.542877  0.290362  -0.110371
    C   C31   0.726432  0.042276  0.710249  -0.120120
    C   C32   0.273949  0.042877  0.290362  -0.110423
    C   C33   0.210464  0.498158  0.711981  0.816120
    C   C34   0.789792  0.498748  0.288407  0.812070
    C   C35   0.710464  0.998158  0.711981  0.816067
    C   C36   0.289792  0.998748  0.288407  0.812136
    C   C37   0.226457  0.491374  0.775135  -0.281527
    C   C38   0.773796  0.492135  0.225225  -0.271372
    C   C39   0.726457  0.991374  0.775135  -0.281522
    C   C40   0.273796  0.992135  0.225225  -0.271392
    C   C41   0.273637  0.494661  0.822462  -0.155336
    C   C42   0.726639  0.495798  0.177883  -0.162100
    C   C43   0.773637  0.994661  0.822462  -0.155364
    C   C44   0.226639  0.995798  0.177883  -0.162071
    C   C45   0.164533  0.497990  0.666156  -0.530972
    C   C46   0.835723  0.498432  0.334257  -0.532672
    C   C47   0.664533  0.997990  0.666156  -0.530984
    C   C48   0.335723  0.998432  0.334257  -0.532685
    C   C49   0.335730  0.498693  0.836623  -0.558251
    C   C50   0.664529  0.499761  0.163700  -0.552784
    C   C51   0.835730  0.998693  0.836623  -0.558218
    C   C52   0.164529  0.999761  0.163700  -0.552766
    C   C53   0.373453  0.498777  0.874028  -0.005765
    C   C54   0.626808  0.500067  0.126274  -0.011058
    C   C55   0.873453  0.998777  0.874028  -0.005765
    C   C56   0.126808  0.000067  0.126274  -0.011064
    H   H25   0.283180  0.524367  0.851357  0.032760
    H   H26   0.717331  0.525751  0.149475  0.031751
    H   H27   0.783180  0.024367  0.851357  0.032766
    H   H28   0.217331  0.025751  0.149475  0.031745
    H   H29   0.286806  0.464573  0.851619  0.054036
    H   H30   0.713270  0.465962  0.148236  0.054356
    H   H31   0.786806  0.964573  0.851619  0.054046
    H   H32   0.213270  0.965962  0.148236  0.054352
    H   H33   0.213203  0.517138  0.784356  0.056391
    H   H34   0.787247  0.517813  0.216234  0.054882
    H   H35   0.713203  0.017138  0.784356  0.056400
    H   H36   0.287247  0.017813  0.216234  0.054882
    H   H37   0.286584  0.570176  0.785439  0.034549
    H   H38   0.713808  0.571028  0.215609  0.035490
    H   H39   0.786584  0.070176  0.785439  0.034576
    H   H40   0.213808  0.071028  0.215609  0.035495
    H   H41   0.216610  0.569375  0.723324  0.018199
    H   H42   0.783753  0.569980  0.277265  0.015785
    H   H43   0.716610  0.069375  0.723324  0.018107
    H   H44   0.283753  0.069980  0.277265  0.015792
    H   H45   0.216871  0.458108  0.777834  0.050818
    H   H46   0.783163  0.458804  0.222291  0.047630
    H   H47   0.716871  0.958108  0.777834  0.050818
    H   H48   0.283163  0.958804  0.222291  0.047628
    C   C57   0.531737  0.473061  0.689707  -0.384641
    C   C58   0.467798  0.474811  0.309655  -0.387539
    C   C59   0.031737  0.973061  0.689707  -0.384625
    C   C60   0.967798  0.974811  0.309655  -0.387544
    C   C61   0.502969  0.498207  0.638358  0.192485
    C   C62   0.497124  0.499052  0.361716  0.206223
    C   C63   0.002969  0.998207  0.638358  0.192500
    C   C64   0.997124  0.999052  0.361716  0.206220
    C   C65   0.474661  0.523911  0.633028  -0.377975
    C   C66   0.525989  0.524194  0.367777  -0.381901
    C   C67   0.974661  0.023911  0.633028  -0.377927
    C   C68   0.025989  0.024194  0.367777  -0.381887
    C   C69   0.475656  0.525180  0.679900  0.292368
    C   C70   0.524991  0.525842  0.320913  0.294920
    C   C71   0.975656  0.025180  0.679900  0.291986
    C   C72   0.024991  0.025842  0.320913  0.294913
    C   C73   0.503703  0.499101  0.730788  -0.078548
    C   C74   0.496372  0.500638  0.269286  -0.083555
    C   C75   0.003703  0.999101  0.730788  -0.078317
    C   C76   0.996372  0.000638  0.269286  -0.083562
    C   C77   0.531397  0.472681  0.735331  0.271558
    C   C78   0.468126  0.474737  0.264020  0.270913
    C   C79   0.031397  0.972681  0.735331  0.271536
    C   C80   0.968126  0.974737  0.264020  0.270914
    C   C81   0.448582  0.552536  0.675718  -0.233338
    C   C82   0.552638  0.552687  0.325847  -0.233662
    C   C83   0.948582  0.052536  0.675718  -0.232984
    C   C84   0.052638  0.052687  0.325847  -0.233659
    C   C85   0.449519  0.553818  0.722540  -0.247938
    C   C86   0.551711  0.554324  0.279044  -0.252030
    C   C87   0.949519  0.053818  0.722540  -0.248193
    C   C88   0.051711  0.054324  0.279044  -0.252024
    C   C89   0.476803  0.526951  0.772686  0.283355
    C   C90   0.523849  0.528300  0.228140  0.286051
    C   C91   0.976803  0.026951  0.772686  0.283629
    C   C92   0.023849  0.028300  0.228140  0.286036
    C   C93   0.503832  0.499261  0.776888  -0.121824
    C   C94   0.496232  0.501130  0.223176  -0.116079
    C   C95   0.003832  0.999261  0.776888  -0.122007
    C   C96   0.996232  0.001130  0.223176  -0.116055
    C   C97   0.530695  0.471698  0.826799  0.333118
    C   C98   0.468799  0.474371  0.172523  0.324356
    C   C99   0.030695  0.971698  0.826799  0.333212
    C   C100  0.968799  0.974371  0.172523  0.324319
    C   C101  0.559033  0.445531  0.831659  -0.146282
    C   C102  0.439961  0.448680  0.166995  -0.143906
    C   C103  0.059033  0.945531  0.831659  -0.146239
    C   C104  0.939961  0.948680  0.166995  -0.143892
    C   C105  0.558997  0.446132  0.785588  -0.276985
    C   C106  0.439995  0.448989  0.213063  -0.272587
    C   C107  0.058997  0.946132  0.785588  -0.277037
    C   C108  0.939995  0.948989  0.213063  -0.272588
    C   C109  0.476837  0.527704  0.818559  -0.412044
    C   C110  0.523858  0.529335  0.182312  -0.412383
    C   C111  0.976837  0.027704  0.818559  -0.412208
    C   C112  0.023858  0.029335  0.182312  -0.412368
    C   C113  0.501638  0.498528  0.866219  0.264963
    C   C114  0.498435  0.500922  0.133840  0.255854
    C   C115  0.001638  0.998528  0.866219  0.265183
    C   C116  0.998435  0.000922  0.133840  0.255844
    C   C117  0.527885  0.470020  0.870103  -0.466817
    C   C118  0.471562  0.472943  0.129165  -0.459298
    C   C119  0.027885  0.970020  0.870103  -0.467117
    C   C120  0.971562  0.972943  0.129165  -0.459268
    H   H49   0.553599  0.452540  0.693284  0.179690
    H   H50   0.445499  0.454726  0.305526  0.177137
    H   H51   0.053599  0.952540  0.693284  0.179689
    H   H52   0.945499  0.954726  0.305526  0.177138
    H   H53   0.452566  0.544150  0.592970  0.179242
    H   H54   0.548528  0.543726  0.408428  0.177979
    H   H55   0.952566  0.044150  0.592970  0.179255
    H   H56   0.048528  0.043726  0.408428  0.177975
    H   H57   0.426751  0.573188  0.636024  0.135009
    H   H58   0.574923  0.572658  0.366126  0.135393
    H   H59   0.926751  0.073188  0.636024  0.134937
    H   H60   0.074923  0.072658  0.366126  0.135391
    H   H61   0.428347  0.575426  0.719313  0.144002
    H   H62   0.573348  0.575522  0.282878  0.145964
    H   H63   0.928347  0.075426  0.719313  0.144038
    H   H64   0.073348  0.075522  0.282878  0.145962
    H   H65   0.456025  0.549619  0.815804  0.202380
    H   H66   0.545191  0.550806  0.185749  0.204218
    H   H67   0.956025  0.049619  0.815804  0.202405
    H   H68   0.045191  0.050806  0.185749  0.204214
    H   H69   0.546506  0.447493  0.908261  0.190451
    H   H70   0.452459  0.450989  0.090410  0.192119
    H   H71   0.046506  0.947493  0.908261  0.190533
    H   H72   0.952459  0.950989  0.090410  0.192113
    H   H73   0.581173  0.426057  0.789410  0.137397
    H   H74   0.417436  0.429282  0.208726  0.136639
    H   H75   0.081173  0.926057  0.789410  0.137402
    H   H76   0.917436  0.929282  0.208726  0.136639
    O   O17   0.000301  0.564281  0.460665  -0.702565
    O   O18   0.000210  0.564141  0.537855  -0.717502
    O   O19   0.500301  0.064281  0.460665  -0.702590
    O   O20   0.500210  0.064141  0.537855  -0.717508
    C   C121  0.000304  0.584877  0.499335  0.688130
    C   C122  0.500304  0.084877  0.499335  0.688197
    O   O21   0.062507  0.498292  0.525330  -0.718876
    O   O22   0.937744  0.496635  0.475077  -0.719330
    O   O23   0.562507  0.998292  0.525330  -0.718874
    O   O24   0.437744  0.996635  0.475077  -0.719329
    O   O25   0.061874  0.497465  0.601913  -0.676180
    O   O26   0.938379  0.499568  0.398535  -0.677379
    O   O27   0.561874  0.997465  0.601913  -0.676171
    O   O28   0.438379  0.999568  0.398535  -0.677371
    C   C123  0.081759  0.497845  0.583248  0.777422
    C   C124  0.918497  0.498087  0.417181  0.779392
    C   C125  0.581759  0.997845  0.583248  0.777403
    C   C126  0.418497  0.998087  0.417181  0.779380
    Zn  Zn5   0.000724  0.497834  0.450146  1.328240
    Zn  Zn6   0.999510  0.498067  0.550274  1.326914
    Zn  Zn7   0.500724  0.997834  0.450146  1.328234
    Zn  Zn8   0.499510  0.998067  0.550274  1.326904
    O   O29   0.998926  0.431788  0.461501  -0.722984
    O   O30   0.001053  0.431641  0.540843  -0.706368
    O   O31   0.498926  0.931788  0.461501  -0.723004
    O   O32   0.501053  0.931641  0.540843  -0.706392
    C   C127  0.999908  0.411041  0.501068  0.702521
    C   C128  0.499908  0.911041  0.501068  0.702583
    O   O33   0.465015  0.431754  0.465918  -0.708522
    O   O34   0.536956  0.431634  0.535507  -0.694816
    O   O35   0.965015  0.931754  0.465918  -0.708527
    O   O36   0.036956  0.931634  0.535507  -0.694821
    C   C129  0.500963  0.411056  0.500627  0.697550
    C   C130  0.000963  0.911056  0.500627  0.697559
    O   O37   0.466192  0.499761  0.533516  -0.739385
    O   O38   0.533923  0.498550  0.466574  -0.738125
    O   O39   0.966192  0.999761  0.533516  -0.739392
    O   O40   0.033923  0.998550  0.466574  -0.738134
    O   O41   0.538087  0.495789  0.603843  -0.709978
    O   O42   0.461935  0.497884  0.396140  -0.708593
    O   O43   0.038087  0.995789  0.603843  -0.709988
    O   O44   0.961935  0.997884  0.396140  -0.708589
    C   C131  0.502409  0.497759  0.589463  0.702019
    C   C132  0.497663  0.498270  0.410577  0.695591
    C   C133  0.002409  0.997759  0.589463  0.702026
    C   C134  0.997663  0.998270  0.410577  0.695598
    Zn  Zn9   0.452817  0.497831  0.454085  1.336887
    Zn  Zn10  0.547268  0.498060  0.546008  1.336379
    Zn  Zn11  0.952817  0.997831  0.454085  1.336873
    Zn  Zn12  0.047268  0.998060  0.546008  1.336375
    O   O45   0.463134  0.564226  0.462211  -0.681456
    O   O46   0.535064  0.564090  0.536495  -0.695148
    O   O47   0.963134  0.064226  0.462211  -0.681430
    O   O48   0.035064  0.064090  0.536495  -0.695133
    C   C135  0.499118  0.584797  0.499498  0.672437
    C   C136  0.999118  0.084797  0.499498  0.672418
    C   C137  0.473625  0.339657  0.500543  -0.397240
    C   C138  0.528054  0.339640  0.500171  -0.401293
    C   C139  0.973625  0.839657  0.500543  -0.397266
    C   C140  0.028054  0.839640  0.500171  -0.401287
    C   C141  0.500884  0.362576  0.500444  0.203371
    C   C142  0.000884  0.862576  0.500444  0.203379
    C   C143  0.527190  0.293808  0.498363  0.263487
    C   C144  0.474304  0.293821  0.501989  0.259363
    C   C145  0.027190  0.793808  0.498363  0.263456
    C   C146  0.974304  0.793821  0.501989  0.259360
    C   C147  0.500700  0.270897  0.500084  -0.044297
    C   C148  0.000700  0.770897  0.500084  -0.044227
    C   C149  0.552756  0.270852  0.494757  -0.252864
    C   C150  0.448643  0.270877  0.505413  -0.250877
    C   C151  0.052756  0.770852  0.494757  -0.252848
    C   C152  0.948643  0.770877  0.505413  -0.250871
    C   C153  0.051575  0.725083  0.492372  -0.223959
    C   C154  0.949633  0.725100  0.507427  -0.223723
    C   C155  0.551575  0.225083  0.492372  -0.223873
    C   C156  0.449633  0.225100  0.507427  -0.223706
    C   C157  0.025617  0.702137  0.495194  0.250656
    C   C158  0.975493  0.702143  0.504417  0.248107
    C   C159  0.525617  0.202137  0.495194  0.250449
    C   C160  0.475493  0.202143  0.504417  0.248042
    C   C161  0.000603  0.725058  0.499898  -0.032122
    C   C162  0.500603  0.225058  0.499898  -0.031963
    C   C163  0.024692  0.656305  0.493391  -0.410486
    C   C164  0.976223  0.656305  0.505845  -0.408191
    C   C165  0.524692  0.156305  0.493391  -0.410347
    C   C166  0.476223  0.156305  0.505845  -0.408155
    C   C167  0.000407  0.633369  0.499524  0.232905
    C   C168  0.500407  0.133369  0.499524  0.232816
    H   H77   0.452726  0.357659  0.501580  0.177798
    H   H78   0.549026  0.357632  0.499278  0.178365
    H   H79   0.952726  0.857659  0.501580  0.177808
    H   H80   0.049026  0.857632  0.499278  0.178367
    H   H81   0.573472  0.288596  0.493128  0.151564
    H   H82   0.428001  0.288634  0.507185  0.150529
    H   H83   0.073472  0.788596  0.493128  0.151564
    H   H84   0.928001  0.788634  0.507185  0.150529
    H   H85   0.071399  0.707330  0.488942  0.139374
    H   H86   0.929734  0.707352  0.510713  0.139445
    H   H87   0.571399  0.207330  0.488942  0.139348
    H   H88   0.429734  0.207352  0.510713  0.139443
    H   H89   0.044066  0.638319  0.489255  0.186825
    H   H90   0.956773  0.638324  0.509836  0.186264
    H   H91   0.544066  0.138319  0.489255  0.186819
    H   H92   0.456773  0.138324  0.509836  0.186260
    C   C169  0.526592  0.656091  0.554054  -0.361424
    C   C170  0.471881  0.656370  0.445660  -0.366928
    C   C171  0.026592  0.156091  0.554054  -0.361436
    C   C172  0.971881  0.156370  0.445660  -0.366895
    C   C173  0.499189  0.633291  0.499746  0.184668
    C   C174  0.999189  0.133291  0.499746  0.184668
    C   C175  0.472737  0.702208  0.445779  0.241192
    C   C176  0.525940  0.701929  0.554376  0.238402
    C   C177  0.972737  0.202208  0.445779  0.241162
    C   C178  0.025940  0.201929  0.554376  0.238399
    C   C179  0.499393  0.724989  0.500187  -0.044532
    C   C180  0.999393  0.224989  0.500187  -0.044505
    C   C181  0.447003  0.725301  0.391527  -0.224223
    C   C182  0.551787  0.724745  0.608848  -0.226709
    C   C183  0.947003  0.225301  0.391527  -0.224223
    C   C184  0.051787  0.224745  0.608848  -0.226718
    C   C185  0.948178  0.271075  0.391687  -0.221470
    C   C186  0.050843  0.270521  0.609123  -0.220679
    C   C187  0.448178  0.771075  0.391687  -0.221484
    C   C188  0.550843  0.770521  0.609123  -0.220689
    C   C189  0.974319  0.293890  0.446143  0.248224
    C   C190  0.024823  0.293614  0.554886  0.253409
    C   C191  0.474319  0.793890  0.446143  0.248228
    C   C192  0.524823  0.793614  0.554886  0.253410
    C   C193  0.999510  0.270832  0.500406  -0.051097
    C   C194  0.499510  0.770832  0.500406  -0.051082
    C   C195  0.975252  0.339727  0.446374  -0.398804
    C   C196  0.024143  0.339454  0.555090  -0.405733
    C   C197  0.475252  0.839727  0.446374  -0.398802
    C   C198  0.524143  0.839454  0.555090  -0.405731
    C   C199  0.999764  0.362537  0.500841  0.225435
    C   C200  0.499764  0.862537  0.500841  0.225406
    H   H93   0.547611  0.637999  0.596496  0.160995
    H   H94   0.450796  0.638499  0.403041  0.162608
    H   H95   0.047611  0.137999  0.596496  0.161004
    H   H96   0.950796  0.138499  0.403041  0.162587
    H   H97   0.426153  0.707661  0.348692  0.140512
    H   H98   0.572552  0.706887  0.651512  0.141069
    H   H99   0.926153  0.207661  0.348692  0.140514
    H   H100  0.072552  0.206887  0.651512  0.141071
    H   H101  0.928216  0.288932  0.348978  0.139320
    H   H102  0.070900  0.288161  0.652002  0.139712
    H   H103  0.428216  0.788932  0.348978  0.139324
    H   H104  0.570900  0.788161  0.652002  0.139714
    H   H105  0.955723  0.357803  0.403837  0.180816
    H   H106  0.043777  0.357313  0.597799  0.181836
    H   H107  0.455723  0.857803  0.403837  0.180819
    H   H108  0.543777  0.857313  0.597799  0.181841
    C   C201  0.590224  0.418064  0.885256  0.226097
    C   C202  0.590994  0.372768  0.878790  -0.142145
    C   C203  0.620800  0.346844  0.928871  -0.291154
    C   C204  0.650223  0.366187  0.985425  0.412486
    F   F1    0.679476  0.340664  0.034617  -0.234461
    C   C205  0.650063  0.411533  0.991838  -0.276458
    C   C206  0.620310  0.437487  0.941781  -0.206898
    H   H109  0.567935  0.357424  0.834567  0.125699
    H   H110  0.621095  0.311316  0.923783  0.164248
    H   H111  0.673341  0.426769  0.036082  0.160443
    H   H112  0.620551  0.473090  0.946914  0.157523
    C   C207  0.408332  0.421941  0.112789  0.222727
    C   C208  0.406912  0.376604  0.118219  -0.140450
    C   C209  0.376723  0.351350  0.067559  -0.290940
    C   C210  0.347565  0.371411  0.011466  0.409589
    F   F2    0.317934  0.346549  0.961700  -0.233552
    C   C211  0.348375  0.416804  0.006098  -0.270621
    C   C212  0.378519  0.442088  0.056730  -0.209037
    H   H113  0.429765  0.360701  0.162078  0.125343
    H   H114  0.375920  0.315786  0.071832  0.164237
    H   H115  0.325301  0.432603  0.962225  0.156809
    H   H116  0.378802  0.477730  0.052415  0.158000
    C   C213  0.090224  0.918064  0.885256  0.226146
    C   C214  0.090994  0.872768  0.878790  -0.142164
    C   C215  0.120800  0.846844  0.928871  -0.291143
    C   C216  0.150223  0.866187  0.985425  0.412478
    F   F3    0.179476  0.840664  0.034617  -0.234460
    C   C217  0.150063  0.911533  0.991838  -0.276436
    C   C218  0.120310  0.937487  0.941781  -0.206976
    H   H117  0.067935  0.857424  0.834567  0.125704
    H   H118  0.121095  0.811316  0.923783  0.164245
    H   H119  0.173341  0.926769  0.036082  0.160440
    H   H120  0.120551  0.973090  0.946914  0.157557
    C   C219  0.908332  0.921941  0.112789  0.222728
    C   C220  0.906912  0.876604  0.118219  -0.140455
    C   C221  0.876723  0.851350  0.067559  -0.290926
    C   C222  0.847565  0.871411  0.011466  0.409582
    F   F4    0.817934  0.846549  0.961700  -0.233550
    C   C223  0.848375  0.916804  0.006098  -0.270618
    C   C224  0.878519  0.942088  0.056730  -0.209044
    H   H121  0.929765  0.860701  0.162078  0.125343
    H   H122  0.875920  0.815786  0.071832  0.164233
    H   H123  0.825301  0.932603  0.962225  0.156808
    H   H124  0.878802  0.977730  0.052415  0.158004
