# generated using pymatgen
data_Zn2H16C30N2O15
_symmetry_space_group_name_H-M   'P 1'
_cell_length_a   9.33131000
_cell_length_b   8.55535900
_cell_length_c   15.09666300
_cell_angle_alpha   90.00000000
_cell_angle_beta   91.02234200
_cell_angle_gamma   90.00000000
_symmetry_Int_Tables_number   1
_chemical_formula_structural   Zn2H16C30N2O15
_chemical_formula_sum   'Zn2 H16 C30 N2 O15'
_cell_volume   1205.01562132
_cell_formula_units_Z   1
loop_
 _symmetry_equiv_pos_site_id
 _symmetry_equiv_pos_as_xyz
  1  'x, y, z'
loop_
 _atom_site_type_symbol
 _atom_site_label
 _atom_site_symmetry_multiplicity
 _atom_site_fract_x
 _atom_site_fract_y
 _atom_site_fract_z
 _atom_site_occupancy
  Zn  Zn1  1  0.84009900  0.48251800  0.50387100  1
  Zn  Zn2  1  0.16100200  0.48283500  0.50104300  1
  H  H1  1  0.04747300  0.98120900  0.56506600  1
  H  H2  1  0.97785100  0.23329200  0.80141800  1
  H  H3  1  0.99412500  0.73170000  0.80328400  1
  H  H4  1  0.85721000  0.79597800  0.08604500  1
  H  H5  1  0.16151800  0.16783400  0.08238200  1
  H  H6  1  0.02233700  0.23272800  0.20335600  1
  H  H7  1  0.01750500  0.73180000  0.20363700  1
  H  H8  1  0.94779600  0.98369900  0.43991300  1
  H  H9  1  0.37040200  0.67825200  0.21959800  1
  H  H10  1  0.27668400  0.39456200  0.27049200  1
  H  H11  1  0.36227100  0.55081300  0.67985700  1
  H  H12  1  0.72950600  0.84225900  0.91249700  1
  H  H13  1  0.13637100  0.29307500  0.92602900  1
  H  H14  1  0.64355400  0.54953500  0.68223000  1
  H  H15  1  0.72278500  0.39348800  0.27480700  1
  H  H16  1  0.62886100  0.60003600  0.16359400  1
  C  C1  1  0.00831700  0.12191100  0.67715700  1
  C  C2  1  0.00837000  0.84224400  0.67781100  1
  C  C3  1  0.99115700  0.12310600  0.76765000  1
  C  C4  1  0.99444600  0.84206500  0.76860700  1
  C  C5  1  0.99204000  0.98315000  0.81427200  1
  C  C6  1  0.02534900  0.98178400  0.63436000  1
  C  C7  1  0.91446900  0.87919400  0.95876700  1
  C  C8  1  0.08391900  0.08842600  0.95671200  1
  C  C9  1  0.92368500  0.87651900  0.05000400  1
  C  C10  1  0.09040800  0.08758600  0.04807900  1
  C  C11  1  0.01112100  0.98094500  0.09502200  1
  C  C12  1  0.99515000  0.98474100  0.91148000  1
  C  C13  1  0.01431900  0.12261100  0.23794000  1
  C  C14  1  0.00881000  0.84205900  0.23806500  1
  C  C15  1  0.99327400  0.12191500  0.32817600  1
  C  C16  1  0.99168900  0.84390400  0.32850900  1
  C  C17  1  0.97261200  0.98319400  0.37098900  1
  C  C18  1  0.01335200  0.98207700  0.19198000  1
  C  C19  1  0.00521500  0.69896600  0.62456500  1
  C  C20  1  0.00525000  0.26462200  0.62350600  1
  C  C21  1  0.99548100  0.70300800  0.38266500  1
  C  C22  1  0.99592100  0.26314700  0.38217700  1
  C  C23  1  0.64036600  0.55139700  0.34260300  1
  C  C24  1  0.57127700  0.64017500  0.28000900  1
  C  C25  1  0.42683900  0.64147300  0.27918600  1
  C  C26  1  0.35829200  0.55265500  0.34033500  1
  C  C27  1  0.42504700  0.51587700  0.42234200  1
  C  C28  1  0.57495500  0.51583400  0.42390200  1
  C  C29  1  0.57536700  0.46192600  0.57555300  1
  C  C30  1  0.42625500  0.46212300  0.57392500  1
  N  N1  1  0.65068800  0.48278300  0.50088200  1
  N  N2  1  0.35021400  0.48331800  0.49766500  1
  O  O1  1  0.12853200  0.64949100  0.59295900  1
  O  O2  1  0.12863500  0.31424900  0.59189900  1
  O  O3  1  0.87799600  0.64479400  0.59847900  1
  O  O4  1  0.87806200  0.31909300  0.59781700  1
  O  O5  1  0.87621700  0.65315200  0.41512000  1
  O  O6  1  0.87598200  0.31232500  0.41475200  1
  O  O7  1  0.11910700  0.64848600  0.40924200  1
  O  O8  1  0.11961200  0.31748400  0.40903900  1
  O  O9  1  0.23930100  0.47880100  0.30867900  1
  O  O10  1  0.35663600  0.44603200  0.65218800  1
  O  O11  1  0.81997400  0.78194700  0.91601500  1
  O  O12  1  0.17142100  0.18708700  0.91141600  1
  O  O13  1  0.64558800  0.44426800  0.65505400  1
  O  O14  1  0.75975800  0.47859700  0.31335900  1
  O  O15  1  0.64232000  0.68696200  0.20622800  1
