# Generated by REPEAT Assigner based on pymatgen
data_DB0-m29_o81_o52_f0_pts.sym.49
_audit_creation_date              2022-05-24
_audit_creation_method            REPEAT_Assigner
_cell_length_a                    15.634705
_cell_length_b                    9.524804
_cell_length_c                    19.731003
_cell_angle_alpha                 85.585202
_cell_angle_beta                  84.099614
_cell_angle_gamma                 107.854869
_cell_volume                      2763.629450
_symmetry_space_group_name_H-M    P1
_symmetry_Int_Tables_number       1
loop_
    _symmetry_equiv_pos_site_id
    _symmetry_equiv_pos_as_xyz
    1  x,y,z
loop_
    _atom_site_type_symbol
    _atom_site_label
    _atom_site_fract_x
    _atom_site_fract_y
    _atom_site_fract_z
    _atom_type_partial_charge
    C   C1   0.904243  0.074581  0.909783  -0.225050
    C   C2   0.297064  0.007582  0.944720  0.092963
    C   C3   0.216554  0.015046  0.924086  -0.185455
    C   C4   0.143113  0.003588  0.971725  0.131961
    C   C5   0.064780  0.017901  0.950012  -0.206556
    C   C6   0.990612  0.011839  0.997125  -0.021378
    C   C7   0.823639  0.081318  0.890624  -0.101016
    C   C8   0.746305  0.038640  0.937185  0.032073
    C   C9   0.910238  0.028727  0.977237  0.150942
    C   C10  0.834641  0.003120  0.026222  0.067594
    C   C11  0.751143  0.002140  0.005888  -0.042011
    C   C12  0.303039  0.985892  0.014362  -0.069580
    C   C13  0.227715  0.967704  0.061597  -0.245560
    C   C14  0.148467  0.979070  0.040317  0.232613
    C   C15  0.074983  0.968879  0.087499  -0.307703
    C   C16  0.996631  0.984531  0.066080  0.236755
    C   C17  0.924721  0.974561  0.114493  -0.211564
    C   C18  0.844480  0.983041  0.095099  -0.101978
    H   H1   0.961073  0.108942  0.869884  0.153907
    H   H2   0.210911  0.031983  0.870178  0.143652
    H   H3   0.064076  0.030545  0.895531  0.149077
    H   H4   0.820701  0.111608  0.837198  0.137907
    H   H5   0.232743  0.953378  0.115761  0.208744
    H   H6   0.078882  0.949347  0.141622  0.155513
    H   H7   0.930364  0.957910  0.168455  0.152771
    H   H8   0.792021  0.978632  0.135827  0.118270
    O   O1   0.610727  0.038905  0.051442  -0.467883
    C   C19  0.668349  0.963868  0.056009  0.449697
    O   O2   0.466478  0.674205  0.114107  -0.422974
    O   O3   0.650664  0.852602  0.104310  -0.407028
    O   O4   0.498420  0.815934  0.201320  -0.574522
    C   C20  0.476980  0.685537  0.178814  0.544109
    Fe  Fe1  0.511247  0.979693  0.128989  1.406380
    O   O5   0.394591  0.903693  0.089492  -0.559078
    O   O6   0.458128  0.122360  0.021480  -0.466696
    C   C21  0.389565  0.000496  0.040178  0.711302
    O   O7   0.536856  0.166261  0.174757  -0.659159
    O   O8   0.383772  0.074332  0.197667  -0.602099
    C   C22  0.460662  0.169273  0.208277  0.754903
    O   O9   0.499622  0.816366  0.790283  -0.583108
    O   O10  0.594571  0.938523  0.694131  -0.523363
    C   C23  0.543179  0.814050  0.729940  0.532129
    O   O11  0.655896  0.100490  0.855164  -0.594851
    O   O12  0.589863  0.901867  0.935068  -0.461074
    C   C24  0.659700  0.018472  0.910796  0.603266
    O   O13  0.369555  0.066084  0.827928  -0.508437
    O   O14  0.541435  0.165251  0.745956  -0.450675
    C   C25  0.541561  0.291849  0.768908  0.437337
    O   O15  0.442555  0.980091  0.906506  -0.453986
    C   C26  0.373183  0.020884  0.891751  0.480702
    O   O16  0.539703  0.302084  0.834957  -0.420935
    Fe  Fe2  0.533813  0.017005  0.824351  1.401380
    H   H9   0.540054  0.561605  0.801721  0.143883
    C   C27  0.540214  0.419670  0.722238  0.128756
    C   C28  0.538770  0.409139  0.652845  -0.062214
    H   H10  0.537480  0.306135  0.632898  0.122360
    C   C29  0.534721  0.527607  0.609429  -0.312225
    C   C30  0.536129  0.659338  0.634880  -0.104582
    H   H11  0.534743  0.753111  0.601000  0.111402
    C   C31  0.538051  0.671598  0.703908  0.158483
    C   C32  0.538362  0.550872  0.747717  -0.179091
    N   N1   0.483694  0.593616  0.502530  -0.284483
    N   N2   0.468618  0.571448  0.438874  -0.251483
    C   C33  0.493922  0.466096  0.408419  0.738471
    N   N3   0.538684  0.388781  0.442201  -0.084425
    N   N4   0.552682  0.409364  0.506136  -0.387008
    C   C34  0.524603  0.511143  0.537237  0.838724
    C   C35  0.461978  0.304126  0.312155  0.290267
    C   C36  0.460310  0.299399  0.241793  -0.051860
    C   C37  0.464098  0.422832  0.199436  -0.114663
    H   H12  0.462639  0.414402  0.145244  0.137542
    C   C38  0.471214  0.554738  0.225170  -0.009291
    C   C39  0.478880  0.564710  0.293807  0.084488
    H   H13  0.489549  0.670756  0.313322  0.072428
    C   C40  0.476621  0.442063  0.337422  -0.562370
    C   C41  0.445112  0.163081  0.359833  0.009973
    C   C42  0.362618  0.038529  0.347135  -0.246776
    C   C43  0.528495  0.112242  0.356217  -0.190213
    H   H14  0.426861  0.180298  0.413274  0.063309
    H   H15  0.382511  0.959421  0.315651  0.081843
    H   H16  0.314203  0.084698  0.323460  0.049380
    H   H17  0.328177  0.975667  0.397308  0.055207
    H   H18  0.541609  0.071819  0.306334  0.061468
    H   H19  0.517778  0.020809  0.397735  0.088969
    H   H20  0.588715  0.205711  0.363060  -0.008498
