# Generated by REPEAT Assigner based on pymatgen
data_DB0-m29_o89_o430_f0_pts.sym.76
_audit_creation_date              2022-05-24
_audit_creation_method            REPEAT_Assigner
_cell_length_a                    14.160954
_cell_length_b                    16.011602
_cell_length_c                    13.198781
_cell_angle_alpha                 94.505139
_cell_angle_beta                  93.141977
_cell_angle_gamma                 65.509719
_cell_volume                      2714.207503
_symmetry_space_group_name_H-M    P1
_symmetry_Int_Tables_number       1
loop_
    _symmetry_equiv_pos_site_id
    _symmetry_equiv_pos_as_xyz
    1  x,y,z
loop_
    _atom_site_type_symbol
    _atom_site_label
    _atom_site_fract_x
    _atom_site_fract_y
    _atom_site_fract_z
    _atom_type_partial_charge
    C   C1   0.851037  0.998627  0.128054  -0.251594
    C   C2   0.760813  0.994995  0.085922  0.049335
    C   C3   0.745307  0.997208  0.980344  -0.112174
    C   C4   0.819175  0.003954  0.921375  -0.118798
    C   C5   0.908957  0.006446  0.964072  0.089346
    C   C6   0.925213  0.004813  0.067851  0.242741
    C   C7   0.982574  0.009690  0.901959  -0.263974
    C   C8   0.073342  0.011634  0.942989  0.213021
    C   C9   0.090066  0.011317  0.046758  0.122911
    C   C10  0.015839  0.008443  0.109997  -0.240530
    C   C11  0.146792  0.014430  0.879699  -0.182004
    C   C12  0.238412  0.017487  0.918745  -0.039151
    C   C13  0.253935  0.019099  0.024257  -0.025694
    C   C14  0.180397  0.015788  0.086178  -0.190290
    H   H1   0.862232  0.996705  0.209337  0.139689
    H   H2   0.807931  0.004381  0.839735  0.177738
    H   H3   0.969111  0.010423  0.820560  0.158116
    H   H4   0.131919  0.013453  0.798564  0.146479
    H   H5   0.195094  0.019475  0.166969  0.196015
    N   N1   0.981012  0.085492  0.283009  -0.225460
    C   C15  0.016788  0.063308  0.378092  -0.099111
    C   C16  0.091352  0.973988  0.376479  -0.192264
    C   C17  0.100926  0.940651  0.276162  -0.106700
    C   C18  0.031994  0.011299  0.220747  0.244405
    H   H6   0.924781  0.148585  0.261578  0.307601
    H   H7   0.990363  0.109536  0.444860  0.151915
    H   H8   0.133989  0.937310  0.441246  0.157213
    H   H9   0.152570  0.872905  0.246843  0.111818
    O   O1   0.589761  0.006365  0.122672  -0.584156
    C   C19  0.683166  0.993903  0.156102  0.630934
    O   O2   0.662392  0.810511  0.232457  -0.509013
    O   O3   0.705420  0.985565  0.253647  -0.530653
    O   O4   0.540961  0.917932  0.335804  -0.617331
    C   C20  0.617631  0.836555  0.320828  0.643696
    Fe  Fe1  0.495240  0.006477  0.227718  1.511958
    O   O5   0.385002  0.974659  0.155571  -0.696043
    O   O6   0.371846  0.091639  0.060979  -0.476497
    C   C21  0.345026  0.024574  0.076952  0.805758
    O   O7   0.457722  0.131536  0.297739  -0.664109
    O   O8   0.293177  0.144444  0.266291  -0.567084
    C   C22  0.357644  0.174603  0.313768  0.722040
    O   O9   0.538484  0.886616  0.704740  -0.640366
    O   O10  0.703474  0.874126  0.731878  -0.504210
    C   C23  0.638244  0.843536  0.686862  0.674635
    O   O11  0.613592  0.041445  0.848286  -0.692558
    O   O12  0.628353  0.923450  0.942135  -0.490969
    C   C24  0.655270  0.990388  0.925835  0.825520
    O   O13  0.296174  0.015616  0.748694  -0.531955
    O   O14  0.457466  0.100476  0.668281  -0.599190
    C   C25  0.371804  0.175740  0.680084  0.580778
    O   O15  0.407217  0.011681  0.880443  -0.588295
    C   C26  0.316528  0.015526  0.846900  0.668574
    O   O16  0.321496  0.195866  0.765432  -0.507958
    Fe  Fe2  0.502285  0.011235  0.775636  1.496063
    H   H10  0.442197  0.130255  0.492359  0.143388
    C   C27  0.323688  0.230243  0.408490  0.022239
    C   C28  0.231186  0.306836  0.411562  -0.252072
    H   H11  0.191032  0.332985  0.341131  0.130486
    C   C29  0.187310  0.346970  0.503750  0.245691
    C   C30  0.233726  0.306451  0.593251  -0.256930
    H   H12  0.197132  0.335200  0.665125  0.140828
    C   C31  0.326596  0.228707  0.590076  0.077181
    C   C32  0.372742  0.193362  0.497488  -0.157228
    C   C33  0.006202  0.433422  0.558769  -0.330545
    H   H13  0.014120  0.376679  0.602879  0.146032
    C   C34  0.911192  0.507732  0.552588  0.452758
    C   C35  0.899499  0.581196  0.495695  -0.373479
    C   C36  0.983691  0.577217  0.443013  0.398563
    C   C37  0.076203  0.500102  0.444896  -0.323155
    H   H14  0.140882  0.497805  0.403106  0.129775
    C   C38  0.088581  0.428716  0.503958  0.087101
    C   C39  0.751254  0.702356  0.407024  -0.289966
    H   H15  0.784015  0.670468  0.334497  0.147542
    C   C40  0.661825  0.783214  0.410854  0.008044
    C   C41  0.619298  0.821685  0.504123  -0.145804
    H   H16  0.551201  0.885859  0.509603  0.143102
    C   C42  0.670370  0.786230  0.592842  0.011001
    C   C43  0.762163  0.708821  0.589168  -0.281129
    H   H17  0.804896  0.684334  0.659012  0.144682
    C   C44  0.801083  0.664209  0.496700  0.574599
    N   N2   0.827072  0.507812  0.605435  -0.659730
    C   C45  0.761150  0.482224  0.546847  0.738196
    O   O17  0.761271  0.482985  0.454555  -0.576982
    C   C46  0.688293  0.451888  0.594325  -0.476274
    H   H18  0.844964  0.479308  0.674945  0.333158
    H   H19  0.695620  0.457213  0.678403  0.102175
    H   H20  0.706003  0.379543  0.568149  0.141182
    H   H21  0.607512  0.496147  0.570913  0.153093
    N   N3   0.977159  0.651763  0.388299  -0.527870
    C   C47  0.996443  0.716821  0.445728  0.735569
    O   O18  0.991680  0.720669  0.538038  -0.574462
    C   C48  0.024630  0.784007  0.397012  -0.515368
    H   H22  0.013034  0.634838  0.319303  0.294278
    H   H23  0.022842  0.773297  0.313031  0.104003
    H   H24  0.103683  0.775335  0.423388  0.149865
    H   H25  0.968360  0.854777  0.419223  0.166295
