# generated using pymatgen
data_ZnH12C20NO6
_symmetry_space_group_name_H-M   'P 1'
_cell_length_a   16.13446800
_cell_length_b   14.98887400
_cell_length_c   10.94411100
_cell_angle_alpha   90.00000000
_cell_angle_beta   89.99363500
_cell_angle_gamma   90.00000000
_symmetry_Int_Tables_number   1
_chemical_formula_structural   ZnH12C20NO6
_chemical_formula_sum   'Zn2 H24 C40 N2 O12'
_cell_volume   2646.69651419
_cell_formula_units_Z   2
loop_
 _symmetry_equiv_pos_site_id
 _symmetry_equiv_pos_as_xyz
  1  'x, y, z'
loop_
 _atom_site_type_symbol
 _atom_site_label
 _atom_site_symmetry_multiplicity
 _atom_site_fract_x
 _atom_site_fract_y
 _atom_site_fract_z
 _atom_site_occupancy
  Zn  Zn1  1  0.50169600  0.60190400  0.49925000  1
  Zn  Zn2  1  0.50155900  0.39863200  0.49921300  1
  H  H1  1  0.07783800  0.64241600  0.49902300  1
  H  H2  1  0.92541700  0.35811600  0.49960100  1
  H  H3  1  0.92538200  0.64239300  0.49913900  1
  H  H4  1  0.07787300  0.35813900  0.49948500  1
  H  H5  1  0.37024800  0.08231200  0.47963500  1
  H  H6  1  0.63300600  0.91822400  0.51882000  1
  H  H7  1  0.63299400  0.08233900  0.51878600  1
  H  H8  1  0.37026000  0.91819700  0.47966800  1
  H  H9  1  0.35818500  0.55645100  0.22285200  1
  H  H10  1  0.64561700  0.44602000  0.77554000  1
  H  H11  1  0.35745700  0.55433900  0.77574500  1
  H  H12  1  0.64524100  0.44429200  0.22264500  1
  H  H13  1  0.77614000  0.39855900  0.23310800  1
  H  H14  1  0.84250600  0.42119800  0.10677100  1
  H  H15  1  0.77405200  0.26675200  0.19481300  1
  H  H16  1  0.23130100  0.61418400  0.76507000  1
  H  H17  1  0.19404600  0.67772600  0.89110600  1
  H  H18  1  0.15891100  0.50698900  0.80948600  1
  H  H19  1  0.77156400  0.38600100  0.76466000  1
  H  H20  1  0.80908400  0.32290600  0.89163300  1
  H  H21  1  0.90134500  0.42030300  0.85596700  1
  H  H22  1  0.22740800  0.60258000  0.23350900  1
  H  H23  1  0.16089500  0.57937700  0.10753000  1
  H  H24  1  0.22940500  0.73426000  0.19419500  1
  C  C1  1  0.25072800  0.50029000  0.49917900  1
  C  C2  1  0.75252700  0.50024500  0.49938400  1
  C  C3  1  0.33966900  0.50023900  0.49916500  1
  C  C4  1  0.66358600  0.50029700  0.49931300  1
  C  C5  1  0.50169500  0.50028900  0.26015400  1
  C  C6  1  0.50155900  0.50024700  0.73829500  1
  C  C7  1  0.91615600  0.50025300  0.49938700  1
  C  C8  1  0.08709900  0.50027900  0.49924000  1
  C  C9  1  0.50164200  0.81252700  0.49926100  1
  C  C10  1  0.50161200  0.18800900  0.49919400  1
  C  C11  1  0.82721400  0.50024300  0.49940900  1
  C  C12  1  0.17604100  0.50029000  0.49919500  1
  C  C13  1  0.36093900  0.55647200  0.12454100  1
  C  C14  1  0.64241200  0.44448900  0.87380900  1
  C  C15  1  0.36074700  0.55594800  0.87400700  1
  C  C16  1  0.64242100  0.44418200  0.12433600  1
  C  C17  1  0.29113400  0.58461400  0.06258000  1
  C  C18  1  0.71232300  0.41657500  0.93567500  1
  C  C19  1  0.29088600  0.58389000  0.93599200  1
  C  C20  1  0.71219100  0.41601000  0.06228100  1
  C  C21  1  0.43178300  0.52919000  0.93603300  1
  C  C22  1  0.57148100  0.47133500  0.06237100  1
  C  C23  1  0.43182300  0.52924300  0.06247000  1
  C  C24  1  0.57142900  0.47131000  0.93593700  1
  C  C25  1  0.50158500  0.50023600  0.87246200  1
  C  C26  1  0.50167200  0.50030100  0.12596900  1
  C  C27  1  0.50163400  0.90826600  0.49924800  1
  C  C28  1  0.50162100  0.09227100  0.49920700  1
  C  C29  1  0.42798800  0.95426000  0.48826400  1
  C  C30  1  0.57526600  0.04627600  0.51019100  1
  C  C31  1  0.57527300  0.95427500  0.51021100  1
  C  C32  1  0.42798100  0.04626100  0.48824400  1
  C  C33  1  0.95888300  0.57993600  0.49922000  1
  C  C34  1  0.04437200  0.42059600  0.49940900  1
  C  C35  1  0.04435200  0.57994800  0.49915000  1
  C  C36  1  0.95890200  0.42058400  0.49947900  1
  C  C37  1  0.78565700  0.38510200  0.13456000  1
  C  C38  1  0.21606300  0.61067100  0.86367700  1
  C  C39  1  0.78705600  0.38971600  0.86316100  1
  C  C40  1  0.21773200  0.61566200  0.13490200  1
  N  N1  1  0.50160200  0.26520000  0.49918900  1
  N  N2  1  0.50165300  0.73533600  0.49926800  1
  O  O1  1  0.37821600  0.57731700  0.49917400  1
  O  O2  1  0.62503900  0.42322000  0.49925000  1
  O  O3  1  0.62518700  0.57743300  0.49932600  1
  O  O4  1  0.37806800  0.42310300  0.49918900  1
  O  O5  1  0.50186300  0.57739100  0.31718000  1
  O  O6  1  0.50142800  0.42314200  0.68128200  1
  O  O7  1  0.50172200  0.57736400  0.68131200  1
  O  O8  1  0.50149700  0.42317600  0.31715000  1
  O  O9  1  0.79670400  0.29351800  0.11915200  1
  O  O10  1  0.15297400  0.54815900  0.87967400  1
  O  O11  1  0.85001000  0.45243200  0.87876200  1
  O  O12  1  0.20653200  0.70717000  0.11890300  1
