# Generated by REPEAT Assigner based on pymatgen
data_DB0-m2_o8_o15_f0_pcu.sym.48
_audit_creation_date              2022-05-24
_audit_creation_method            REPEAT_Assigner
_cell_length_a                    10.847684
_cell_length_b                    15.558477
_cell_length_c                    17.024725
_cell_angle_alpha                 96.353940
_cell_angle_beta                  89.998779
_cell_angle_gamma                 92.844225
_cell_volume                      2852.110162
_symmetry_space_group_name_H-M    P1
_symmetry_Int_Tables_number       1
loop_
    _symmetry_equiv_pos_site_id
    _symmetry_equiv_pos_as_xyz
    1  x,y,z
loop_
    _atom_site_type_symbol
    _atom_site_label
    _atom_site_fract_x
    _atom_site_fract_y
    _atom_site_fract_z
    _atom_type_partial_charge
    O   O1   0.489795  0.413583  0.384526  -0.550602
    O   O2   0.510818  0.586501  0.615878  -0.553512
    O   O3   0.509742  0.561118  0.386155  -0.621709
    O   O4   0.490774  0.438554  0.614192  -0.613883
    C   C1   0.501470  0.483181  0.347875  0.688578
    C   C2   0.499404  0.516636  0.652464  0.680860
    O   O5   0.315367  0.425928  0.496429  -0.700831
    O   O6   0.685267  0.573898  0.503851  -0.698234
    O   O7   0.327010  0.574671  0.503587  -0.641383
    O   O8   0.673669  0.425234  0.496763  -0.633978
    C   C3   0.263532  0.500383  0.500355  0.982612
    C   C4   0.737142  0.499548  0.500125  0.974504
    Cu  Cu1  0.492967  0.413812  0.499211  0.865260
    Cu  Cu2  0.508480  0.586070  0.501028  0.872483
    H   H1   0.116509  0.551851  0.242409  0.093780
    H   H2   0.882909  0.450990  0.758216  0.091547
    C   C5   0.124666  0.472908  0.637622  -0.231700
    C   C6   0.875543  0.528817  0.363441  -0.230979
    C   C7   0.059894  0.460462  0.705172  -0.106921
    C   C8   0.939849  0.541525  0.295728  -0.106007
    C   C9   0.933558  0.460833  0.704954  -0.053760
    C   C10  0.066231  0.541144  0.295634  -0.057037
    C   C11  0.871265  0.473895  0.637276  -0.293515
    C   C12  0.128878  0.527696  0.363144  -0.302708
    C   C13  0.935284  0.486089  0.568352  0.252354
    C   C14  0.065193  0.514538  0.432085  0.256602
    C   C15  0.063125  0.485899  0.568462  0.223356
    C   C16  0.937355  0.514786  0.432157  0.227234
    C   C17  0.872349  0.499910  0.500133  -0.461933
    C   C18  0.128300  0.500357  0.500327  -0.463484
    H   H3   0.223879  0.473126  0.641621  0.151564
    H   H4   0.776443  0.529648  0.360103  0.151854
    H   H5   0.108593  0.451254  0.758648  0.099259
    H   H6   0.890714  0.551462  0.242485  0.099331
    H   H7   0.772040  0.474458  0.640800  0.143236
    H   H8   0.228230  0.528163  0.359634  0.150314
    C   C19  0.501925  0.474877  0.260650  -0.198018
    C   C20  0.497188  0.524557  0.739640  -0.176521
    C   C21  0.480389  0.547913  0.224002  -0.017730
    C   C22  0.514350  0.450607  0.775852  -0.030984
    C   C23  0.479371  0.545413  0.142977  -0.210229
    C   C24  0.515687  0.452516  0.857015  -0.197932
    C   C25  0.498652  0.468564  0.096406  0.484561
    C   C26  0.499789  0.529573  0.903974  0.479479
    C   C27  0.517937  0.395259  0.132368  -0.377365
    C   C28  0.484717  0.603665  0.868451  -0.369275
    C   C29  0.521585  0.397322  0.213572  0.129909
    C   C30  0.481219  0.602345  0.787195  0.114464
    N   N1   0.501929  0.463093  0.012824  -0.228901
    N   N2   0.496003  0.534784  0.987494  -0.228122
    H   H9   0.528559  0.389606  0.741000  0.115043
    H   H10  0.463395  0.608836  0.258227  0.113822
    H   H11  0.529867  0.392438  0.881247  0.075940
    H   H12  0.462536  0.605025  0.118613  0.079992
    H   H13  0.536080  0.335759  0.096068  0.119215
    H   H14  0.470350  0.663537  0.905153  0.117106
    N   N3   0.515984  0.714926  0.502462  -0.139379
    N   N4   0.483000  0.284956  0.497540  -0.141115
    C   C31  0.438504  0.756149  0.459849  -0.019686
    C   C32  0.561486  0.244538  0.540728  -0.032679
    C   C33  0.444937  0.845338  0.463651  -0.239383
    C   C34  0.556147  0.155461  0.537002  -0.206716
    C   C35  0.531028  0.892873  0.513126  0.641821
    C   C36  0.470661  0.107115  0.487763  0.639619
    C   C37  0.610634  0.849261  0.555480  -0.469797
    C   C38  0.391555  0.149750  0.444067  -0.490512
    C   C39  0.601354  0.760306  0.550303  0.229948
    C   C40  0.399704  0.238967  0.449255  0.244419
    N   N5   0.539699  0.984421  0.521424  -0.259243
    N   N6   0.461776  0.015643  0.480722  -0.261059
    H   H15  0.628462  0.281812  0.578999  0.158408
    H   H16  0.370817  0.719402  0.421861  0.157643
    H   H17  0.619568  0.126305  0.573779  0.063494
    H   H18  0.381721  0.875040  0.427089  0.074685
    H   H19  0.679658  0.884722  0.593680  0.148159
    H   H20  0.322855  0.113541  0.405853  0.155479
    H   H21  0.662810  0.727190  0.585485  0.090981
    H   H22  0.337637  0.271870  0.414251  0.087704
    C   C41  0.555069  0.317590  0.245092  0.243027
    C   C42  0.665725  0.314622  0.284622  -0.242464
    C   C43  0.700250  0.238190  0.310083  -0.003113
    C   C44  0.625534  0.163956  0.294831  -0.009652
    Cl  Cl1  0.670776  0.066686  0.326157  -0.110194
    C   C45  0.515808  0.166322  0.254397  0.009401
    C   C46  0.481147  0.242811  0.228975  -0.269935
    H   H23  0.726171  0.372025  0.295050  0.126164
    H   H24  0.786348  0.236419  0.341639  0.083584
    H   H25  0.456866  0.108218  0.242555  0.081775
    H   H26  0.395570  0.244168  0.196681  0.133774
    C   C47  0.453608  0.683602  0.756338  0.236043
    C   C48  0.531375  0.756266  0.773905  -0.259160
    C   C49  0.501405  0.834480  0.750097  0.003827
    C   C50  0.392549  0.840859  0.709842  -0.009669
    Cl  Cl2  0.353218  0.940647  0.681212  -0.107927
    C   C51  0.313905  0.768787  0.693122  -0.007750
    C   C52  0.343832  0.690530  0.716930  -0.229373
    H   H27  0.616120  0.752290  0.806374  0.131771
    H   H28  0.563226  0.890893  0.763475  0.082395
    H   H29  0.228152  0.773628  0.661980  0.084927
    H   H30  0.280163  0.634903  0.705555  0.122751
