# Generated by REPEAT Assigner based on pymatgen
data_DB0-m3_o4_o25_f0_nbo.sym.102
_audit_creation_date              2022-05-24
_audit_creation_method            REPEAT_Assigner
_cell_length_a                    30.982394
_cell_length_b                    31.982673
_cell_length_c                    21.911689
_cell_angle_alpha                 90.000000
_cell_angle_beta                  134.975689
_cell_angle_gamma                 90.000000
_cell_volume                      15359.418564
_symmetry_space_group_name_H-M    P1
_symmetry_Int_Tables_number       1
loop_
    _symmetry_equiv_pos_site_id
    _symmetry_equiv_pos_as_xyz
    1  x,y,z
loop_
    _atom_site_type_symbol
    _atom_site_label
    _atom_site_fract_x
    _atom_site_fract_y
    _atom_site_fract_z
    _atom_type_partial_charge
    O   O1    0.435931  0.994948  0.343631  -0.664429
    O   O2    0.941143  0.500449  0.347045  -0.586270
    O   O3    0.541111  0.989846  0.447401  -0.666700
    O   O4    0.045992  0.493784  0.453553  -0.651662
    C   C1    0.488101  0.991687  0.366739  0.641173
    C   C2    0.994117  0.497708  0.372334  0.533511
    O   O5    0.433168  0.934124  0.436674  -0.684852
    O   O6    0.437521  0.058635  0.433934  -0.645276
    O   O7    0.933863  0.434471  0.427693  -0.696659
    O   O8    0.942144  0.558883  0.444216  -0.672988
    O   O9    0.538375  0.930749  0.537297  -0.660475
    O   O10   0.542768  0.055284  0.535481  -0.667945
    O   O11   0.039015  0.429709  0.531733  -0.700090
    O   O12   0.047270  0.554084  0.549176  -0.689855
    C   C3    0.484565  0.913062  0.486852  0.628292
    C   C4    0.491363  0.076299  0.484760  0.641840
    C   C5    0.984634  0.412699  0.476502  0.700223
    C   C6    0.996539  0.575835  0.500339  0.656248
    Zn  Zn1   0.418895  0.996648  0.417523  1.295092
    Zn  Zn2   0.921614  0.497277  0.417868  1.312093
    Zn  Zn3   0.556982  0.992753  0.554227  1.297013
    Zn  Zn4   0.059516  0.491301  0.558447  1.313054
    O   O13   0.434819  0.999892  0.524401  -0.663695
    O   O14   0.935084  0.495133  0.522740  -0.722665
    O   O15   0.539864  0.994088  0.627968  -0.694296
    O   O16   0.040004  0.487745  0.629179  -0.690431
    C   C7    0.487793  0.997820  0.605025  0.730059
    C   C8    0.986977  0.490653  0.603691  0.731989
    C   C9    0.456277  0.730434  0.413975  0.063376
    C   C10   0.484818  0.258325  0.420934  -0.093388
    C   C11   0.957099  0.230571  0.390760  0.077946
    C   C12   0.981097  0.758349  0.444867  -0.025903
    C   C13   0.511089  0.758763  0.467270  -0.196244
    C   C14   0.537561  0.231861  0.494809  0.045752
    C   C15   0.012052  0.258792  0.449219  -0.213733
    C   C16   0.037146  0.731922  0.509877  -0.077181
    H   H1    0.590878  0.721461  0.593151  0.081265
    H   H2    0.588638  0.271352  0.620297  0.104658
    H   H3    0.087825  0.220638  0.576079  0.072126
    H   H4    0.102684  0.770903  0.638127  0.104020
    C   C17   0.482146  0.868276  0.486104  0.108698
    C   C18   0.493831  0.121037  0.485513  0.078646
    C   C19   0.980952  0.367907  0.469856  0.066028
    C   C20   0.000337  0.620535  0.508591  0.123473
    C   C21   0.490501  0.621038  0.495144  0.091080
    C   C22   0.488584  0.368056  0.482662  0.098747
    C   C23   0.987967  0.120386  0.474188  0.045735
    C   C24   0.995398  0.867811  0.510746  0.111060
    C   C25   0.427006  0.756980  0.434038  -0.355343
    C   C26   0.440075  0.230320  0.409594  -0.297280
    C   C27   0.924300  0.256693  0.405624  -0.358175
    C   C28   0.944503  0.729933  0.449748  -0.293938
    C   C29   0.482675  0.784925  0.488189  0.902036
    C   C30   0.493558  0.204296  0.484539  0.738051
    C   C31   0.980085  0.284473  0.464969  0.867981
    C   C32   0.001364  0.703830  0.515765  0.802325
    C   C33   0.458474  0.730350  0.513986  -0.128281
    C   C34   0.446989  0.257363  0.473412  -0.151155
    C   C35   0.951804  0.229350  0.483128  -0.119250
    C   C36   0.963098  0.756550  0.523031  -0.181399
    C   C37   0.487234  0.704385  0.492816  0.727168
    C   C38   0.491525  0.284801  0.483832  0.828586
    C   C39   0.984135  0.203813  0.467225  0.673482
    C   C40   0.999367  0.784463  0.517106  0.819343
    C   C41   0.514001  0.759065  0.567954  -0.199862
    C   C42   0.500378  0.230601  0.548195  -0.096661
    C   C43   0.007409  0.257828  0.542247  -0.179619
    C   C44   0.019914  0.729683  0.588977  -0.099464
    C   C45   0.542883  0.732356  0.546884  -0.223109
    C   C46   0.545040  0.258782  0.558777  -0.360962
    C   C47   0.039882  0.231641  0.526473  -0.204196
    C   C48   0.056287  0.758407  0.583149  -0.327078
    C   C49   0.481665  0.830629  0.486592  -0.568348
    C   C50   0.494375  0.158650  0.485359  -0.524069
    C   C51   0.979691  0.330246  0.466463  -0.532186
    C   C52   0.001677  0.658131  0.513171  -0.625072
    C   C53   0.489219  0.658686  0.494494  -0.530897
    C   C54   0.489771  0.330442  0.482944  -0.584412
    C   C55   0.986196  0.158035  0.469952  -0.468622
    C   C56   0.997268  0.830189  0.514884  -0.600841
    H   H5    0.537770  0.772046  0.632162  0.067937
    H   H6    0.506619  0.217921  0.601118  0.045387
    H   H7    0.028066  0.270155  0.605435  0.064043
    H   H8    0.035942  0.716695  0.649092  0.052421
    H   H9    0.436847  0.717463  0.534073  0.060002
    H   H10   0.409299  0.269054  0.464870  0.058470
    H   H11   0.926923  0.216077  0.497836  0.058893
    H   H12   0.932322  0.767780  0.528938  0.073278
    H   H13   0.378988  0.767878  0.386812  0.090726
    H   H14   0.396835  0.217750  0.347586  0.087204
    H   H15   0.876406  0.267712  0.355163  0.094239
    H   H16   0.898285  0.717448  0.394006  0.078388
    C   C57   0.473226  0.024277  0.251003  -0.149302
    C   C58   0.968101  0.526792  0.244785  0.071932
    C   C59   0.487150  0.989692  0.299200  -0.067181
    C   C60   0.994874  0.496013  0.306245  -0.016978
    C   C61   0.501738  0.953121  0.282308  -0.078378
    C   C62   0.020195  0.462097  0.300154  -0.094325
    C   C63   0.502150  0.952967  0.218609  -0.136544
    C   C64   0.018274  0.461002  0.234234  -0.182378
    H   H17   0.513420  0.924975  0.204785  0.146261
    H   H18   0.037986  0.435273  0.228907  0.181389
    C   C65   0.489667  0.989275  0.173593  -0.150985
    C   C66   0.992210  0.493504  0.175335  -0.095036
    C   C67   0.475702  0.024170  0.192963  0.249019
    C   C68   0.967942  0.525743  0.183998  0.078735
    C   C69   0.460414  0.069172  0.171089  -0.651208
    C   C70   0.934386  0.565682  0.142999  -0.384559
    C   C71   0.457624  0.069386  0.239385  0.615853
    C   C72   0.934948  0.567276  0.214650  0.303933
    H   H19   0.415319  0.073892  0.104134  0.142162
    H   H20   0.498675  0.087654  0.190156  0.208389
    H   H21   0.888386  0.561067  0.077087  0.128500
    H   H22   0.962877  0.590241  0.149943  0.084481
    C   C73   0.456551  0.024989  0.675802  -0.130136
    C   C74   0.956793  0.518897  0.674243  -0.449229
    C   C75   0.489072  0.997302  0.672933  0.063889
    C   C76   0.985957  0.489060  0.669155  0.162312
    C   C77   0.523768  0.967662  0.738170  -0.308286
    C   C78   0.016886  0.458015  0.731658  -0.307294
    H   H23   0.549670  0.944883  0.738428  0.167732
    H   H24   0.040679  0.433789  0.730600  0.162976
    C   C79   0.523685  0.965741  0.801602  -0.040943
    C   C80   0.016448  0.457205  0.794863  -0.027854
    H   H25   0.549812  0.941641  0.850349  0.117050
    H   H26   0.040214  0.432400  0.842229  0.128680
    C   C81   0.491783  0.995078  0.803676  -0.165213
    C   C82   0.988130  0.488896  0.799330  -0.159313
    C   C83   0.459441  0.024400  0.739375  0.255482
    C   C84   0.959697  0.519518  0.737727  0.358576
    C   C85   0.417196  0.060107  0.705960  -0.449884
    C   C86   0.924904  0.559101  0.709493  -0.428057
    C   C87   0.414255  0.061297  0.631916  0.354951
    C   C88   0.921565  0.558414  0.635045  0.532566
    H   H27   0.440358  0.087633  0.749344  0.093318
    H   H28   0.373808  0.050525  0.684535  0.178220
    H   H29   0.953306  0.584847  0.756346  0.149013
    H   H30   0.880178  0.554200  0.687216  0.100629
    O   O17   0.398639  0.494921  0.343584  -0.652418
    O   O18   0.900148  0.988694  0.348131  -0.641402
    O   O19   0.398674  0.496143  0.449017  -0.669969
    O   O20   0.901133  0.997706  0.453714  -0.666693
    C   C89   0.370221  0.495955  0.367863  0.704183
    C   C90   0.872209  0.993049  0.372794  0.658462
    O   O21   0.489163  0.557514  0.439358  -0.685131
    O   O22   0.487620  0.432910  0.430797  -0.673283
    O   O23   0.988767  0.052812  0.430655  -0.683750
    O   O24   0.990947  0.928406  0.445818  -0.669800
    O   O25   0.492901  0.556084  0.548464  -0.703822
    O   O26   0.488693  0.431497  0.537349  -0.689285
    O   O27   0.992071  0.059700  0.538803  -0.692580
    O   O28   0.994690  0.935295  0.554434  -0.701669
    C   C91   0.491299  0.576204  0.494736  0.698680
    C   C92   0.487838  0.412834  0.483185  0.675409
    C   C93   0.989886  0.075638  0.481582  0.707366
    C   C94   0.993348  0.912504  0.503263  0.685884
    Zn  Zn5   0.489903  0.495628  0.420145  1.285776
    Zn  Zn6   0.991185  0.989776  0.423173  1.283993
    Zn  Zn7   0.489225  0.493391  0.557767  1.301194
    Zn  Zn8   0.991986  0.998322  0.561597  1.301745
    O   O29   0.580513  0.493811  0.528922  -0.685833
    O   O30   0.082062  0.990169  0.531063  -0.691661
    O   O31   0.580489  0.492971  0.634333  -0.666137
    O   O32   0.083000  0.999521  0.636603  -0.666884
    C   C95   0.608911  0.492838  0.610037  0.738557
    C   C96   0.110902  0.994914  0.611943  0.744802
    O   O33   0.582901  0.955409  0.077224  -0.559823
    O   O34   0.581857  0.027439  0.083483  -0.710677
    O   O35   0.082736  0.456517  0.077672  -0.559662
    O   O36   0.078099  0.528607  0.075973  -0.710639
    C   C97   0.610775  0.991600  0.108818  0.481449
    C   C98   0.108791  0.493387  0.104942  0.493511
    O   O37   0.493006  0.955406  0.079643  -0.705829
    O   O38   0.489271  0.027457  0.080138  -0.612143
    O   O39   0.994713  0.457025  0.083166  -0.708215
    O   O40   0.985541  0.528985  0.073175  -0.640295
    C   C99   0.491048  0.990696  0.108270  0.734750
    C   C100  0.990533  0.493169  0.106997  0.751233
    Zn  Zn9   0.491681  0.945021  0.987076  1.276537
    Zn  Zn10  0.491061  0.039523  0.991230  1.282909
    Zn  Zn11  0.992133  0.444057  0.990136  1.284594
    Zn  Zn12  0.986760  0.538652  0.983016  1.300442
    O   O41   0.400890  0.957138  0.894492  -0.699546
    O   O42   0.399956  0.029162  0.901753  -0.698708
    O   O43   0.900796  0.454105  0.898717  -0.703840
    O   O44   0.896182  0.526240  0.894060  -0.698358
    O   O45   0.493956  0.957036  0.898670  -0.686826
    O   O46   0.489213  0.029123  0.898130  -0.673724
    O   O47   0.992135  0.453631  0.898774  -0.682908
    O   O48   0.985498  0.525738  0.891219  -0.679500
    C   C101  0.372048  0.993063  0.869730  0.714936
    C   C102  0.870118  0.489395  0.868191  0.716424
    C   C103  0.491515  0.993770  0.869966  0.739528
    C   C104  0.988586  0.489474  0.866388  0.672587
    C   C105  0.270469  0.478471  0.222047  0.389174
    C   C106  0.772529  0.974221  0.228089  0.262506
    C   C107  0.303520  0.496484  0.301214  -0.155613
    C   C108  0.805524  0.992717  0.306821  -0.061947
    C   C109  0.270454  0.514829  0.315190  -0.104269
    C   C110  0.772410  0.011495  0.320355  -0.119095
    H   H31   0.293919  0.529810  0.376112  0.138497
    H   H32   0.795739  0.026939  0.380820  0.139438
    C   C111  0.708726  0.011884  0.255147  -0.328815
    C   C112  0.206738  0.515045  0.250199  -0.308369
    H   H33   0.683673  0.027192  0.266254  0.189643
    H   H34   0.181698  0.529780  0.261830  0.169991
    C   C113  0.677358  0.992006  0.177071  0.352678
    C   C114  0.175345  0.495217  0.172061  0.329658
    C   C115  0.711912  0.973074  0.167395  -0.455075
    C   C116  0.209871  0.476832  0.161841  -0.432288
    C   C117  0.707975  0.950853  0.104287  0.693968
    C   C118  0.205884  0.453672  0.099435  0.497089
    C   C119  0.277077  0.455130  0.170403  -0.551462
    C   C120  0.779166  0.951513  0.175944  -0.465162
    H   H35   0.296383  0.474832  0.152807  0.132007
    H   H36   0.298763  0.424142  0.198722  0.147394
    H   H37   0.799228  0.971429  0.159760  0.126807
    H   H38   0.800101  0.920228  0.202922  0.120933
    C   C121  0.709395  0.509824  0.665881  0.226438
    C   C122  0.210362  0.969458  0.672781  0.149236
    C   C123  0.675514  0.490672  0.676471  -0.144351
    C   C124  0.177502  0.994862  0.678167  -0.121129
    C   C125  0.707634  0.468909  0.753127  -0.119136
    C   C126  0.210624  0.020247  0.750496  -0.160791
    H   H39   0.683364  0.452826  0.764828  0.138906
    H   H40   0.187199  0.041078  0.758068  0.151648
    C   C127  0.274235  0.020231  0.812431  -0.218070
    C   C128  0.771315  0.466813  0.814859  -0.245324
    H   H41   0.299209  0.040852  0.867452  0.165610
    H   H42   0.795645  0.449769  0.874137  0.165493
    C   C129  0.305495  0.993205  0.805193  -0.045027
    C   C130  0.803554  0.487970  0.802156  0.039934
    C   C131  0.270862  0.967831  0.734028  0.112381
    C   C132  0.769859  0.509420  0.726186  -0.075958
    C   C133  0.275037  0.935572  0.689819  -0.152663
    C   C134  0.775548  0.536018  0.676797  0.023793
    C   C135  0.704333  0.536768  0.605995  -0.261652
    C   C136  0.203827  0.937180  0.618129  -0.159199
    H   H43   0.293401  0.905542  0.725563  0.071356
    H   H44   0.295806  0.947905  0.668077  0.079089
    H   H45   0.794706  0.518592  0.656625  0.068702
    H   H46   0.796261  0.566868  0.707716  0.049496
    H   H47   0.683847  0.520066  0.546190  0.088574
    H   H48   0.685262  0.568015  0.597761  0.092770
    H   H49   0.182417  0.908136  0.614211  0.071175
    H   H50   0.184867  0.950130  0.556237  0.074252
    C   C137  0.541386  0.776328  0.440917  0.305628
    O   O49   0.499136  0.799404  0.365117  -0.584358
    H   H51   0.558931  0.750255  0.430104  -0.042397
    H   H52   0.579949  0.796805  0.492870  -0.015300
    H   H53   0.500887  0.787218  0.325379  0.386545
    C   C138  0.589615  0.216014  0.507653  0.239191
    O   O50   0.566639  0.191509  0.437367  -0.594591
    H   H54   0.621133  0.197045  0.567443  -0.015912
    H   H55   0.614879  0.242963  0.513557  -0.019351
    H   H56   0.580305  0.205816  0.413370  0.415496
    C   C139  0.046755  0.276952  0.430283  0.350531
    O   O51   0.007441  0.300795  0.355072  -0.583254
    H   H57   0.066075  0.251172  0.421834  -0.052651
    H   H58   0.084430  0.296975  0.484873  -0.028627
    H   H59   0.012623  0.289474  0.318529  0.381287
    C   C140  0.079947  0.716927  0.502953  0.287515
    O   O52   0.047565  0.693540  0.427784  -0.516101
    H   H60   0.116032  0.697164  0.559657  -0.033338
    H   H61   0.101400  0.744165  0.501613  -0.008518
    H   H62   0.070816  0.667124  0.447404  0.331567
    C   C141  0.393513  0.077884  0.198536  -0.000034
    O   O53   0.392120  0.075868  0.260626  -0.578554
    H   H63   0.361812  0.054191  0.147865  0.019924
    H   H64   0.378925  0.109490  0.169120  -0.012097
    H   H65   0.351118  0.064713  0.229320  0.393510
    C   C142  0.507289  0.095762  0.318377  0.141282
    O   O54   0.564396  0.083516  0.353819  -0.629729
    H   H66   0.506414  0.091575  0.367639  0.083652
    H   H67   0.499607  0.129216  0.299868  -0.009788
    H   H68   0.586521  0.073908  0.412742  0.370114
    C   C143  0.871629  0.564004  0.179306  0.280947
    O   O55   0.843540  0.527132  0.132137  -0.622510
    H   H69   0.843884  0.591151  0.136712  -0.065544
    H   H70   0.874465  0.564034  0.232622  -0.038990
    H   H71   0.802962  0.536102  0.076680  0.374718
    C   C144  0.973537  0.603115  0.277022  0.011782
    O   O56   0.978773  0.600496  0.345424  -0.389849
    H   H72   0.951621  0.633220  0.242878  0.009146
    H   H73   0.019693  0.601893  0.302480  0.027524
    H   H74   0.954949  0.624618  0.336901  0.293385
    C   C145  0.442876  0.100703  0.634664  0.025450
    O   O57   0.447273  0.097693  0.575826  -0.467636
    H   H75   0.489130  0.105158  0.700362  0.038908
    H   H76   0.414081  0.128004  0.617868  0.004575
    H   H77   0.421513  0.120810  0.534628  0.329010
    C   C146  0.351322  0.050988  0.544033  0.238884
    O   O58   0.333056  0.011622  0.546163  -0.595978
    H   H78   0.352172  0.050943  0.494333  -0.040858
    H   H79   0.318106  0.074842  0.526489  -0.033447
    H   H80   0.326255  0.995321  0.501569  0.366695
    C   C147  0.956600  0.593675  0.639659  0.265153
    O   O59   0.017991  0.591795  0.717488  -0.599546
    H   H81   0.937304  0.624269  0.634324  -0.047352
    H   H82   0.952802  0.590498  0.585668  -0.051772
    H   H83   0.040003  0.588767  0.700276  0.361087
    C   C148  0.857156  0.552387  0.546864  0.088373
    O   O60   0.821732  0.587105  0.526455  -0.622914
    H   H84   0.836736  0.523950  0.547000  0.040970
    H   H85   0.858009  0.548726  0.497445  0.010286
    H   H86   0.812056  0.600255  0.477047  0.367391
    C   C149  0.680446  0.977790  0.026954  -0.002338
    O   O61   0.687806  0.958201  0.977954  -0.655702
    H   H87   0.703376  0.008695  0.049085  0.017775
    H   H88   0.631247  0.982364  0.987147  0.021776
    H   H89   0.668100  0.977348  0.928742  0.414776
    C   C150  0.680712  0.907357  0.082062  0.218361
    O   O62   0.698388  0.888963  0.154650  -0.625939
    H   H90   0.696917  0.887854  0.059680  -0.039913
    H   H91   0.630241  0.909298  0.029889  -0.022074
    H   H92   0.716876  0.861968  0.161026  0.374400
    C   C151  0.176976  0.479353  0.020068  0.029780
    O   O63   0.185073  0.459247  0.972297  -0.627442
    H   H93   0.198488  0.510714  0.039832  0.007079
    H   H94   0.127574  0.483204  0.979829  0.096513
    H   H95   0.206216  0.480110  0.967617  0.403109
    C   C152  0.179867  0.409927  0.080233  0.327308
    O   O64   0.198678  0.392613  0.154327  -0.635509
    H   H96   0.196144  0.390036  0.058378  -0.052752
    H   H97   0.129335  0.411203  0.028541  -0.039334
    H   H98   0.217495  0.365583  0.161726  0.370213
    C   C153  0.423010  0.712851  0.325809  0.288039
    O   O65   0.463339  0.689648  0.330427  -0.586873
    H   H99   0.404084  0.738910  0.279421  -0.055278
    H   H100  0.385116  0.692474  0.303420  -0.013386
    H   H101  0.461946  0.703240  0.288472  0.365367
    C   C154  0.475414  0.275329  0.347684  0.283528
    O   O66   0.525031  0.300143  0.380749  -0.597623
    H   H102  0.433206  0.294432  0.304466  -0.027735
    H   H103  0.470765  0.249083  0.310311  -0.021038
    H   H104  0.507389  0.328279  0.356552  0.371096
    C   C155  0.928105  0.213792  0.303994  0.284372
    O   O67   0.970856  0.190650  0.313887  -0.593174
    H   H105  0.911801  0.240255  0.259378  -0.058825
    H   H106  0.888825  0.193533  0.276686  -0.009875
    H   H107  0.973300  0.204857  0.276269  0.372808
    C   C156  0.958297  0.775681  0.361886  0.298283
    O   O68   0.003219  0.800665  0.380337  -0.566004
    H   H108  0.916806  0.794711  0.328620  -0.041219
    H   H109  0.946829  0.749592  0.319141  -0.016904
    H   H110  0.983857  0.828483  0.356837  0.350021
    C   C157  0.515788  0.914235  0.331864  0.378831
    O   O69   0.525415  0.880341  0.302675  -0.599543
    H   H111  0.477135  0.906828  0.324083  0.034053
    H   H112  0.557546  0.919204  0.401216  0.001820
    H   H113  0.564876  0.868420  0.355548  0.336303
    C   C158  0.046884  0.426167  0.361887  0.450817
    O   O70   0.061670  0.393115  0.337929  -0.658082
    H   H114  0.013137  0.414834  0.362063  0.016899
    H   H115  0.088940  0.436554  0.427569  -0.030776
    H   H116  0.084142  0.373180  0.386642  0.356131
