# generated using pymatgen
data_Zn2H21C45N3O10
_symmetry_space_group_name_H-M   'P 1'
_cell_length_a   8.52384400
_cell_length_b   10.67840300
_cell_length_c   17.56483100
_cell_angle_alpha   97.63287400
_cell_angle_beta   90.10265600
_cell_angle_gamma   90.00841600
_symmetry_Int_Tables_number   1
_chemical_formula_structural   Zn2H21C45N3O10
_chemical_formula_sum   'Zn2 H21 C45 N3 O10'
_cell_volume   1584.60064115
_cell_formula_units_Z   1
loop_
 _symmetry_equiv_pos_site_id
 _symmetry_equiv_pos_as_xyz
  1  'x, y, z'
loop_
 _atom_site_type_symbol
 _atom_site_label
 _atom_site_symmetry_multiplicity
 _atom_site_fract_x
 _atom_site_fract_y
 _atom_site_fract_z
 _atom_site_occupancy
  Zn  Zn1  1  0.48767400  0.48799600  0.08196900  1
  Zn  Zn2  1  0.48772600  0.50456600  0.91335100  1
  H  H1  1  0.98348300  0.58910500  0.04659900  1
  H  H2  1  0.98473800  0.40401400  0.95033200  1
  H  H3  1  0.24234200  0.89848100  0.99153800  1
  H  H4  1  0.24316400  0.09171800  0.00094300  1
  H  H5  1  0.59925100  0.09963800  0.98309500  1
  H  H6  1  0.43943100  0.79653300  0.32488200  1
  H  H7  1  0.39141700  0.80923400  0.70951200  1
  H  H8  1  0.38721700  0.80877700  0.57426900  1
  H  H9  1  0.43927400  0.81084800  0.46083100  1
  H  H10  1  0.51000400  0.17361900  0.29200100  1
  H  H11  1  0.60981200  0.20182500  0.53220700  1
  H  H12  1  0.50811200  0.17988000  0.42524700  1
  H  H13  1  0.43397000  0.70531200  0.82025200  1
  H  H14  1  0.45650000  0.67670100  0.20149600  1
  H  H15  1  0.52880100  0.31804000  0.79475500  1
  H  H16  1  0.49259000  0.05149700  0.59849000  1
  H  H17  1  0.54892000  0.99492600  0.68679800  1
  H  H18  1  0.69316500  0.00173600  0.61211800  1
  H  H19  1  0.76670000  0.24710500  0.23133100  1
  H  H20  1  0.78405600  0.19108300  0.13031700  1
  H  H21  1  0.68681400  0.09426100  0.19261600  1
  C  C1  1  0.98548500  0.68707500  0.03730400  1
  C  C2  1  0.12600600  0.74348500  0.02479000  1
  C  C3  1  0.12936000  0.86413100  0.00616800  1
  C  C4  1  0.84690300  0.74800000  0.02640400  1
  C  C5  1  0.84922400  0.87206300  0.01089800  1
  C  C6  1  0.99134000  0.93281600  0.00349700  1
  C  C7  1  0.99165300  0.05844500  0.98962000  1
  C  C8  1  0.13005100  0.12680500  0.98698300  1
  C  C9  1  0.12698400  0.24799900  0.96925100  1
  C  C10  1  0.71094700  0.05429500  0.98934300  1
  C  C11  1  0.84955400  0.11927000  0.98254700  1
  C  C12  1  0.84768400  0.24485500  0.96931800  1
  C  C13  1  0.98640300  0.30553100  0.95849400  1
  C  C14  1  0.26683200  0.66604500  0.01648100  1
  C  C15  1  0.26819900  0.32517600  0.97753700  1
  C  C16  1  0.70681700  0.32378800  0.97836500  1
  C  C17  1  0.70469900  0.67053900  0.01808000  1
  C  C18  1  0.46837700  0.59041400  0.22679700  1
  C  C19  1  0.51010100  0.37228100  0.21356200  1
  C  C20  1  0.48518700  0.48870000  0.33952900  1
  C  C21  1  0.46805300  0.59647700  0.30579700  1
  C  C22  1  0.45091100  0.71081500  0.35096600  1
  C  C23  1  0.50417200  0.37561100  0.29284800  1
  C  C24  1  0.45766300  0.61224700  0.54530100  1
  C  C25  1  0.51780800  0.39020700  0.53122400  1
  C  C26  1  0.48908100  0.50302900  0.57763300  1
  C  C27  1  0.42120500  0.72200500  0.59428100  1
  C  C28  1  0.42137600  0.72327600  0.67276200  1
  C  C29  1  0.45789700  0.61608700  0.70432100  1
  C  C30  1  0.49176500  0.50623100  0.65694300  1
  C  C31  1  0.52697800  0.39942300  0.68979900  1
  C  C32  1  0.51812600  0.40323500  0.76866100  1
  C  C33  1  0.45929400  0.61852800  0.78326800  1
  C  C34  1  0.46319200  0.60891200  0.46523800  1
  C  C35  1  0.48476200  0.49412800  0.41905800  1
  C  C36  1  0.50611200  0.38438800  0.45177600  1
  C  C37  1  0.44862300  0.71756500  0.42975000  1
  C  C38  1  0.51081100  0.26560200  0.32579100  1
  C  C39  1  0.56392300  0.28576700  0.56511900  1
  C  C40  1  0.56882300  0.28970600  0.64356000  1
  C  C41  1  0.51104200  0.26983300  0.40409500  1
  C  C42  1  0.63159500  0.17951800  0.67548300  1
  C  C43  1  0.58893900  0.04889400  0.64073000  1
  C  C44  1  0.55496000  0.25380300  0.16646500  1
  C  C45  1  0.70744200  0.19263100  0.18124800  1
  N  N1  1  0.71322800  0.93309600  0.00294000  1
  N  N2  1  0.48693100  0.47933700  0.18124300  1
  N  N3  1  0.48918300  0.51228200  0.81420200  1
  O  O1  1  0.31771200  0.63103600  0.94638400  1
  O  O2  1  0.32251300  0.62186800  0.07742000  1
  O  O3  1  0.31864800  0.36111900  0.04755000  1
  O  O4  1  0.32376800  0.36946600  0.91681600  1
  O  O5  1  0.65724700  0.36121400  0.04830300  1
  O  O6  1  0.65270600  0.37061000  0.91827100  1
  O  O7  1  0.65535400  0.63282200  0.94788900  1
  O  O8  1  0.65097600  0.62380300  0.07856900  1
  O  O9  1  0.72746900  0.19398800  0.72752100  1
  O  O10  1  0.46864700  0.20410000  0.11597900  1
