# Generated by REPEAT Assigner based on pymatgen
data_DB0-m3_o3_o12_f0_pcu.sym.58
_audit_creation_date              2022-05-24
_audit_creation_method            REPEAT_Assigner
_cell_length_a                    11.496925
_cell_length_b                    19.439400
_cell_length_c                    18.242841
_cell_angle_alpha                 89.989128
_cell_angle_beta                  102.440378
_cell_angle_gamma                 90.007130
_cell_volume                      3981.424515
_symmetry_space_group_name_H-M    P1
_symmetry_Int_Tables_number       1
loop_
    _symmetry_equiv_pos_site_id
    _symmetry_equiv_pos_as_xyz
    1  x,y,z
loop_
    _atom_site_type_symbol
    _atom_site_label
    _atom_site_fract_x
    _atom_site_fract_y
    _atom_site_fract_z
    _atom_type_partial_charge
    O   O1   0.497015  0.398066  0.565001  -0.636490
    O   O2   0.502060  0.602348  0.435715  -0.638924
    O   O3   0.482003  0.397720  0.436943  -0.664722
    O   O4   0.517071  0.602693  0.563772  -0.662727
    C   C1   0.486608  0.365683  0.500794  0.678151
    C   C2   0.512467  0.634730  0.499921  0.680053
    O   O5   0.330420  0.506098  0.547565  -0.643788
    O   O6   0.668655  0.494315  0.453150  -0.645826
    O   O7   0.315087  0.506186  0.419475  -0.747939
    O   O8   0.683988  0.494228  0.581240  -0.748198
    C   C3   0.267040  0.507211  0.478594  0.904897
    C   C4   0.732035  0.493202  0.522121  0.905753
    Zn  Zn1  0.509369  0.500651  0.584810  1.038543
    Zn  Zn2  0.489706  0.499762  0.415906  1.046542
    C   C5   0.137306  0.517277  0.465778  -0.529847
    C   C6   0.861770  0.483141  0.534937  -0.527830
    C   C7   0.064888  0.490781  0.508290  0.180237
    C   C8   0.934184  0.509632  0.492419  0.179116
    H   H1   0.896759  0.451438  0.583077  0.218726
    H   H2   0.102323  0.548988  0.417644  0.218623
    C   C9   0.505713  0.746384  0.433953  -0.113137
    C   C10  0.493363  0.254030  0.566762  -0.115598
    H   H3   0.498281  0.719851  0.381104  0.112364
    H   H4   0.500796  0.280563  0.619611  0.113002
    C   C11  0.503600  0.817338  0.434118  -0.150292
    C   C12  0.495477  0.183075  0.566598  -0.148958
    H   H5   0.492934  0.844280  0.381275  0.103213
    H   H6   0.506143  0.156133  0.619441  0.102802
    C   C13  0.510374  0.853116  0.500451  0.098088
    C   C14  0.488701  0.147297  0.500264  0.100314
    C   C15  0.521019  0.816813  0.566749  -0.155267
    C   C16  0.478055  0.183601  0.433967  -0.157356
    H   H7   0.529207  0.843393  0.619630  0.103672
    H   H8   0.469867  0.157020  0.381085  0.104328
    C   C17  0.523485  0.745917  0.566668  -0.094696
    C   C18  0.475590  0.254496  0.434048  -0.093547
    H   H9   0.531425  0.719094  0.619394  0.103425
    H   H10  0.467649  0.281319  0.381322  0.103131
    C   C19  0.515060  0.710207  0.500206  -0.034638
    C   C20  0.484015  0.290207  0.500509  -0.032892
    C   C21  0.442197  0.962833  0.546081  -0.138537
    C   C22  0.556878  0.037581  0.454634  -0.135890
    H   H11  0.393938  0.934507  0.580951  0.107239
    H   H12  0.605138  0.065906  0.419765  0.106564
    C   C23  0.436779  0.033700  0.546000  -0.137816
    C   C24  0.562297  0.966714  0.454716  -0.140252
    H   H13  0.384603  0.058839  0.580858  0.105779
    H   H14  0.614472  0.941574  0.419858  0.106393
    C   C25  0.494030  0.071673  0.500247  0.056689
    C   C26  0.505045  0.928741  0.500468  0.060382
    C   C27  0.471140  0.555201  0.725267  0.032511
    C   C28  0.527932  0.445212  0.275447  0.033252
    H   H15  0.429307  0.596488  0.689428  0.119633
    H   H16  0.569764  0.403924  0.311286  0.120169
    C   C29  0.469498  0.556413  0.800549  -0.177347
    C   C30  0.529571  0.444000  0.200165  -0.178106
    H   H17  0.425130  0.598447  0.822005  0.117315
    H   H18  0.573938  0.401965  0.178709  0.117203
    C   C31  0.518096  0.502528  0.846370  0.154938
    C   C32  0.480974  0.497885  0.154345  0.156187
    C   C33  0.570293  0.449033  0.815212  -0.179967
    C   C34  0.428781  0.551381  0.185504  -0.181595
    H   H19  0.611300  0.406462  0.849315  0.112187
    H   H20  0.387774  0.593953  0.151402  0.112175
    C   C35  0.571118  0.449727  0.739646  0.009978
    C   C36  0.427957  0.550687  0.261070  0.011767
    H   H21  0.610818  0.407350  0.715493  0.133682
    H   H22  0.388260  0.593064  0.285223  0.133686
    N   N1   0.520819  0.502133  0.695793  -0.064728
    N   N2   0.478255  0.498281  0.304923  -0.068745
    C   C37  0.486555  0.440333  0.959074  -0.106043
    C   C38  0.512514  0.560080  0.041641  -0.107000
    H   H23  0.472645  0.393098  0.927175  0.120952
    H   H24  0.526424  0.607315  0.073539  0.121210
    C   C39  0.476050  0.439348  0.032969  -0.167802
    C   C40  0.523019  0.561066  0.967745  -0.166691
    H   H25  0.454911  0.391294  0.056887  0.120829
    H   H26  0.544158  0.609120  0.943828  0.120468
    C   C41  0.488872  0.499215  0.074888  0.060052
    C   C42  0.510198  0.501198  0.925827  0.058626
    C   C43  0.887180  0.564778  0.435105  -0.160597
    C   C44  0.861141  0.536086  0.355413  -0.033005
    C   C45  0.852295  0.594730  0.299489  0.363193
    C   C46  0.829451  0.566540  0.220233  -0.354457
    H   H27  0.951901  0.607676  0.440666  0.010946
    H   H28  0.805835  0.589520  0.445770  0.079234
    H   H29  0.775951  0.507448  0.344589  0.008504
    H   H30  0.932247  0.500169  0.347657  -0.000040
    H   H31  0.936854  0.624217  0.310265  -0.070801
    H   H32  0.778140  0.629365  0.305245  -0.085098
    H   H33  0.904448  0.532945  0.213584  0.059336
    H   H34  0.821642  0.609877  0.179922  0.053800
    H   H35  0.745553  0.536554  0.208553  0.073374
    C   C47  0.111887  0.435623  0.565593  -0.159080
    C   C48  0.137938  0.464301  0.645290  -0.034549
    C   C49  0.146712  0.405650  0.701200  0.361419
    C   C50  0.169606  0.433824  0.780464  -0.353407
    H   H36  0.193224  0.410879  0.554918  0.079597
    H   H37  0.047154  0.392731  0.560025  0.009672
    H   H38  0.066866  0.500242  0.653048  -0.000003
    H   H39  0.223159  0.492908  0.656128  0.008890
    H   H40  0.220816  0.370981  0.695430  -0.084755
    H   H41  0.062111  0.376202  0.690421  -0.069966
    H   H42  0.253555  0.463763  0.792149  0.073332
    H   H43  0.177347  0.390482  0.820763  0.053469
    H   H44  0.094666  0.467460  0.787123  0.059340
