# Generated by REPEAT Assigner based on pymatgen
data_DB0-m3_o10_o19_f0_pcu.sym.1_sqe
_audit_creation_date              2022-05-24
_audit_creation_method            REPEAT_Assigner
_cell_length_a                    7.672637
_cell_length_b                    8.895577
_cell_length_c                    11.917951
_cell_angle_alpha                 89.987712
_cell_angle_beta                  83.989156
_cell_angle_gamma                 91.432169
_cell_volume                      808.702194
_symmetry_space_group_name_H-M    P1
_symmetry_Int_Tables_number       1
loop_
    _symmetry_equiv_pos_site_id
    _symmetry_equiv_pos_as_xyz
    1  x,y,z
loop_
    _atom_site_type_symbol
    _atom_site_label
    _atom_site_fract_x
    _atom_site_fract_y
    _atom_site_fract_z
    _atom_type_partial_charge
    O   O1   0.383146  0.736316  0.507799  -0.648290
    O   O2   0.616854  0.263684  0.492201  -0.648239
    O   O3   0.683690  0.709392  0.487686  -0.672241
    O   O4   0.316310  0.290608  0.512315  -0.672157
    C   C1   0.543898  0.792286  0.497038  0.783757
    C   C2   0.456102  0.207713  0.502963  0.783722
    O   O5   0.349305  0.513456  0.677262  -0.679620
    O   O6   0.650695  0.486544  0.322738  -0.679645
    O   O7   0.649865  0.486530  0.657143  -0.687034
    O   O8   0.350135  0.513469  0.342857  -0.687092
    C   C3   0.499539  0.499986  0.719275  0.933944
    C   C4   0.500461  0.500014  0.280725  0.933752
    Zn  Zn1  0.301934  0.517714  0.513228  1.031249
    Zn  Zn2  0.698066  0.482286  0.486773  1.031241
    C   C5   0.499537  0.499999  0.839685  -0.286506
    C   C6   0.500463  0.500000  0.160316  -0.286193
    C   C7   0.499795  0.500001  0.940776  0.081953
    C   C8   0.500205  0.499999  0.059224  0.081630
    C   C9   0.568949  0.955747  0.495369  -0.205184
    C   C10  0.431051  0.044253  0.504632  -0.205235
    H   H1   0.700525  0.004586  0.486548  0.137816
    H   H2   0.299475  0.995414  0.513453  0.137836
    N   N1   0.958092  0.459080  0.469476  -0.060497
    N   N2   0.041908  0.540920  0.530525  -0.060521
    H   H3   0.034294  0.389086  0.417266  0.270756
    H   H4   0.965706  0.610913  0.582734  0.270800
