data_DB0-m2_o11_o29_f0_pcu.sym.23_repeat
_audit_creation_date              2024-02-20
_audit_creation_method            'Materials Studio'
_symmetry_space_group_name_H-M    'P1'
_symmetry_Int_Tables_number       1
_symmetry_cell_setting            triclinic
loop_
_symmetry_equiv_pos_as_xyz
  x,y,z
_cell_length_a                    27.5580
_cell_length_b                    11.0403
_cell_length_c                    9.5290
_cell_angle_alpha                 90.0206
_cell_angle_beta                  90.0156
_cell_angle_gamma                 89.9936
loop_
_atom_site_label
_atom_site_type_symbol
_atom_site_fract_x
_atom_site_fract_y
_atom_site_fract_z
_atom_site_U_iso_or_equiv
_atom_site_adp_type
_atom_site_occupancy
O1     O     0.49339   0.31925   0.62418   0.00000  Uiso   1.00
O2     O     0.49853   0.31418   0.38333   0.00000  Uiso   1.00
C1     C     0.49481   0.26045   0.50501   0.00000  Uiso   1.00
O3     O     0.42971   0.50183   0.61808   0.00000  Uiso   1.00
O4     O     0.43025   0.50413   0.37599   0.00000  Uiso   1.00
C2     C     0.40721   0.50609   0.49647   0.00000  Uiso   1.00
Cu1    Cu    0.50018   0.49471   0.63907   0.00000  Uiso   1.00
Cu2    Cu    0.50065   0.48969   0.35889   0.00000  Uiso   1.00
O5     O     0.50327   0.66998   0.61485   0.00000  Uiso   1.00
O6     O     0.50642   0.66558   0.37352   0.00000  Uiso   1.00
O7     O     0.57046   0.47785   0.62045   0.00000  Uiso   1.00
O8     O     0.57099   0.48437   0.38103   0.00000  Uiso   1.00
C3     C     0.50658   0.72385   0.49376   0.00000  Uiso   1.00
C4     C     0.59372   0.47789   0.50134   0.00000  Uiso   1.00
C5     C     0.17848   0.41395   0.55063   0.00000  Uiso   1.00
O9     O     0.20425   0.31786   0.59480   0.00000  Uiso   1.00
N1     N     0.20180   0.51174   0.50047   0.00000  Uiso   1.00
C6     C     0.17684   0.60832   0.45327   0.00000  Uiso   1.00
C7     C     0.27945   0.50224   0.62154   0.00000  Uiso   1.00
C8     C     0.32929   0.50187   0.62028   0.00000  Uiso   1.00
C9     C     0.32868   0.52223   0.37095   0.00000  Uiso   1.00
C10    C     0.27857   0.52360   0.37239   0.00000  Uiso   1.00
C11    C     0.25363   0.51300   0.49793   0.00000  Uiso   1.00
C12    C     0.10168   0.50823   0.50729   0.00000  Uiso   1.00
C13    C     0.12835   0.41111   0.55469   0.00000  Uiso   1.00
C14    C     0.10495   0.31003   0.60445   0.00000  Uiso   1.00
C15    C     0.12615   0.60817   0.45575   0.00000  Uiso   1.00
C16    C     0.35418   0.51069   0.49533   0.00000  Uiso   1.00
H1     H     0.34724   0.52987   0.27092   0.00000  Uiso   1.00
H2     H     0.25910   0.53074   0.27400   0.00000  Uiso   1.00
H3     H     0.12495   0.23136   0.63870   0.00000  Uiso   1.00
C17    C     0.64730   0.47447   0.50394   0.00000  Uiso   1.00
C18    C     0.97671   0.40465   0.57832   0.00000  Uiso   1.00
C19    C     0.97389   0.59424   0.45343   0.00000  Uiso   1.00
C20    C     0.95025   0.49735   0.51646   0.00000  Uiso   1.00
C21    C     0.95152   0.31403   0.64962   0.00000  Uiso   1.00
C22    C     0.90169   0.31210   0.65219   0.00000  Uiso   1.00
C23    C     0.87561   0.40075   0.58483   0.00000  Uiso   1.00
C24    C     0.89978   0.49356   0.51832   0.00000  Uiso   1.00
C25    C     0.87292   0.58249   0.45355   0.00000  Uiso   1.00
C26    C     0.82283   0.57699   0.45461   0.00000  Uiso   1.00
N2     N     0.79985   0.48486   0.51932   0.00000  Uiso   1.00
C27    C     0.82543   0.39731   0.58417   0.00000  Uiso   1.00
C28    C     0.72458   0.47439   0.38808   0.00000  Uiso   1.00
C29    C     0.67471   0.47332   0.38118   0.00000  Uiso   1.00
C30    C     0.67129   0.47524   0.63196   0.00000  Uiso   1.00
C31    C     0.72136   0.47741   0.63774   0.00000  Uiso   1.00
C32    C     0.74811   0.47831   0.51544   0.00000  Uiso   1.00
O10    O     0.80191   0.30460   0.64485   0.00000  Uiso   1.00
C33    C     0.02744   0.40496   0.56805   0.00000  Uiso   1.00
C34    C     0.05113   0.50458   0.51071   0.00000  Uiso   1.00
C35    C     0.02462   0.60097   0.45780   0.00000  Uiso   1.00
C36    C     0.05529   0.30667   0.61158   0.00000  Uiso   1.00
H4     H     0.74549   0.47179   0.29211   0.00000  Uiso   1.00
H5     H     0.88369   0.24068   0.70981   0.00000  Uiso   1.00
H6     H     0.96893   0.24434   0.71011   0.00000  Uiso   1.00
H7     H     0.04013   0.22293   0.64863   0.00000  Uiso   1.00
O11    O     0.20187   0.70488   0.40717   0.00000  Uiso   1.00
C37    C     0.09941   0.70651   0.40994   0.00000  Uiso   1.00
H8     H     0.34848   0.49327   0.71838   0.00000  Uiso   1.00
H9     H     0.26099   0.49463   0.72101   0.00000  Uiso   1.00
C38    C     0.94594   0.68167   0.38555   0.00000  Uiso   1.00
C39    C     0.89624   0.67586   0.38621   0.00000  Uiso   1.00
O12    O     0.79677   0.66493   0.39279   0.00000  Uiso   1.00
C40    C     0.04966   0.70268   0.41147   0.00000  Uiso   1.00
H10    H     0.96095   0.75576   0.32680   0.00000  Uiso   1.00
H11    H     0.65130   0.47566   0.72958   0.00000  Uiso   1.00
H12    H     0.87629   0.74616   0.33247   0.00000  Uiso   1.00
H13    H     0.73959   0.48108   0.73793   0.00000  Uiso   1.00
H14    H     0.03200   0.78498   0.37940   0.00000  Uiso   1.00
C41    C     0.49816   0.92572   0.39172   0.00000  Uiso   1.00
C42    C     0.51191   0.85522   0.49804   0.00000  Uiso   1.00
H15    H     0.48743   0.88341   0.29345   0.00000  Uiso   1.00
H16    H     0.52530   0.89297   0.59532   0.00000  Uiso   1.00
C43    C     0.50124   0.05978   0.39776   0.00000  Uiso   1.00
C44    C     0.48962   0.12887   0.51014   0.00000  Uiso   1.00
H17    H     0.51258   0.10372   0.30113   0.00000  Uiso   1.00
C45    C     0.46991   0.43400   0.91934   0.00000  Uiso   1.00
N3     N     0.49956   0.49838   0.84880   0.00000  Uiso   1.00
H18    H     0.44687   0.36968   0.86545   0.00000  Uiso   1.00
H19    H     0.51569   0.57008   0.89900   0.00000  Uiso   1.00
C46    C     0.46582   0.44331   0.07367   0.00000  Uiso   1.00
N4     N     0.50092   0.48464   0.14918   0.00000  Uiso   1.00
H20    H     0.43299   0.41019   0.12326   0.00000  Uiso   1.00
H21    H     0.53284   0.50481   0.10002   0.00000  Uiso   1.00
N5     N     0.12212   0.81409   0.36066   0.00000  Uiso   1.00
H22    H     0.11031   0.82964   0.25811   0.00000  Uiso   1.00
H23    H     0.11069   0.88583   0.42398   0.00000  Uiso   1.00
N6     N     0.46850   0.07950   0.63440   0.00000  Uiso   1.00
H24    H     0.49619   0.05235   0.70173   0.00000  Uiso   1.00
H25    H     0.44461   0.00952   0.60909   0.00000  Uiso   1.00
N7     N     0.65230   0.47100   0.24679   0.00000  Uiso   1.00
H26    H     0.66375   0.54803   0.19264   0.00000  Uiso   1.00
H27    H     0.66540   0.39480   0.19424   0.00000  Uiso   1.00
