data_DB0-m29_o96_o86_f0_pts.sym.40_repeat
_audit_creation_date              2024-02-23
_audit_creation_method            'Materials Studio'
_symmetry_space_group_name_H-M    'P1'
_symmetry_Int_Tables_number       1
_symmetry_cell_setting            triclinic
loop_
_symmetry_equiv_pos_as_xyz
  x,y,z
_cell_length_a                    17.0164
_cell_length_b                    14.3528
_cell_length_c                    16.4330
_cell_angle_alpha                 90.4703
_cell_angle_beta                  91.0692
_cell_angle_gamma                 109.1041
loop_
_atom_site_label
_atom_site_type_symbol
_atom_site_fract_x
_atom_site_fract_y
_atom_site_fract_z
_atom_site_U_iso_or_equiv
_atom_site_adp_type
_atom_site_occupancy
C1     C     0.23805   0.04498   0.11955   0.00000  Uiso   1.00
C2     C     0.21879   0.12000   0.15583   0.00000  Uiso   1.00
C3     C     0.13648   0.10799   0.13316   0.00000  Uiso   1.00
N1     N     0.10938   0.03332   0.07773   0.00000  Uiso   1.00
C4     C     0.17213   0.99598   0.06869   0.00000  Uiso   1.00
C5     C     0.08626   0.15478   0.16388   0.00000  Uiso   1.00
C6     C     0.99669   0.12386   0.14122   0.00000  Uiso   1.00
C7     C     0.93250   0.11659   0.19449   0.00000  Uiso   1.00
C8     C     0.86095   0.09281   0.14917   0.00000  Uiso   1.00
C9     C     0.88146   0.08415   0.06934   0.00000  Uiso   1.00
N2     N     0.96463   0.10340   0.06461   0.00000  Uiso   1.00
C10    C     0.82075   0.05613   0.00116   0.00000  Uiso   1.00
C11    C     0.82473   0.99294   0.94283   0.00000  Uiso   1.00
C12    C     0.76261   0.94898   0.88574   0.00000  Uiso   1.00
C13    C     0.78715   0.88103   0.84488   0.00000  Uiso   1.00
C14    C     0.86484   0.88755   0.87525   0.00000  Uiso   1.00
N3     N     0.88777   0.95573   0.93594   0.00000  Uiso   1.00
C15    C     0.91291   0.83901   0.84547   0.00000  Uiso   1.00
C16    C     0.00020   0.86065   0.87099   0.00000  Uiso   1.00
C17    C     0.06306   0.86149   0.81902   0.00000  Uiso   1.00
C18    C     0.13492   0.88770   0.86366   0.00000  Uiso   1.00
C19    C     0.11481   0.90152   0.94299   0.00000  Uiso   1.00
N4     N     0.03211   0.88510   0.94714   0.00000  Uiso   1.00
C20    C     0.17515   0.93124   0.01107   0.00000  Uiso   1.00
H1     H     0.76491   0.07614   0.00546   0.00000  Uiso   1.00
H2     H     0.89080   0.79066   0.79315   0.00000  Uiso   1.00
H3     H     0.23162   0.91289   0.00553   0.00000  Uiso   1.00
H4     H     0.99813   0.10654   0.01164   0.00000  Uiso   1.00
H5     H     0.99902   0.88738   0.99944   0.00000  Uiso   1.00
C21    C     0.06172   0.84623   0.73638   0.00000  Uiso   1.00
C22    C     0.13678   0.85996   0.69899   0.00000  Uiso   1.00
C23    C     0.21147   0.88944   0.74392   0.00000  Uiso   1.00
C24    C     0.21072   0.90267   0.82790   0.00000  Uiso   1.00
C25    C     0.31191   0.02781   0.13569   0.00000  Uiso   1.00
C26    C     0.36957   0.09385   0.18648   0.00000  Uiso   1.00
C27    C     0.35501   0.17805   0.21439   0.00000  Uiso   1.00
C28    C     0.27955   0.19197   0.19942   0.00000  Uiso   1.00
C29    C     0.93093   0.12400   0.27812   0.00000  Uiso   1.00
C30    C     0.85535   0.11026   0.31431   0.00000  Uiso   1.00
C31    C     0.78214   0.08725   0.26784   0.00000  Uiso   1.00
C32    C     0.78462   0.07743   0.18381   0.00000  Uiso   1.00
C33    C     0.68799   0.96341   0.86734   0.00000  Uiso   1.00
C34    C     0.63722   0.90321   0.80753   0.00000  Uiso   1.00
C35    C     0.66151   0.83126   0.76826   0.00000  Uiso   1.00
C36    C     0.73774   0.82060   0.78560   0.00000  Uiso   1.00
H6     H     0.00446   0.82636   0.70075   0.00000  Uiso   1.00
H7     H     0.26782   0.92675   0.86379   0.00000  Uiso   1.00
H8     H     0.32429   0.96379   0.11179   0.00000  Uiso   1.00
H9     H     0.40136   0.23151   0.25185   0.00000  Uiso   1.00
H10    H     0.27187   0.25965   0.22039   0.00000  Uiso   1.00
H11    H     0.98568   0.13738   0.31634   0.00000  Uiso   1.00
H12    H     0.72840   0.05744   0.14661   0.00000  Uiso   1.00
H13    H     0.66893   0.01906   0.89806   0.00000  Uiso   1.00
H14    H     0.62172   0.78519   0.72135   0.00000  Uiso   1.00
H15    H     0.75643   0.76559   0.75352   0.00000  Uiso   1.00
H16    H     0.13645   0.84967   0.63375   0.00000  Uiso   1.00
H17    H     0.85416   0.11591   0.37986   0.00000  Uiso   1.00
O1     O     0.63236   0.03842   0.26613   0.00000  Uiso   1.00
C37    C     0.70266   0.07002   0.30850   0.00000  Uiso   1.00
O2     O     0.61306   0.87339   0.37037   0.00000  Uiso   1.00
O3     O     0.70168   0.07998   0.38786   0.00000  Uiso   1.00
O4     O     0.49052   0.89499   0.40149   0.00000  Uiso   1.00
C38    C     0.54061   0.84194   0.40518   0.00000  Uiso   1.00
Fe1    Fe    0.53168   0.01278   0.33239   0.00000  Uiso   1.00
O5     O     0.43502   0.99112   0.25436   0.00000  Uiso   1.00
O6     O     0.51301   0.14764   0.22630   0.00000  Uiso   1.00
C39    C     0.44365   0.07384   0.21624   0.00000  Uiso   1.00
O7     O     0.56497   0.13122   0.40716   0.00000  Uiso   1.00
O8     O     0.42447   0.08326   0.41601   0.00000  Uiso   1.00
C40    C     0.49794   0.14726   0.43377   0.00000  Uiso   1.00
C41    C     0.50288   0.23970   0.47653   0.00000  Uiso   1.00
C42    C     0.47101   0.23483   0.55410   0.00000  Uiso   1.00
C43    C     0.46170   0.31906   0.58989   0.00000  Uiso   1.00
C44    C     0.43727   0.31928   0.67003   0.00000  Uiso   1.00
C45    C     0.42290   0.40039   0.70252   0.00000  Uiso   1.00
C46    C     0.55635   0.33552   0.35726   0.00000  Uiso   1.00
C47    C     0.52368   0.32819   0.43445   0.00000  Uiso   1.00
C48    C     0.50851   0.40944   0.46810   0.00000  Uiso   1.00
C49    C     0.56958   0.41975   0.31314   0.00000  Uiso   1.00
C50    C     0.55223   0.49889   0.34584   0.00000  Uiso   1.00
C51    C     0.47788   0.40500   0.54553   0.00000  Uiso   1.00
C52    C     0.46358   0.48696   0.57874   0.00000  Uiso   1.00
C53    C     0.43467   0.48321   0.65674   0.00000  Uiso   1.00
C54    C     0.41807   0.56266   0.68975   0.00000  Uiso   1.00
C55    C     0.52324   0.49517   0.42382   0.00000  Uiso   1.00
C56    C     0.50877   0.57707   0.45695   0.00000  Uiso   1.00
C57    C     0.47855   0.57284   0.53456   0.00000  Uiso   1.00
C58    C     0.46418   0.65447   0.56851   0.00000  Uiso   1.00
C59    C     0.43196   0.64723   0.64596   0.00000  Uiso   1.00
C60    C     0.56338   0.58141   0.29981   0.00000  Uiso   1.00
C61    C     0.54860   0.66235   0.33215   0.00000  Uiso   1.00
C62    C     0.52457   0.66279   0.41240   0.00000  Uiso   1.00
C63    C     0.51568   0.74721   0.44821   0.00000  Uiso   1.00
C64    C     0.48544   0.74308   0.52642   0.00000  Uiso   1.00
H18    H     0.42987   0.25795   0.70993   0.00000  Uiso   1.00
H19    H     0.40253   0.39862   0.76458   0.00000  Uiso   1.00
H20    H     0.57327   0.27718   0.32948   0.00000  Uiso   1.00
H21    H     0.59383   0.42324   0.25249   0.00000  Uiso   1.00
H22    H     0.39394   0.55919   0.75045   0.00000  Uiso   1.00
H23    H     0.41547   0.70562   0.67419   0.00000  Uiso   1.00
H24    H     0.58369   0.58311   0.23773   0.00000  Uiso   1.00
H25    H     0.55567   0.72354   0.29214   0.00000  Uiso   1.00
O9     O     0.56008   0.99813   0.74672   0.00000  Uiso   1.00
O10    O     0.49355   0.83695   0.77029   0.00000  Uiso   1.00
C65    C     0.55890   0.91566   0.78136   0.00000  Uiso   1.00
O11    O     0.42615   0.85154   0.59930   0.00000  Uiso   1.00
O12    O     0.56577   0.90160   0.58254   0.00000  Uiso   1.00
C66    C     0.49198   0.83610   0.56915   0.00000  Uiso   1.00
O13    O     0.37460   0.10782   0.63254   0.00000  Uiso   1.00
O14    O     0.36193   0.94623   0.74140   0.00000  Uiso   1.00
C67    C     0.29043   0.90977   0.70133   0.00000  Uiso   1.00
O15    O     0.49745   0.08796   0.60012   0.00000  Uiso   1.00
C68    C     0.44663   0.13999   0.59694   0.00000  Uiso   1.00
O16    O     0.28933   0.89789   0.62204   0.00000  Uiso   1.00
Fe2    Fe    0.46040   0.97212   0.67180   0.00000  Uiso   1.00
C69    C     0.11404   0.22874   0.22992   0.00000  Uiso   1.00
O17    O     0.14263   0.20859   0.29347   0.00000  Uiso   1.00
O18    O     0.09595   0.31631   0.22472   0.00000  Uiso   1.00
H26    H     0.11449   0.35651   0.27667   0.00000  Uiso   1.00
