# generated using pymatgen
data_Zn2H19C36N3O10
_symmetry_space_group_name_H-M   'P 1'
_cell_length_a   11.87223000
_cell_length_b   13.08438600
_cell_length_c   13.69962800
_cell_angle_alpha   88.60668800
_cell_angle_beta   109.22620900
_cell_angle_gamma   91.19015400
_symmetry_Int_Tables_number   1
_chemical_formula_structural   Zn2H19C36N3O10
_chemical_formula_sum   'Zn2 H19 C36 N3 O10'
_cell_volume   2008.64031060
_cell_formula_units_Z   1
loop_
 _symmetry_equiv_pos_site_id
 _symmetry_equiv_pos_as_xyz
  1  'x, y, z'
loop_
 _atom_site_type_symbol
 _atom_site_label
 _atom_site_symmetry_multiplicity
 _atom_site_fract_x
 _atom_site_fract_y
 _atom_site_fract_z
 _atom_site_occupancy
  Zn  Zn1  1  0.62565200  0.48731400  0.50412100  1
  Zn  Zn2  1  0.36415900  0.50352300  0.48414800  1
  H  H1  1  0.23297400  0.57225900  0.16012400  1
  H  H2  1  0.25520200  0.63677100  0.83476100  1
  H  H3  1  0.19252400  0.61650400  0.97934500  1
  H  H4  1  0.56944400  0.45577000  0.17889200  1
  H  H5  1  0.75322200  0.41721900  0.82172900  1
  H  H6  1  0.68180500  0.41689400  0.10001500  1
  H  H7  1  0.80919900  0.38045700  0.00465900  1
  H  H8  1  0.39346700  0.61052000  0.74655800  1
  H  H9  1  0.36276500  0.83032500  0.52291600  1
  H  H10  1  0.68775900  0.80975300  0.45462000  1
  H  H11  1  0.29295000  0.99129900  0.54800500  1
  H  H12  1  0.70197300  0.99577400  0.44863400  1
  H  H13  1  0.62289200  0.15974000  0.46202900  1
  H  H14  1  0.77753000  0.57681800  0.38944000  1
  H  H15  1  0.83821100  0.37637700  0.64561600  1
  H  H16  1  0.94020300  0.62565400  0.32678800  1
  H  H17  1  0.04975800  0.36547400  0.66188200  1
  H  H18  1  0.15151000  0.61382500  0.34250700  1
  H  H19  1  0.21237400  0.41569500  0.60027900  1
  C  C1  1  0.47626200  0.29530900  0.49749500  1
  C  C2  1  0.55368800  0.49553400  0.69666500  1
  C  C3  1  0.51371000  0.69518000  0.49193900  1
  C  C4  1  0.43633400  0.49734200  0.29222900  1
  C  C5  1  0.27531000  0.57937500  0.02158900  1
  C  C6  1  0.40559700  0.51115700  0.17984500  1
  C  C7  1  0.69428100  0.44070500  0.86231000  1
  C  C8  1  0.72598400  0.41854600  0.96588200  1
  C  C9  1  0.65099400  0.44031300  0.02006400  1
  C  C10  1  0.54330700  0.48963600  0.97220600  1
  C  C11  1  0.51375000  0.51668300  0.86729500  1
  C  C12  1  0.46426600  0.51230200  0.02618500  1
  C  C13  1  0.35809900  0.56047800  0.97367600  1
  C  C14  1  0.33484400  0.59381400  0.87346200  1
  C  C15  1  0.41312300  0.57522100  0.82190100  1
  C  C16  1  0.48765200  0.48947800  0.13127900  1
  C  C17  1  0.29796600  0.55373400  0.12383600  1
  C  C18  1  0.58726900  0.48736900  0.81077300  1
  C  C19  1  0.52376900  0.80699600  0.48888400  1
  C  C20  1  0.46667000  0.18291900  0.50402300  1
  C  C21  1  0.36369200  0.02916700  0.52704400  1
  C  C22  1  0.37496800  0.13430200  0.53078200  1
  C  C23  1  0.55016900  0.12379400  0.48157000  1
  C  C24  1  0.54139700  0.01833100  0.48349500  1
  C  C25  1  0.44692900  0.97126700  0.50434700  1
  C  C26  1  0.43718700  0.86603900  0.50583600  1
  C  C27  1  0.61933000  0.85431500  0.46888200  1
  C  C28  1  0.62729300  0.95964600  0.46502700  1
  C  C29  1  0.99913600  0.57870400  0.38750900  1
  C  C30  1  0.11794800  0.57198200  0.39637900  1
  C  C31  1  0.15170200  0.46146800  0.53983400  1
  C  C32  1  0.03329700  0.46619700  0.53259800  1
  C  C33  1  0.95653000  0.52511900  0.45617400  1
  C  C34  1  0.83817300  0.53006900  0.44916900  1
  C  C35  1  0.87184200  0.41854300  0.59197500  1
  C  C36  1  0.99076100  0.41240200  0.60117800  1
  N  N1  1  0.79772900  0.47694600  0.51666400  1
  N  N2  1  0.19209600  0.51368200  0.47180900  1
  N  N3  1  0.29778600  0.18931700  0.57080700  1
  O  O1  1  0.57990600  0.33715600  0.50384500  1
  O  O2  1  0.38134800  0.34972000  0.48682700  1
  O  O3  1  0.63875400  0.48951200  0.65536300  1
  O  O4  1  0.44070700  0.49945200  0.63992500  1
  O  O5  1  0.60819000  0.64123000  0.49942600  1
  O  O6  1  0.41014600  0.65362400  0.48600100  1
  O  O7  1  0.54926700  0.48938600  0.34826500  1
  O  O8  1  0.35087300  0.50314000  0.33287300  1
  O  O9  1  0.18804700  0.15784800  0.55098400  1
  O  O10  1  0.34452300  0.24875300  0.64903000  1
