# generated using pymatgen
data_Fe2H21C46NO16
_symmetry_space_group_name_H-M   'P 1'
_cell_length_a   16.14331300
_cell_length_b   9.39590300
_cell_length_c   17.25818100
_cell_angle_alpha   89.23207900
_cell_angle_beta   84.34342700
_cell_angle_gamma   108.76141300
_symmetry_Int_Tables_number   1
_chemical_formula_structural   Fe2H21C46NO16
_chemical_formula_sum   'Fe2 H21 C46 N1 O16'
_cell_volume   2463.75039886
_cell_formula_units_Z   1
loop_
 _symmetry_equiv_pos_site_id
 _symmetry_equiv_pos_as_xyz
  1  'x, y, z'
loop_
 _atom_site_type_symbol
 _atom_site_label
 _atom_site_symmetry_multiplicity
 _atom_site_fract_x
 _atom_site_fract_y
 _atom_site_fract_z
 _atom_site_occupancy
  Fe  Fe1  1  0.53673900  0.04441300  0.13211100  1
  Fe  Fe2  1  0.52361600  0.02767700  0.84741100  1
  H  H1  1  0.95151000  0.99115200  0.85947300  1
  H  H2  1  0.19471300  0.93368700  0.89185900  1
  H  H3  1  0.05559500  0.95550700  0.90776400  1
  H  H4  1  0.81381600  0.97879900  0.81741000  1
  H  H5  1  0.24178500  0.10194700  0.15657600  1
  H  H6  1  0.10114700  0.13309600  0.17079900  1
  H  H7  1  0.96598600  0.17728000  0.18474800  1
  H  H8  1  0.83083500  0.17104500  0.13780200  1
  H  H9  1  0.52669000  0.29282000  0.62525100  1
  H  H10  1  0.54878700  0.75422600  0.59368000  1
  H  H11  1  0.51070600  0.76851800  0.35216100  1
  H  H12  1  0.50828700  0.31782700  0.39237800  1
  H  H13  1  0.50039200  0.55297600  0.82176800  1
  H  H14  1  0.54171700  0.50139900  0.16075900  1
  H  H15  1  0.57972100  0.43635500  0.49253200  1
  H  H16  1  0.47256700  0.75793800  0.49161000  1
  H  H17  1  0.36018400  0.82675900  0.44850600  1
  H  H18  1  0.22264300  0.75386900  0.38815100  1
  H  H19  1  0.14665300  0.48792900  0.36587200  1
  H  H20  1  0.20837600  0.29396300  0.40514800  1
  H  H21  1  0.34499700  0.36374900  0.46628200  1
  C  C1  1  0.90370400  0.00921700  0.90265000  1
  C  C2  1  0.28558900  0.98314900  0.97822400  1
  C  C3  1  0.20534700  0.96723400  0.95065400  1
  C  C4  1  0.14022400  0.00449300  0.99541500  1
  C  C5  1  0.06303300  0.99801100  0.96501500  1
  C  C6  1  0.99867400  0.04322600  0.00794100  1
  C  C7  1  0.82492300  0.00449900  0.87714600  1
  C  C8  1  0.75874100  0.02532400  0.92718300  1
  C  C9  1  0.91965300  0.04111600  0.97930600  1
  C  C10  1  0.85479000  0.07292100  0.02861100  1
  C  C11  1  0.77187000  0.05390600  0.00450700  1
  C  C12  1  0.29736300  0.02761400  0.05430800  1
  C  C13  1  0.23135400  0.06274700  0.09859400  1
  C  C14  1  0.15376700  0.05308800  0.06902600  1
  C  C15  1  0.09030600  0.09472000  0.11273600  1
  C  C16  1  0.01355000  0.08991500  0.08259400  1
  C  C17  1  0.95268600  0.13541800  0.12768200  1
  C  C18  1  0.87414100  0.12715800  0.10125400  1
  C  C19  1  0.69617200  0.04417000  0.06228000  1
  C  C20  1  0.52844700  0.77052500  0.19524600  1
  C  C21  1  0.38092000  0.05781600  0.08746300  1
  C  C22  1  0.52769000  0.25332700  0.24353100  1
  C  C23  1  0.52679500  0.81086800  0.74226500  1
  C  C24  1  0.67290200  0.99763800  0.89863300  1
  C  C25  1  0.51097600  0.28410200  0.78324400  1
  C  C26  1  0.35834400  0.97280500  0.92211700  1
  C  C27  1  0.51376400  0.40876900  0.72956800  1
  C  C28  1  0.52425200  0.39702100  0.64952900  1
  C  C29  1  0.53023700  0.51794900  0.59998200  1
  C  C30  1  0.53367000  0.65422400  0.63093100  1
  C  C31  1  0.52025000  0.66507000  0.71027900  1
  C  C32  1  0.50791700  0.54146300  0.75950200  1
  C  C33  1  0.54008000  0.50327000  0.51508800  1
  C  C34  1  0.50045500  0.56594200  0.46613600  1
  C  C35  1  0.51522500  0.66399000  0.33006400  1
  C  C36  1  0.52597100  0.64828800  0.25043900  1
  C  C37  1  0.53402100  0.51561800  0.22276500  1
  C  C38  1  0.52760800  0.39744900  0.27394300  1
  C  C39  1  0.51565100  0.41266200  0.35313700  1
  C  C40  1  0.51173900  0.54734500  0.38164400  1
  C  C41  1  0.36342000  0.60096000  0.46001700  1
  C  C42  1  0.32773100  0.70937800  0.43887400  1
  C  C43  1  0.25015100  0.66871500  0.40489700  1
  C  C44  1  0.20754900  0.51968600  0.39239100  1
  C  C45  1  0.24227000  0.41103000  0.41426900  1
  C  C46  1  0.31990200  0.45118700  0.44818600  1
  N  N1  1  0.44269000  0.64312500  0.49522200  1
  O  O1  1  0.62794500  0.07708000  0.04224300  1
  O  O2  1  0.53412000  0.75086600  0.12000400  1
  O  O3  1  0.69268100  0.98795600  0.13298300  1
  O  O4  1  0.52656400  0.90089600  0.22042600  1
  O  O5  1  0.41981800  0.95488200  0.09116700  1
  O  O6  1  0.41520500  0.18865700  0.11719400  1
  O  O7  1  0.56878500  0.25081200  0.17431500  1
  O  O8  1  0.47877100  0.12755900  0.28114900  1
  O  O9  1  0.48230000  0.81830500  0.80911000  1
  O  O10  1  0.58262800  0.93376900  0.70697100  1
  O  O11  1  0.64462400  0.10983100  0.88164500  1
  O  O12  1  0.62505000  0.85903200  0.88750300  1
  O  O13  1  0.34502600  0.94788400  0.84900500  1
  O  O14  1  0.53246000  0.16792800  0.75796100  1
  O  O15  1  0.43893000  0.00862900  0.94112900  1
  O  O16  1  0.49085400  0.29181300  0.85825400  1
