# generated using pymatgen
data_ZnH3C15N3O4
_symmetry_space_group_name_H-M   'P 1'
_cell_length_a   10.99779900
_cell_length_b   14.32984500
_cell_length_c   8.56175500
_cell_angle_alpha   90.00000000
_cell_angle_beta   102.37808400
_cell_angle_gamma   90.00000000
_symmetry_Int_Tables_number   1
_chemical_formula_structural   ZnH3C15N3O4
_chemical_formula_sum   'Zn2 H6 C30 N6 O8'
_cell_volume   1317.93933055
_cell_formula_units_Z   2
loop_
 _symmetry_equiv_pos_site_id
 _symmetry_equiv_pos_as_xyz
  1  'x, y, z'
loop_
 _atom_site_type_symbol
 _atom_site_label
 _atom_site_symmetry_multiplicity
 _atom_site_fract_x
 _atom_site_fract_y
 _atom_site_fract_z
 _atom_site_occupancy
  Zn  Zn1  1  0.48248500  0.89779800  0.49419900  1
  Zn  Zn2  1  0.51751500  0.10220200  0.50580200  1
  H  H1  1  0.41706800  0.04431600  0.98006100  1
  H  H2  1  0.58293200  0.95568500  0.01993900  1
  H  H3  1  0.08378800  0.99538100  0.63548100  1
  H  H4  1  0.91621300  0.00461900  0.36451900  1
  H  H5  1  0.10972600  0.01171200  0.28188700  1
  H  H6  1  0.89027500  0.98828900  0.71811300  1
  C  C1  1  0.25581000  0.02267500  0.07372600  1
  C  C2  1  0.74419000  0.97732500  0.92627400  1
  C  C3  1  0.31806300  0.03295500  0.95181500  1
  C  C4  1  0.68193700  0.96704500  0.04818600  1
  C  C5  1  0.25796700  0.02012600  0.79541600  1
  C  C6  1  0.74203300  0.97987400  0.20458400  1
  C  C7  1  0.13129800  0.00528200  0.75861300  1
  C  C8  1  0.86870200  0.99471800  0.24138800  1
  C  C9  1  0.06562000  0.00414000  0.87955100  1
  C  C10  1  0.93438000  0.99586000  0.12045000  1
  C  C11  1  0.12805100  0.01035300  0.03785800  1
  C  C12  1  0.87195000  0.98964700  0.96214200  1
  C  C13  1  0.93784900  0.99407400  0.84197400  1
  C  C14  1  0.06215100  0.00592600  0.15802600  1
  C  C15  1  0.52761600  0.30468200  0.50959400  1
  C  C16  1  0.47238500  0.69531800  0.49040600  1
  C  C17  1  0.39663000  0.44316400  0.47179500  1
  C  C18  1  0.60337100  0.55683600  0.52820500  1
  C  C19  1  0.61766100  0.46119400  0.53333500  1
  C  C20  1  0.38233900  0.53880600  0.46666600  1
  C  C21  1  0.66876700  0.98485300  0.76395700  1
  C  C22  1  0.33123300  0.01514700  0.23604300  1
  C  C23  1  0.33353100  0.01323600  0.67514400  1
  C  C24  1  0.66646900  0.98676400  0.32485600  1
  C  C25  1  0.51421400  0.40433800  0.50512900  1
  C  C26  1  0.48578700  0.59566200  0.49487200  1
  C  C27  1  0.26000100  0.57902200  0.43205100  1
  C  C28  1  0.73999900  0.42097800  0.56795000  1
  C  C29  1  0.71102100  0.61613100  0.55762500  1
  C  C30  1  0.28897900  0.38386900  0.44237500  1
  N  N1  1  0.46573700  0.77590900  0.48824400  1
  N  N2  1  0.53426300  0.22409100  0.51175700  1
  N  N3  1  0.16136300  0.61144600  0.40413500  1
  N  N4  1  0.83863700  0.38855400  0.59586600  1
  N  N5  1  0.79781700  0.66393800  0.58134000  1
  N  N6  1  0.20218300  0.33606200  0.41866100  1
  O  O1  1  0.64379600  0.06893300  0.70435800  1
  O  O2  1  0.35620400  0.93106700  0.29564200  1
  O  O3  1  0.38716300  0.09054900  0.30286300  1
  O  O4  1  0.61283700  0.90945100  0.69713700  1
  O  O5  1  0.35772000  0.92973500  0.62678100  1
  O  O6  1  0.64228000  0.07026500  0.37322000  1
  O  O7  1  0.61120500  0.91108300  0.36038600  1
  O  O8  1  0.38879500  0.08891700  0.63961500  1
