# Generated by REPEAT Assigner based on pymatgen
data_DB0-m2_o2_o19_f0_nbo.sym.30
_audit_creation_date              2022-05-24
_audit_creation_method            REPEAT_Assigner
_cell_length_a                    30.002583
_cell_length_b                    30.002882
_cell_length_c                    23.484028
_cell_angle_alpha                 90.000000
_cell_angle_beta                  90.000000
_cell_angle_gamma                 90.000000
_cell_volume                      21139.475362
_symmetry_space_group_name_H-M    P1
_symmetry_Int_Tables_number       1
loop_
    _symmetry_equiv_pos_site_id
    _symmetry_equiv_pos_as_xyz
    1  x,y,z
loop_
    _atom_site_type_symbol
    _atom_site_label
    _atom_site_fract_x
    _atom_site_fract_y
    _atom_site_fract_z
    _atom_type_partial_charge
    C   C1    0.584022  0.000007  0.497950  0.665473
    C   C2    0.000144  0.499878  0.605572  0.934311
    C   C3    0.029457  0.156610  0.528830  -0.130308
    C   C4    0.157385  0.039188  0.475477  -0.161513
    C   C5    0.039588  0.842377  0.476078  -0.158972
    C   C6    0.842295  0.960590  0.475389  -0.155471
    C   C7    0.960557  0.157445  0.475404  -0.158205
    C   C8    0.343808  0.526705  0.031119  -0.109891
    C   C9    0.473305  0.343839  0.030855  -0.111427
    C   C10   0.656343  0.473235  0.030783  -0.113200
    C   C11   0.526733  0.656373  0.031158  -0.112236
    C   C12   0.657388  0.540004  0.973464  -0.128024
    C   C13   0.499818  0.000157  0.390466  0.925706
    C   C14   0.539889  0.342780  0.973184  -0.127137
    C   C15   0.342831  0.460333  0.973072  -0.128415
    C   C16   0.460303  0.657339  0.973222  -0.126979
    C   C17   0.866253  0.994383  0.503116  -0.003001
    C   C18   0.005519  0.866278  0.503353  0.000868
    C   C19   0.133485  0.005481  0.503456  0.005591
    C   C20   0.994332  0.133507  0.503190  0.004067
    C   C21   0.366761  0.492702  0.003288  -0.001679
    C   C22   0.507423  0.366754  0.003195  -0.002260
    C   C23   0.633422  0.507438  0.003304  -0.001532
    C   C24   0.000070  0.499891  0.390450  0.925526
    C   C25   0.492696  0.633416  0.003397  -0.002189
    C   C26   0.773750  0.997287  0.500326  0.226478
    C   C27   0.002827  0.773763  0.500541  0.225890
    C   C28   0.225999  0.002736  0.500623  0.224487
    C   C29   0.997204  0.226008  0.500371  0.226230
    C   C30   0.274262  0.496170  0.000294  0.194582
    C   C31   0.503864  0.274255  0.000229  0.198657
    C   C32   0.725918  0.503887  0.000269  0.202796
    C   C33   0.496165  0.725913  0.000349  0.197420
    C   C34   0.004379  0.915305  0.502478  0.716197
    C   C35   0.000053  0.499936  0.105583  0.936204
    C   C36   0.084459  0.004370  0.502539  0.712425
    C   C37   0.995391  0.084488  0.502357  0.710038
    C   C38   0.915273  0.995427  0.502310  0.714624
    C   C39   0.506044  0.415701  0.002247  0.664865
    C   C40   0.584476  0.506049  0.002323  0.666730
    C   C41   0.494124  0.584475  0.002384  0.666570
    C   C42   0.415702  0.494126  0.002308  0.665479
    C   C43   0.724111  0.993424  0.392696  0.677417
    C   C44   0.756951  0.028457  0.375819  -0.454166
    C   C45   0.007416  0.724180  0.392958  0.678560
    C   C46   0.499886  0.000105  0.105604  0.937960
    C   C47   0.972397  0.756927  0.375743  -0.455304
    C   C48   0.275550  0.005840  0.392955  0.678119
    C   C49   0.242836  0.970557  0.376540  -0.455803
    C   C50   0.993560  0.275642  0.392789  0.678484
    C   C51   0.028720  0.242903  0.376023  -0.454962
    C   C52   0.277334  0.997722  0.606791  0.671265
    C   C53   0.246525  0.034401  0.624191  -0.458768
    C   C54   0.996283  0.722433  0.606581  0.669554
    C   C55   0.032782  0.753157  0.624822  -0.459722
    C   C56   0.722462  0.003224  0.606441  0.671115
    C   C57   0.000124  0.499895  0.890412  0.928280
    C   C58   0.753126  0.966568  0.624326  -0.459624
    C   C59   0.003072  0.277294  0.606557  0.670581
    C   C60   0.966502  0.246500  0.624375  -0.459501
    C   C61   0.224588  0.497782  0.892585  0.683905
    C   C62   0.257534  0.533484  0.878572  -0.466153
    C   C63   0.502588  0.224571  0.892524  0.680506
    C   C64   0.466974  0.257553  0.878288  -0.460108
    C   C65   0.775573  0.503008  0.892528  0.682443
    C   C66   0.742583  0.467449  0.878095  -0.464174
    C   C67   0.497639  0.775576  0.892625  0.682192
    C   C68   0.499959  0.000071  0.890432  0.929103
    C   C69   0.533326  0.742631  0.878544  -0.463641
    C   C70   0.777366  0.502350  0.106610  0.676320
    C   C71   0.746763  0.539761  0.121942  -0.460676
    C   C72   0.502724  0.222843  0.106604  0.675688
    C   C73   0.540181  0.253464  0.121693  -0.459333
    C   C74   0.222836  0.496842  0.106663  0.677094
    C   C75   0.253502  0.459368  0.121530  -0.458020
    C   C76   0.496978  0.777353  0.106707  0.676667
    C   C77   0.459522  0.746691  0.121662  -0.458720
    C   C78   0.866222  0.065821  0.559263  0.724724
    C   C79   0.499962  0.000057  0.666659  -0.298817
    C   C80   0.849239  0.112519  0.556340  -0.505097
    C   C81   0.933700  0.866090  0.558751  0.725867
    C   C82   0.887117  0.848791  0.555797  -0.506316
    C   C83   0.133682  0.934186  0.560012  0.724514
    C   C84   0.151053  0.887605  0.557810  -0.495462
    C   C85   0.065765  0.133579  0.559377  0.727702
    C   C86   0.112450  0.150614  0.556532  -0.506462
    C   C87   0.135414  0.076416  0.444579  0.659699
    C   C88   0.161216  0.107176  0.407025  -0.423927
    C   C89   0.077190  0.864338  0.445882  0.659094
    C   C90   0.000159  0.499881  0.666641  -0.300859
    C   C91   0.109055  0.838372  0.410052  -0.424447
    C   C92   0.864190  0.923226  0.444643  0.658007
    C   C93   0.838180  0.891864  0.408148  -0.420180
    C   C94   0.923202  0.135514  0.444688  0.659109
    C   C95   0.892061  0.161422  0.407771  -0.422123
    C   C96   0.367069  0.561080  0.064584  0.726658
    C   C97   0.353968  0.608924  0.059862  -0.483613
    C   C98   0.438887  0.367134  0.064209  0.728458
    C   C99   0.391042  0.354058  0.059379  -0.487039
    C   C100  0.633057  0.438730  0.064004  0.728873
    C   C101  0.499820  0.000163  0.329394  -0.290009
    C   C102  0.646252  0.390921  0.059134  -0.484705
    C   C103  0.561146  0.633122  0.064571  0.728620
    C   C104  0.608967  0.646316  0.059895  -0.485138
    C   C105  0.635336  0.576646  0.941578  0.643054
    C   C106  0.660609  0.605111  0.900655  -0.438698
    C   C107  0.576428  0.364821  0.941085  0.641982
    C   C108  0.604820  0.339510  0.900117  -0.437434
    C   C109  0.364934  0.423957  0.940774  0.642339
    C   C110  0.339853  0.396231  0.898844  -0.438353
    C   C111  0.423906  0.635225  0.940990  0.641988
    C   C112  0.000232  0.584031  0.498027  0.661003
    C   C113  0.000055  0.499906  0.329376  -0.291254
    C   C114  0.396350  0.660221  0.898794  -0.438683
    C   C115  0.000044  0.499944  0.166658  -0.300705
    C   C116  0.499863  0.000123  0.166678  -0.304092
    C   C117  0.000139  0.499887  0.829345  -0.291927
    C   C118  0.499976  0.000062  0.829364  -0.293180
    C   C119  0.499975  0.000052  0.717958  0.102665
    C   C120  0.000159  0.499882  0.717940  0.104819
    C   C121  0.499830  0.000156  0.278092  0.093943
    C   C122  0.000047  0.499921  0.278074  0.095997
    C   C123  0.000043  0.499937  0.217961  0.104489
    C   C124  0.415725  0.000231  0.498117  0.665601
    C   C125  0.499846  0.000140  0.217980  0.107892
    C   C126  0.000151  0.499884  0.778047  0.095898
    C   C127  0.499980  0.000055  0.778066  0.097526
    C   C128  0.701621  0.994725  0.448326  -0.093089
    C   C129  0.005808  0.701656  0.448549  -0.090631
    C   C130  0.298092  0.005012  0.448560  -0.094989
    C   C131  0.994717  0.298140  0.448413  -0.094525
    C   C132  0.298863  0.997653  0.550538  -0.092794
    C   C133  0.996964  0.700905  0.550335  -0.088624
    C   C134  0.700912  0.002898  0.550206  -0.091059
    C   C135  0.999977  0.415735  0.498021  0.662490
    C   C136  0.002763  0.298840  0.550312  -0.090890
    C   C137  0.202055  0.496423  0.948180  -0.099240
    C   C138  0.503713  0.202043  0.948130  -0.095541
    C   C139  0.798116  0.503931  0.948131  -0.097021
    C   C140  0.496346  0.798113  0.948219  -0.097963
    C   C141  0.798870  0.500223  0.050411  -0.099183
    C   C142  0.500399  0.201317  0.050430  -0.098378
    C   C143  0.201313  0.499348  0.050500  -0.100139
    C   C144  0.499413  0.798867  0.050533  -0.098581
    C   C145  0.655693  0.993077  0.448660  -0.227485
    C   C146  0.084296  0.499431  0.998038  0.674762
    C   C147  0.007489  0.655730  0.448869  -0.230321
    C   C148  0.344016  0.006708  0.448821  -0.224522
    C   C149  0.993086  0.344065  0.448739  -0.226389
    C   C150  0.344697  0.994720  0.549012  -0.221878
    C   C151  0.993985  0.655077  0.548745  -0.225615
    C   C152  0.655085  0.005887  0.548684  -0.223813
    C   C153  0.005782  0.344669  0.548787  -0.224350
    C   C154  0.156092  0.494952  0.948330  -0.226948
    C   C155  0.505127  0.156078  0.948299  -0.228303
    C   C156  0.844082  0.505347  0.948291  -0.226754
    C   C157  0.500403  0.084294  0.997996  0.673125
    C   C158  0.494876  0.844076  0.948364  -0.226777
    C   C159  0.844722  0.497107  0.049067  -0.223946
    C   C160  0.497295  0.155463  0.049128  -0.226125
    C   C161  0.155454  0.502389  0.049208  -0.226415
    C   C162  0.502463  0.844725  0.049223  -0.226864
    C   C163  0.632532  0.999773  0.498391  0.136606
    C   C164  0.000461  0.632544  0.498508  0.140004
    C   C165  0.367214  0.000448  0.498617  0.134748
    C   C166  0.999732  0.367224  0.498481  0.138319
    C   C167  0.132870  0.499015  0.998499  0.138445
    C   C168  0.915878  0.500402  0.997940  0.673962
    C   C169  0.500835  0.132868  0.998444  0.138973
    C   C170  0.867304  0.500846  0.998399  0.136878
    C   C171  0.499019  0.867302  0.998516  0.138181
    C   C172  0.724787  0.998418  0.499589  0.003579
    C   C173  0.001771  0.724800  0.499781  0.001063
    C   C174  0.274960  0.001695  0.499883  0.005236
    C   C175  0.998320  0.274970  0.499678  0.003929
    C   C176  0.225243  0.497442  0.999641  0.024091
    C   C177  0.502532  0.225238  0.999579  0.019870
    C   C178  0.774935  0.502554  0.999584  0.018913
    C   C179  0.499442  0.915876  0.998043  0.674807
    C   C180  0.497434  0.774932  0.999682  0.021684
    C   C181  0.797335  0.031390  0.525016  -0.163826
    C   C182  0.968515  0.797279  0.524850  -0.161703
    C   C183  0.202491  0.968728  0.525636  -0.163383
    C   C184  0.031292  0.202441  0.525114  -0.163283
    C   C185  0.203546  0.037953  0.476599  -0.144871
    C   C186  0.038354  0.796210  0.477255  -0.145208
    C   C187  0.796132  0.961888  0.476617  -0.148823
    C   C188  0.961849  0.203609  0.476571  -0.148165
    C   C189  0.297995  0.528837  0.027916  -0.155062
    C   C190  0.499937  0.000079  0.605590  0.934045
    C   C191  0.471125  0.298030  0.027646  -0.155223
    C   C192  0.702152  0.471063  0.027531  -0.157505
    C   C193  0.528860  0.702187  0.027928  -0.155664
    C   C194  0.703575  0.538347  0.974140  -0.163414
    C   C195  0.538236  0.296592  0.973899  -0.162703
    C   C196  0.296647  0.461931  0.973747  -0.160833
    C   C197  0.461902  0.703521  0.973863  -0.162294
    C   C198  0.843167  0.029529  0.528726  -0.126170
    C   C199  0.970241  0.843118  0.528576  -0.130815
    C   C200  0.156644  0.970476  0.529317  -0.132345
    Cu  Cu1   0.499931  0.043547  0.498055  1.004781
    Cu  Cu2   0.999913  0.999874  0.446293  0.971213
    Cu  Cu3   0.500089  0.500061  0.057642  1.066751
    Cu  Cu4   0.500087  0.500118  0.946232  0.958494
    Cu  Cu5   0.956678  0.499948  0.498037  1.003235
    Cu  Cu6   0.499816  0.956690  0.498001  1.004580
    Cu  Cu7   0.043535  0.499818  0.497986  1.003713
    Cu  Cu8   0.000338  0.543356  0.997981  1.007320
    Cu  Cu9   0.456482  0.000332  0.997992  1.007906
    Cu  Cu10  0.999836  0.456476  0.998008  1.008035
    Cu  Cu11  0.543363  0.999838  0.998039  1.007838
    Cu  Cu12  0.999817  0.999923  0.557828  1.052098
    H   H1    0.637579  0.989472  0.409140  0.164745
    H   H2    0.506769  0.137979  0.908555  0.163600
    H   H3    0.861658  0.868783  0.386692  0.124868
    H   H4    0.819487  0.910726  0.375269  0.121120
    H   H5    0.871959  0.184701  0.433973  0.116466
    H   H6    0.869015  0.137897  0.386336  0.125425
    H   H7    0.911114  0.179915  0.374887  0.121546
    H   H8    0.333461  0.614432  0.021212  0.096998
    H   H9    0.384430  0.629715  0.057005  0.131165
    H   H10   0.334870  0.618796  0.098266  0.144344
    H   H11   0.385567  0.333591  0.020686  0.098181
    H   H12   0.370266  0.384530  0.056540  0.131668
    H   H13   0.862170  0.507142  0.908550  0.163200
    H   H14   0.381118  0.334928  0.097736  0.145086
    H   H15   0.666617  0.385491  0.020342  0.097871
    H   H16   0.615830  0.370061  0.056458  0.130573
    H   H17   0.665522  0.381061  0.097403  0.144702
    H   H18   0.614474  0.666769  0.021196  0.097604
    H   H19   0.629825  0.615894  0.057162  0.131033
    H   H20   0.618760  0.665497  0.098265  0.144861
    H   H21   0.685223  0.625951  0.923736  0.121334
    H   H22   0.636893  0.627568  0.878556  0.131772
    H   H23   0.677541  0.583883  0.868588  0.125813
    H   H24   0.493316  0.862163  0.908607  0.163156
    H   H25   0.625728  0.314943  0.923182  0.120714
    H   H26   0.627212  0.363211  0.877884  0.131454
    H   H27   0.583534  0.322519  0.868164  0.125468
    H   H28   0.315005  0.375117  0.921093  0.121809
    H   H29   0.363647  0.374040  0.876444  0.131870
    H   H30   0.323217  0.418025  0.867148  0.125329
    H   H31   0.375222  0.685187  0.920804  0.122135
    H   H32   0.374174  0.636399  0.876420  0.132006
    H   H33   0.418271  0.676709  0.867114  0.125446
    H   H34   0.863346  0.494840  0.088361  0.163327
    H   H35   0.495185  0.136848  0.088444  0.163751
    H   H36   0.136831  0.504332  0.088532  0.163710
    H   H37   0.504464  0.863353  0.088539  0.163840
    H   H38   0.779195  0.058898  0.543401  0.095173
    H   H39   0.940935  0.779055  0.542910  0.094841
    H   H40   0.220730  0.941377  0.544234  0.095132
    H   H41   0.011360  0.637639  0.409373  0.165479
    H   H42   0.058767  0.220607  0.543527  0.095017
    H   H43   0.223267  0.064378  0.458449  0.085410
    H   H44   0.064986  0.776464  0.459651  0.084837
    H   H45   0.776343  0.935410  0.458715  0.086088
    H   H46   0.935379  0.223373  0.458603  0.086011
    H   H47   0.280284  0.555531  0.048902  0.097813
    H   H48   0.444342  0.280351  0.048490  0.097916
    H   H49   0.719843  0.444219  0.048226  0.098040
    H   H50   0.555572  0.719908  0.048862  0.097749
    H   H51   0.723330  0.564015  0.954332  0.093095
    H   H52   0.362101  0.010012  0.409236  0.163872
    H   H53   0.563835  0.276827  0.953962  0.093269
    H   H54   0.276941  0.436365  0.953644  0.092710
    H   H55   0.436308  0.723212  0.953792  0.093037
    H   H56   0.759281  0.054511  0.409144  0.077762
    H   H57   0.745684  0.044293  0.335667  0.150161
    H   H58   0.790106  0.013045  0.368877  0.123019
    H   H59   0.946127  0.759163  0.408802  0.077572
    H   H60   0.956849  0.745638  0.335419  0.150276
    H   H61   0.987758  0.790131  0.368996  0.123381
    H   H62   0.240642  0.944739  0.410180  0.078513
    H   H63   0.989547  0.362176  0.409208  0.164495
    H   H64   0.254130  0.954474  0.336561  0.150503
    H   H65   0.209613  0.985786  0.369475  0.123583
    H   H66   0.054711  0.240648  0.409439  0.078079
    H   H67   0.044606  0.254215  0.335926  0.150305
    H   H68   0.013416  0.209704  0.369037  0.123092
    H   H69   0.244769  0.060250  0.590550  0.079899
    H   H70   0.259319  0.050015  0.663733  0.150408
    H   H71   0.212826  0.020643  0.632401  0.134896
    H   H72   0.059088  0.754877  0.591761  0.080115
    H   H73   0.047827  0.740315  0.664696  0.150895
    H   H74   0.363341  0.991108  0.588127  0.163467
    H   H75   0.018981  0.786881  0.632748  0.135236
    H   H76   0.754806  0.940462  0.591005  0.080183
    H   H77   0.740257  0.951304  0.664051  0.150583
    H   H78   0.786871  0.980266  0.632389  0.135103
    H   H79   0.940428  0.244734  0.591021  0.079934
    H   H80   0.951158  0.259309  0.664080  0.150691
    H   H81   0.980309  0.212800  0.632458  0.135072
    H   H82   0.259921  0.557837  0.913927  0.081732
    H   H83   0.246333  0.551294  0.839763  0.152535
    H   H84   0.290651  0.518349  0.870429  0.126113
    H   H85   0.989782  0.636448  0.587775  0.164412
    H   H86   0.442490  0.259967  0.913494  0.079521
    H   H87   0.449298  0.246370  0.839371  0.151449
    H   H88   0.482174  0.290653  0.870238  0.124562
    H   H89   0.740169  0.442842  0.913160  0.080862
    H   H90   0.753758  0.449909  0.839074  0.152460
    H   H91   0.709483  0.482682  0.870139  0.125361
    H   H92   0.557719  0.740242  0.913855  0.080962
    H   H93   0.551093  0.753834  0.839704  0.152165
    H   H94   0.518182  0.709515  0.870426  0.125443
    H   H95   0.745072  0.564392  0.086837  0.079269
    H   H96   0.636472  0.009827  0.587771  0.163772
    H   H97   0.759698  0.556700  0.160505  0.150628
    H   H98   0.713011  0.526477  0.131028  0.136090
    H   H99   0.564688  0.255142  0.086446  0.079148
    H   H100  0.557259  0.240555  0.160171  0.150398
    H   H101  0.526919  0.287218  0.130825  0.135315
    H   H102  0.255217  0.434997  0.086132  0.079061
    H   H103  0.240608  0.442128  0.159897  0.149826
    H   H104  0.287238  0.472637  0.130753  0.134912
    H   H105  0.435106  0.744968  0.086315  0.079138
    H   H106  0.442330  0.759593  0.160061  0.149929
    H   H107  0.009699  0.363284  0.587876  0.164234
    H   H108  0.472803  0.712957  0.130870  0.135323
    H   H109  0.838589  0.120333  0.512243  0.105010
    H   H110  0.876257  0.135714  0.569032  0.136638
    H   H111  0.820781  0.116780  0.585966  0.149724
    H   H112  0.879326  0.838294  0.511635  0.105913
    H   H113  0.863753  0.875587  0.568740  0.136776
    H   H114  0.883068  0.820179  0.585231  0.149821
    H   H115  0.161633  0.879418  0.513799  0.102959
    H   H116  0.124268  0.864325  0.571034  0.134057
    H   H117  0.179623  0.883872  0.587379  0.146705
    H   H118  0.137999  0.493447  0.908574  0.163090
    H   H119  0.120426  0.160901  0.512341  0.105359
    H   H120  0.135630  0.123740  0.569748  0.137380
    H   H121  0.116572  0.179319  0.585798  0.149362
    H   H122  0.184645  0.127473  0.432760  0.117440
    H   H123  0.137640  0.130072  0.385424  0.125708
    H   H124  0.179532  0.087792  0.374295  0.121854
    H   H125  0.128829  0.815341  0.437011  0.116775
    H   H126  0.132335  0.861888  0.389018  0.126050
    H   H127  0.090642  0.819602  0.376832  0.122373
    H   H128  0.815073  0.871825  0.434677  0.115626
    O   O1    0.563327  0.036593  0.514799  -0.613474
    O   O2    0.463694  0.063716  0.014673  -0.618290
    O   O3    0.936449  0.463703  0.014665  -0.618379
    O   O4    0.536141  0.936459  0.014744  -0.618653
    O   O5    0.936883  0.536866  0.981254  -0.616758
    O   O6    0.536877  0.063295  0.981330  -0.616932
    O   O7    0.063303  0.462960  0.981350  -0.617487
    O   O8    0.462979  0.936869  0.981323  -0.617365
    O   O9    0.486889  0.036702  0.579079  -0.627762
    O   O10   0.963520  0.486850  0.579046  -0.627171
    O   O11   0.512953  0.963475  0.579009  -0.627856
    O   O12   0.963643  0.563330  0.514853  -0.611908
    O   O13   0.036750  0.512907  0.579007  -0.626965
    O   O14   0.512955  0.036728  0.417023  -0.625517
    O   O15   0.036655  0.486750  0.416975  -0.624573
    O   O16   0.486699  0.963570  0.417002  -0.625431
    O   O17   0.963503  0.513024  0.417019  -0.624654
    O   O18   0.987272  0.536622  0.079014  -0.628420
    O   O19   0.463204  0.987309  0.079038  -0.628315
    O   O20   0.012846  0.463240  0.079052  -0.628211
    O   O21   0.536586  0.012886  0.079070  -0.628239
    O   O22   0.013325  0.536442  0.916953  -0.626600
    O   O23   0.436440  0.963631  0.514874  -0.613506
    O   O24   0.536493  0.986867  0.917000  -0.626778
    O   O25   0.986904  0.463359  0.916962  -0.626588
    O   O26   0.463407  0.013278  0.916955  -0.626451
    O   O27   0.015152  0.937018  0.549357  -0.532932
    O   O28   0.062725  0.015245  0.549363  -0.530135
    O   O29   0.984500  0.062820  0.549223  -0.531408
    O   O30   0.936923  0.984597  0.549213  -0.530758
    O   O31   0.992414  0.935563  0.454934  -0.563757
    O   O32   0.935591  0.007374  0.454803  -0.562330
    O   O33   0.007400  0.064192  0.454861  -0.563159
    O   O34   0.036583  0.436433  0.514799  -0.612830
    O   O35   0.064220  0.992386  0.454991  -0.563542
    O   O36   0.516909  0.437553  0.049020  -0.525520
    O   O37   0.562603  0.516886  0.049090  -0.526491
    O   O38   0.483268  0.562577  0.049124  -0.525152
    O   O39   0.437578  0.483245  0.049055  -0.525157
    O   O40   0.493379  0.435724  0.954824  -0.551026
    O   O41   0.435697  0.506820  0.954879  -0.552188
    O   O42   0.506792  0.564503  0.954927  -0.552607
    O   O43   0.564477  0.493407  0.954874  -0.551935
    O   O44   0.712552  0.965893  0.357489  -0.524473
    O   O45   0.436516  0.036775  0.481308  -0.611848
    O   O46   0.035215  0.712726  0.358040  -0.524675
    O   O47   0.286959  0.033177  0.357424  -0.524564
    O   O48   0.966052  0.287116  0.357508  -0.524674
    O   O49   0.288280  0.969941  0.641997  -0.519260
    O   O50   0.967976  0.711562  0.641135  -0.518914
    O   O51   0.711666  0.031367  0.641251  -0.519092
    O   O52   0.031122  0.288195  0.641436  -0.519033
    O   O53   0.213022  0.472020  0.855261  -0.525941
    O   O54   0.528477  0.212974  0.855360  -0.525618
    O   O55   0.787161  0.529031  0.855512  -0.525905
    O   O56   0.036759  0.563224  0.481188  -0.610591
    O   O57   0.471834  0.787141  0.855349  -0.525737
    O   O58   0.788163  0.475739  0.143334  -0.519607
    O   O59   0.476250  0.212053  0.143491  -0.519364
    O   O60   0.212003  0.523161  0.143712  -0.519716
    O   O61   0.523351  0.788184  0.143694  -0.519633
    O   O62   0.897018  0.057644  0.591390  -0.505787
    O   O63   0.941554  0.897196  0.590513  -0.506248
    O   O64   0.102467  0.942266  0.591507  -0.506319
    O   O65   0.057635  0.102645  0.591302  -0.506990
    O   O66   0.095568  0.082906  0.448811  -0.503217
    O   O67   0.563211  0.963475  0.481140  -0.611748
    O   O68   0.083073  0.904326  0.449239  -0.503968
    O   O69   0.904151  0.917157  0.448047  -0.503625
    O   O70   0.916932  0.095609  0.448524  -0.503976
    O   O71   0.394000  0.550347  0.100926  -0.509212
    O   O72   0.449582  0.394041  0.100599  -0.508887
    O   O73   0.606084  0.449329  0.100358  -0.508939
    O   O74   0.550456  0.606131  0.100862  -0.509427
    O   O75   0.595962  0.584752  0.948250  -0.497952
    O   O76   0.584508  0.404215  0.947611  -0.497249
    O   O77   0.404182  0.415484  0.947911  -0.497755
    O   O78   0.963441  0.436544  0.481220  -0.610882
    O   O79   0.415286  0.596038  0.948391  -0.498043
    O   O80   0.063713  0.536137  0.014712  -0.618442
